REMARK  Name = ZINC12857761
REMARK  7 active torsions:
REMARK  status: ('A' for Active; 'I' for Inactive)
REMARK    1  A    between atoms: C_1  and  C_2
REMARK    2  A    between atoms: C_2  and  C_4
REMARK    3  A    between atoms: C_2  and  N_12
REMARK    4  A    between atoms: N_12  and  C_13
REMARK    5  A    between atoms: C_13  and  C_15
REMARK    6  A    between atoms: C_13  and  C_16
REMARK    7  A    between atoms: N_18  and  C_19
REMARK                            x       y       z     vdW  Elec       q    Type
REMARK                         _______ _______ _______ _____ _____    ______ ____
ROOT
ATOM      1  C   UNL     1      -3.428  -0.494  -1.289  0.00  0.00    +0.234 C 
ATOM      2  O   UNL     1      -3.988  -0.402  -0.217  0.00  0.00    -0.274 OA
ATOM      3  N   UNL     1      -4.151  -0.531  -2.426  0.00  0.00    -0.284 N 
ATOM      4  H   UNL     1      -3.702  -0.537  -3.286  0.00  0.00    +0.155 HD
ENDROOT
BRANCH   3   5
ATOM      5  C   UNL     1      -5.550  -0.559  -2.366  0.00  0.00    +0.036 A 
ATOM      6  C   UNL     1      -6.270  -1.290  -3.305  0.00  0.00    +0.025 A 
ATOM      7  C   UNL     1      -7.649  -1.321  -3.251  0.00  0.00    +0.029 A 
ATOM      8  C   UNL     1      -8.319  -0.623  -2.258  0.00  0.00    +0.067 A 
ATOM      9  C   UNL     1      -7.599   0.111  -1.314  0.00  0.00    +0.069 A 
ATOM     10  C   UNL     1      -6.214   0.137  -1.367  0.00  0.00    +0.051 A 
ATOM     11  N   UNL     1      -8.532   0.693  -0.459  0.00  0.00    -0.306 N 
ATOM     12  H   UNL     1      -8.329   1.264   0.299  0.00  0.00    +0.170 HD
ATOM     13  C   UNL     1      -9.763   0.330  -0.864  0.00  0.00    +0.325 A 
ATOM     14  O   UNL     1     -10.804   0.668  -0.331  0.00  0.00    -0.247 OA
ATOM     15  N   UNL     1      -9.669  -0.464  -1.947  0.00  0.00    -0.306 N 
ATOM     16  H   UNL     1     -10.413  -0.858  -2.428  0.00  0.00    +0.170 HD
ENDBRANCH   3   5
BRANCH   1  17
ATOM     17  C   UNL     1      -1.924  -0.569  -1.350  0.00  0.00    +0.138 C 
ATOM     18  C   UNL     1      -1.505  -1.883  -2.012  0.00  0.00    +0.034 C 
BRANCH  17  19
ATOM     19  N   UNL     1      -1.376  -0.510   0.012  0.00  0.00    -0.299 NA
ATOM     20  H   UNL     1      -1.420  -1.414   0.459  0.00  0.00    +0.123 HD
BRANCH  19  22
ATOM     21  C   UNL     1      -0.029   1.535   0.021  0.00  0.00    +0.029 C 
ATOM     22  C   UNL     1      -0.000   0.006   0.004  0.00  0.00    +0.084 C 
BRANCH  22  23
ATOM     23  C   UNL     1       0.732  -0.496   1.222  0.00  0.00    +0.005 A 
ATOM     24  C   UNL     1       0.021  -0.953   2.316  0.00  0.00    +0.011 A 
ATOM     25  C   UNL     1       0.690  -1.414   3.433  0.00  0.00    +0.039 A 
ATOM     26  C   UNL     1       2.075  -1.418   3.458  0.00  0.00    +0.126 A 
ATOM     27  C   UNL     1       2.788  -0.960   2.364  0.00  0.00    +0.077 A 
ATOM     28  C   UNL     1       2.116  -0.504   1.243  0.00  0.00    +0.131 A 
ATOM     29  F   UNL     1       2.811  -0.062   0.172  0.00  0.00    -0.205 F 
ATOM     30  F   UNL     1       2.730  -1.868   4.551  0.00  0.00    -0.205 F 
ENDBRANCH  22  23
ENDBRANCH  19  22
ENDBRANCH  17  19
ENDBRANCH   1  17
TORSDOF 5
