REMARK  Name = ZINC38769227
REMARK  8 active torsions:
REMARK  status: ('A' for Active; 'I' for Inactive)
REMARK    1  A    between atoms: C_1  and  C_2
REMARK    2  A    between atoms: C_2  and  C_3
REMARK    3  A    between atoms: C_2  and  C_4
REMARK    4  A    between atoms: C_6  and  C_10
REMARK    5  A    between atoms: C_10  and  S_11
REMARK    6  A    between atoms: S_11  and  C_12
REMARK    7  A    between atoms: C_15  and  C_20
REMARK    8  A    between atoms: N_16  and  C_17
REMARK                            x       y       z     vdW  Elec       q    Type
REMARK                         _______ _______ _______ _____ _____    ______ ____
ROOT
ATOM      1  C   UNL     1      -3.093  -4.186   3.249  0.00  0.00    +0.192 A 
ATOM      2  N   UNL     1      -3.790  -5.174   2.739  0.00  0.00    -0.122 NA
ATOM      3  N   UNL     1      -4.002  -6.074   3.632  0.00  0.00    -0.128 NA
ATOM      4  C   UNL     1      -3.453  -5.715   4.770  0.00  0.00    +0.167 A 
ATOM      5  N   UNL     1      -2.848  -4.497   4.559  0.00  0.00    -0.299 N 
ENDROOT
BRANCH   4   6
ATOM      6  C   UNL     1      -3.475  -6.477   6.034  0.00  0.00    +0.044 A 
ATOM      7  C   UNL     1      -4.229  -7.713   6.303  0.00  0.00    +0.010 A 
ATOM      8  C   UNL     1      -5.088  -8.507   5.545  0.00  0.00    +0.011 A 
ATOM      9  C   UNL     1      -5.648  -9.633   6.105  0.00  0.00    +0.001 A 
ATOM     10  C   UNL     1      -5.361  -9.981   7.417  0.00  0.00    +0.002 A 
ATOM     11  C   UNL     1      -4.513  -9.206   8.179  0.00  0.00    +0.026 A 
ATOM     12  C   UNL     1      -3.937  -8.064   7.632  0.00  0.00    +0.047 A 
ATOM     13  N   UNL     1      -3.072  -7.113   8.130  0.00  0.00    -0.360 N 
ATOM     14  C   UNL     1      -2.799  -6.178   7.173  0.00  0.00    +0.095 A 
ATOM     15  H   UNL     1      -2.708  -7.110   9.028  0.00  0.00    +0.165 HD
ENDBRANCH   4   6
BRANCH   5  16
ATOM     16  C   UNL     1      -2.101  -3.699   5.534  0.00  0.00    +0.091 C 
ATOM     17  C   UNL     1      -1.837  -2.232   5.191  0.00  0.00    +0.027 C 
ATOM     18  C   UNL     1      -0.692  -3.246   5.144  0.00  0.00    +0.027 C 
ENDBRANCH   5  16
BRANCH   1  19
ATOM     19  S   UNL     1      -2.565  -2.733   2.404  0.00  0.00    -0.081 S 
BRANCH  19  20
ATOM     20  C   UNL     1      -3.214  -2.944   0.723  0.00  0.00    +0.134 C 
BRANCH  20  23
ATOM     21  C   UNL     1      -1.021  -0.475   0.316  0.00  0.00    +0.105 C 
ATOM     22  N   UNL     1      -1.361  -1.609  -0.192  0.00  0.00    -0.346 N 
ATOM     23  C   UNL     1      -2.822  -1.736  -0.130  0.00  0.00    +0.253 C 
ATOM     24  O   UNL     1      -3.280  -0.521   0.484  0.00  0.00    -0.247 OA
ATOM     25  N   UNL     1      -2.106   0.231   0.747  0.00  0.00    -0.252 N 
ATOM     26  H   UNL     1      -2.079   1.107   1.164  0.00  0.00    +0.195 HD
ATOM     27  H   UNL     1      -0.751  -2.270  -0.557  0.00  0.00    +0.163 HD
BRANCH  21  29
ATOM     28  C   UNL     1       0.417   1.538   0.480  0.00  0.00    +0.015 C 
ATOM     29  C   UNL     1       0.402   0.009   0.427  0.00  0.00    +0.048 C 
ATOM     30  C   UNL     1       1.033  -0.552   1.702  0.00  0.00    +0.015 C 
ENDBRANCH  21  29
ENDBRANCH  20  23
ENDBRANCH  19  20
ENDBRANCH   1  19
TORSDOF 6
