REMARK  Name = ZINC65298619
REMARK  7 active torsions:
REMARK  status: ('A' for Active; 'I' for Inactive)
REMARK    1  A    between atoms: C_1  and  C_2
REMARK    2  A    between atoms: C_2  and  C_3
REMARK    3  A    between atoms: C_2  and  C_4
REMARK    4  A    between atoms: C_7  and  C_10
REMARK    5  A    between atoms: C_13  and  C_25
REMARK    6  A    between atoms: C_22  and  C_24
REMARK    7  A    between atoms: C_30  and  O_31
REMARK                            x       y       z     vdW  Elec       q    Type
REMARK                         _______ _______ _______ _____ _____    ______ ____
ROOT
ATOM      1  C   UNL     1      -5.407  -2.007   0.067  0.00  0.00    -0.032 C 
ATOM      2  C   UNL     1      -6.269  -1.161  -0.875  0.00  0.00    +0.044 C 
ATOM      3  C   UNL     1      -7.580  -1.859  -1.111  0.00  0.00    +0.044 C 
ATOM      4  N   UNL     1      -7.773  -3.091  -0.817  0.00  0.00    -0.300 NA
ATOM      5  C   UNL     1      -6.764  -3.957  -0.218  0.00  0.00    +0.032 C 
ATOM      6  N   UNL     1      -5.420  -3.397  -0.417  0.00  0.00    +0.400 N 
ATOM      7  C   UNL     1      -6.830  -5.344  -0.866  0.00  0.00    +0.029 C 
ATOM      8  C   UNL     1      -8.235  -5.924  -0.678  0.00  0.00    +0.108 C 
ATOM      9  N   UNL     1      -8.562  -5.916   0.755  0.00  0.00    -0.302 N 
ATOM     10  C   UNL     1      -8.440  -4.655   1.499  0.00  0.00    +0.108 C 
ATOM     11  C   UNL     1      -7.032  -4.090   1.285  0.00  0.00    +0.029 C 
ATOM     12  C   UNL     1      -8.967  -7.043   1.373  0.00  0.00    +0.212 C 
ATOM     13  O   UNL     1      -9.139  -7.047   2.574  0.00  0.00    -0.276 OA
ATOM     14  C   UNL     1      -9.206  -8.297   0.573  0.00  0.00    +0.109 C 
ATOM     15  H   UNL     1      -5.190  -3.415  -1.400  0.00  0.00    -0.081 HD
ATOM     16  H   UNL     1      -4.746  -3.942   0.099  0.00  0.00    -0.081 HD
ENDROOT
BRANCH   1  20
ATOM     17  C   UNL     1      -1.400  -0.526   0.077  0.00  0.00    -0.045 A 
ATOM     18  C   UNL     1      -2.259  -0.202   1.111  0.00  0.00    +0.004 A 
ATOM     19  C   UNL     1      -3.556  -0.681   1.107  0.00  0.00    +0.002 A 
ATOM     20  C   UNL     1      -3.993  -1.484   0.070  0.00  0.00    -0.061 A 
ATOM     21  C   UNL     1      -3.134  -1.808  -0.963  0.00  0.00    +0.002 A 
ATOM     22  C   UNL     1      -1.839  -1.325  -0.962  0.00  0.00    +0.004 A 
BRANCH  17  24
ATOM     23  C   UNL     1      -0.008   1.526   0.084  0.00  0.00    +0.012 C 
ATOM     24  C   UNL     1       0.014  -0.004   0.081  0.00  0.00    +0.013 C 
ATOM     25  C   UNL     1       0.740  -0.506   1.331  0.00  0.00    +0.012 C 
ENDBRANCH  17  24
ENDBRANCH   1  20
BRANCH   3  26
ATOM     26  C   UNL     1      -8.690  -1.093  -1.705  0.00  0.00    +0.037 A 
ATOM     27  C   UNL     1      -8.514   0.251  -2.043  0.00  0.00    +0.013 A 
ATOM     28  C   UNL     1      -9.556   0.962  -2.598  0.00  0.00    +0.001 A 
ATOM     29  C   UNL     1     -10.778   0.349  -2.823  0.00  0.00    +0.004 A 
ATOM     30  C   UNL     1     -10.965  -0.979  -2.494  0.00  0.00    +0.046 A 
ATOM     31  C   UNL     1      -9.926  -1.710  -1.939  0.00  0.00    +0.126 A 
BRANCH  31  32
ATOM     32  O   UNL     1     -10.107  -3.017  -1.620  0.00  0.00    -0.506 OA
ATOM     33  H   UNL     1     -10.430  -3.161  -0.720  0.00  0.00    +0.292 HD
ENDBRANCH  31  32
ENDBRANCH   3  26
TORSDOF 4
