REMARK  Name = ZINC39688037
REMARK  6 active torsions:
REMARK  status: ('A' for Active; 'I' for Inactive)
REMARK    1  A    between atoms: C_1  and  C_2
REMARK    2  A    between atoms: C_7  and  N_10
REMARK    3  A    between atoms: C_11  and  C_13
REMARK    4  A    between atoms: C_24  and  C_26
REMARK    5  A    between atoms: C_31  and  O_32
REMARK    6  A    between atoms: O_32  and  C_33
REMARK                            x       y       z     vdW  Elec       q    Type
REMARK                         _______ _______ _______ _____ _____    ______ ____
ROOT
ATOM      1  C   UNL     1      -3.046  -3.568  -5.795  0.00  0.00    +0.100 C 
ATOM      2  C   UNL     1      -3.179  -2.579  -6.975  0.00  0.00    +0.121 C 
ATOM      3  N   UNL     1      -2.477  -3.241  -8.099  0.00  0.00    -0.296 N 
ATOM      4  C   UNL     1      -2.842  -4.672  -7.971  0.00  0.00    +0.115 C 
ATOM      5  C   UNL     1      -2.828  -4.941  -6.453  0.00  0.00    -0.004 C 
ATOM      6  C   UNL     1      -3.958  -5.894  -6.075  0.00  0.00    -0.010 C 
ATOM      7  C   UNL     1      -3.690  -7.268  -6.693  0.00  0.00    -0.082 C 
ATOM      8  N   UNL     1      -2.405  -7.784  -6.205  0.00  0.00    +0.379 N 
ATOM      9  C   UNL     1      -1.313  -6.911  -6.653  0.00  0.00    -0.082 C 
ATOM     10  C   UNL     1      -1.481  -5.521  -6.033  0.00  0.00    -0.010 C 
ATOM     11  C   UNL     1      -1.685  -2.670  -9.029  0.00  0.00    +0.252 C 
ATOM     12  O   UNL     1      -1.089  -3.365  -9.829  0.00  0.00    -0.270 OA
ATOM     13  H   UNL     1      -2.417  -7.814  -5.197  0.00  0.00    -0.086 HD
ATOM     14  H   UNL     1      -2.259  -8.715  -6.566  0.00  0.00    -0.086 HD
ENDROOT
BRANCH  11  15
ATOM     15  C   UNL     1      -1.541  -1.203  -9.075  0.00  0.00    +0.099 A 
ATOM     16  C   UNL     1      -2.553  -0.372  -8.581  0.00  0.00    +0.020 A 
ATOM     17  C   UNL     1      -2.369   0.998  -8.647  0.00  0.00    +0.021 A 
ATOM     18  C   UNL     1      -1.203   1.502  -9.194  0.00  0.00    +0.114 A 
ATOM     19  N   UNL     1      -0.262   0.701  -9.654  0.00  0.00    -0.220 NA
ATOM     20  C   UNL     1      -0.385  -0.615  -9.610  0.00  0.00    +0.233 A 
BRANCH  20  21
ATOM     21  O   UNL     1       0.609  -1.400 -10.089  0.00  0.00    -0.437 OA
BRANCH  21  22
ATOM     22  C   UNL     1       1.755  -0.798 -10.503  0.00  0.00    +0.130 A 
ATOM     23  C   UNL     1       2.019  -0.662 -11.858  0.00  0.00    +0.046 A 
ATOM     24  C   UNL     1       3.184  -0.049 -12.276  0.00  0.00    +0.004 A 
ATOM     25  C   UNL     1       4.087   0.430 -11.344  0.00  0.00    +0.000 A 
ATOM     26  C   UNL     1       3.827   0.296  -9.993  0.00  0.00    +0.004 A 
ATOM     27  C   UNL     1       2.660  -0.312  -9.570  0.00  0.00    +0.046 A 
ENDBRANCH  21  22
ENDBRANCH  20  21
ENDBRANCH  11  15
BRANCH   1  29
ATOM     28  N   UNL     1      -1.791  -3.644  -3.665  0.00  0.00    -0.312 N 
ATOM     29  C   UNL     1      -1.862  -3.204  -4.937  0.00  0.00    +0.218 C 
ATOM     30  O   UNL     1      -0.973  -2.515  -5.391  0.00  0.00    -0.275 OA
ATOM     31  H   UNL     1      -2.503  -4.194  -3.302  0.00  0.00    +0.149 HD
BRANCH  28  38
ATOM     32  C   UNL     1       3.194  -5.254  -0.216  0.00  0.00    +0.109 C 
ATOM     33  C   UNL     1       1.948  -4.479   0.129  0.00  0.00    +0.212 C 
ATOM     34  O   UNL     1       1.535  -4.473   1.269  0.00  0.00    -0.276 OA
ATOM     35  N   UNL     1       1.294  -3.794  -0.829  0.00  0.00    -0.302 N 
ATOM     36  C   UNL     1       0.150  -2.936  -0.487  0.00  0.00    +0.109 C 
ATOM     37  C   UNL     1      -1.045  -3.341  -1.355  0.00  0.00    +0.041 C 
ATOM     38  C   UNL     1      -0.640  -3.290  -2.830  0.00  0.00    +0.076 C 
ATOM     39  C   UNL     1       0.497  -4.282  -3.083  0.00  0.00    +0.041 C 
ATOM     40  C   UNL     1       1.714  -3.884  -2.234  0.00  0.00    +0.109 C 
ENDBRANCH  28  38
ENDBRANCH   1  29
TORSDOF 5
