REMARK  Name = ZINC04513603
REMARK  8 active torsions:
REMARK  status: ('A' for Active; 'I' for Inactive)
REMARK    1  A    between atoms: C_1  and  C_2
REMARK    2  A    between atoms: C_2  and  C_3
REMARK    3  A    between atoms: C_2  and  C_4
REMARK    4  A    between atoms: C_2  and  O_5
REMARK    5  A    between atoms: O_5  and  C_6
REMARK    6  A    between atoms: N_8  and  N_9
REMARK    7  A    between atoms: C_10  and  C_11
REMARK    8  A    between atoms: C_14  and  C_16
REMARK                            x       y       z     vdW  Elec       q    Type
REMARK                         _______ _______ _______ _____ _____    ______ ____
ROOT
ATOM      1  C   UNL     1       2.278   1.538  -0.163  0.00  0.00    +0.148 A 
ATOM      2  C   UNL     1       3.472   2.203  -0.113  0.00  0.00    +0.051 A 
ATOM      3  C   UNL     1       4.480   1.245  -0.291  0.00  0.00    +0.050 A 
ATOM      4  C   UNL     1       3.862   0.039  -0.441  0.00  0.00    +0.136 A 
ATOM      5  O   UNL     1       2.531   0.227  -0.356  0.00  0.00    -0.454 OA
ENDROOT
BRANCH   4   6
ATOM      6  C   UNL     1       4.539  -1.256  -0.654  0.00  0.00    +0.017 A 
ATOM      7  C   UNL     1       5.933  -1.317  -0.723  0.00  0.00    +0.013 A 
ATOM      8  C   UNL     1       6.558  -2.530  -0.918  0.00  0.00    +0.021 A 
ATOM      9  C   UNL     1       5.807  -3.685  -1.056  0.00  0.00    +0.041 A 
ATOM     10  C   UNL     1       4.425  -3.632  -0.993  0.00  0.00    +0.021 A 
ATOM     11  C   UNL     1       3.787  -2.425  -0.794  0.00  0.00    +0.013 A 
ATOM     12 CL   UNL     1       6.603  -5.208  -1.308  0.00  0.00    -0.084 Cl
ENDBRANCH   4   6
BRANCH   1  14
ATOM     13  N   UNL     1      -0.106   1.388   0.029  0.00  0.00    -0.182 NA
ATOM     14  C   UNL     1       0.952   2.144  -0.024  0.00  0.00    +0.176 C 
BRANCH  13  17
ATOM     15  C   UNL     1      -1.063  -0.781   0.249  0.00  0.00    +0.420 C 
ATOM     16  O   UNL     1      -0.945  -1.988   0.320  0.00  0.00    -0.225 OA
ATOM     17  N   UNL     1       0.030  -0.004   0.111  0.00  0.00    -0.172 N 
ATOM     18  H   UNL     1       0.911  -0.408   0.068  0.00  0.00    +0.181 HD
BRANCH  15  19
ATOM     19  O   UNL     1      -2.285  -0.219   0.308  0.00  0.00    -0.444 OA
BRANCH  19  21
ATOM     20  C   UNL     1      -3.268  -1.915   1.754  0.00  0.00    +0.055 C 
ATOM     21  C   UNL     1      -3.417  -1.117   0.456  0.00  0.00    +0.107 C 
ATOM     22  C   UNL     1      -4.711  -0.303   0.504  0.00  0.00    +0.055 C 
ATOM     23  C   UNL     1      -3.463  -2.080  -0.732  0.00  0.00    +0.055 C 
ENDBRANCH  19  21
ENDBRANCH  15  19
ENDBRANCH  13  17
ENDBRANCH   1  14
TORSDOF 5
