REMARK  Name = ZINC39328007
REMARK  15 active torsions:
REMARK  status: ('A' for Active; 'I' for Inactive)
REMARK    1  A    between atoms: C_1  and  C_2
REMARK    2  A    between atoms: C_2  and  C_3
REMARK    3  A    between atoms: C_10  and  C_38
REMARK    4  A    between atoms: C_11  and  S_13
REMARK    5  A    between atoms: S_13  and  C_14
REMARK    6  A    between atoms: C_14  and  C_15
REMARK    7  A    between atoms: C_16  and  C_34
REMARK    8  A    between atoms: C_17  and  C_25
REMARK    9  A    between atoms: C_19  and  C_23
REMARK   10  A    between atoms: C_20  and  N_22
REMARK   11  A    between atoms: C_28  and  C_31
REMARK   12  A    between atoms: C_31  and  C_32
REMARK   13  A    between atoms: C_31  and  C_33
REMARK   14  A    between atoms: C_34  and  O_36
REMARK   15  A    between atoms: O_36  and  C_37
REMARK                            x       y       z     vdW  Elec       q    Type
REMARK                         _______ _______ _______ _____ _____    ______ ____
ROOT
ATOM      1  C   UNL     1      -8.519  -5.190   0.664  0.00  0.00    +0.128 C 
ATOM      2  C   UNL     1      -9.493  -4.899  -0.208  0.00  0.00    +0.088 C 
ATOM      3  C   UNL     1     -10.825  -5.594  -0.147  0.00  0.00    +0.105 C 
ATOM      4  C   UNL     1     -10.988  -6.276   1.184  0.00  0.00    +0.098 C 
ATOM      5  C   UNL     1      -9.919  -6.493   1.988  0.00  0.00    +0.198 C 
ATOM      6  O   UNL     1      -8.679  -6.113   1.626  0.00  0.00    -0.444 OA
ENDROOT
BRANCH   3   7
ATOM      7  C   UNL     1     -10.904  -6.621  -1.247  0.00  0.00    -0.034 A 
ATOM      8  C   UNL     1      -9.992  -7.659  -1.290  0.00  0.00    +0.005 A 
ATOM      9  C   UNL     1     -10.065  -8.602  -2.298  0.00  0.00    +0.004 A 
ATOM     10  C   UNL     1     -11.050  -8.507  -3.263  0.00  0.00    -0.045 A 
ATOM     11  C   UNL     1     -11.962  -7.470  -3.220  0.00  0.00    +0.004 A 
ATOM     12  C   UNL     1     -11.892  -6.529  -2.209  0.00  0.00    +0.005 A 
BRANCH  10  13
ATOM     13  C   UNL     1     -11.128  -9.534  -4.363  0.00  0.00    +0.013 C 
ATOM     14  C   UNL     1     -12.485 -10.239  -4.307  0.00  0.00    +0.012 C 
ATOM     15  C   UNL     1     -10.968  -8.843  -5.719  0.00  0.00    +0.012 C 
ENDBRANCH  10  13
ENDBRANCH   3   7
BRANCH   5  16
ATOM     16  N   UNL     1     -10.104  -7.118   3.196  0.00  0.00    -0.328 N 
ATOM     17  H   UNL     1     -10.992  -7.399   3.466  0.00  0.00    +0.145 HD
ATOM     18  H   UNL     1      -9.346  -7.279   3.780  0.00  0.00    +0.145 HD
ENDBRANCH   5  16
BRANCH   4  19
ATOM     19  C   UNL     1     -12.289  -6.700   1.607  0.00  0.00    +0.101 C 
ATOM     20  N   UNL     1     -13.321  -7.036   1.942  0.00  0.00    -0.191 NA
ENDBRANCH   4  19
BRANCH   2  21
ATOM     21  C   UNL     1      -9.264  -3.919  -1.205  0.00  0.00    +0.339 C 
ATOM     22  O   UNL     1      -9.692  -2.790  -1.058  0.00  0.00    -0.245 OA
BRANCH  21  23
ATOM     23  O   UNL     1      -8.571  -4.238  -2.318  0.00  0.00    -0.465 OA
ATOM     24  C   UNL     1      -8.378  -3.200  -3.281  0.00  0.00    +0.280 C 
ENDBRANCH  21  23
ENDBRANCH   2  21
BRANCH   1  25
ATOM     25  C   UNL     1      -7.202  -4.464   0.559  0.00  0.00    +0.150 C 
BRANCH  25  26
ATOM     26  S   UNL     1      -7.089  -3.222   1.876  0.00  0.00    -0.097 S 
BRANCH  26  34
ATOM     27  C   UNL     1      -1.190  -1.021  -0.432  0.00  0.00    -0.007 C 
ATOM     28  C   UNL     1      -1.298  -2.532  -0.669  0.00  0.00    +0.010 C 
ATOM     29  C   UNL     1      -2.776  -2.899  -0.785  0.00  0.00    +0.056 C 
ATOM     30  C   UNL     1      -3.552  -2.349   0.386  0.00  0.00    +0.046 A 
ATOM     31  C   UNL     1      -3.060  -1.340   1.186  0.00  0.00    -0.025 A 
ATOM     32  C   UNL     1      -3.828  -0.871   2.245  0.00  0.00    +0.027 A 
ATOM     33  C   UNL     1      -5.082  -1.441   2.474  0.00  0.00    +0.084 A 
ATOM     34  C   UNL     1      -5.516  -2.471   1.620  0.00  0.00    +0.115 A 
ATOM     35  N   UNL     1      -4.746  -2.877   0.626  0.00  0.00    -0.244 NA
ATOM     36  C   UNL     1      -1.707  -0.716   0.972  0.00  0.00    +0.040 C 
BRANCH  27  38
ATOM     37  C   UNL     1       0.360   0.938  -0.425  0.00  0.00    +0.004 C 
ATOM     38  C   UNL     1       0.271  -0.584  -0.551  0.00  0.00    +0.000 C 
ENDBRANCH  27  38
BRANCH  33  39
ATOM     39  C   UNL     1      -5.908  -0.988   3.553  0.00  0.00    +0.102 C 
ATOM     40  N   UNL     1      -6.562  -0.629   4.409  0.00  0.00    -0.191 NA
ENDBRANCH  33  39
ENDBRANCH  26  34
ENDBRANCH  25  26
ENDBRANCH   1  25
TORSDOF 11
