REMARK  Name = ZINC49210238
REMARK  6 active torsions:
REMARK  status: ('A' for Active; 'I' for Inactive)
REMARK    1  A    between atoms: C_1  and  C_2
REMARK    2  A    between atoms: N_14  and  C_15
REMARK    3  A    between atoms: N_14  and  C_16
REMARK    4  A    between atoms: C_16  and  C_17
REMARK    5  A    between atoms: C_17  and  C_19
REMARK    6  A    between atoms: C_17  and  C_20
REMARK                            x       y       z     vdW  Elec       q    Type
REMARK                         _______ _______ _______ _____ _____    ______ ____
ROOT
ATOM      1  C   UNL     1      -0.019   1.526   0.010  0.00  0.00    +0.008 C 
ATOM      2  C   UNL     1       0.002  -0.004   0.002  0.00  0.00    -0.009 C 
ATOM      3  C   UNL     1       0.724  -0.501  -1.254  0.00  0.00    +0.010 C 
ATOM      4  C   UNL     1       0.541  -2.013  -1.403  0.00  0.00    +0.056 C 
ATOM      5  C   UNL     1       0.952  -2.684  -0.100  0.00  0.00    +0.054 A 
ATOM      6  C   UNL     1       1.031  -1.968   1.051  0.00  0.00    +0.015 A 
ATOM      7  S   UNL     1       1.537  -3.188   2.231  0.00  0.00    -0.057 S 
ATOM      8  C   UNL     1       1.605  -4.500   1.174  0.00  0.00    +0.166 A 
ATOM      9  N   UNL     1       1.255  -3.974   0.021  0.00  0.00    -0.229 NA
ATOM     10  N   UNL     1       1.947  -5.818   1.454  0.00  0.00    -0.248 N 
ATOM     11  C   UNL     1       1.945  -6.738   0.470  0.00  0.00    +0.308 C 
ATOM     12  O   UNL     1       1.644  -6.416  -0.663  0.00  0.00    -0.252 OA
ATOM     13  N   UNL     1       2.277  -8.016   0.741  0.00  0.00    -0.287 N 
ATOM     14  C   UNL     1       2.640  -8.405   2.106  0.00  0.00    +0.133 C 
ATOM     15  C   UNL     1       0.751  -0.516   1.243  0.00  0.00    +0.047 C 
ATOM     16  H   UNL     1       2.187  -6.075   2.358  0.00  0.00    +0.158 HD
ENDROOT
BRANCH  13  17
ATOM     17  C   UNL     1       2.275  -9.017  -0.329  0.00  0.00    +0.127 C 
BRANCH  17  18
ATOM     18  C   UNL     1       3.656  -9.066  -0.984  0.00  0.00    +0.106 C 
ATOM     19  C   UNL     1       4.685  -9.563   0.033  0.00  0.00    +0.025 C 
BRANCH  18  20
ATOM     20  C   UNL     1       3.621  -9.983  -2.135  0.00  0.00    +0.067 C 
ATOM     21  N   UNL     1       3.594 -10.690  -3.024  0.00  0.00    -0.196 NA
ENDBRANCH  18  20
ENDBRANCH  17  18
ENDBRANCH  13  17
TORSDOF 3
