REMARK  Name = ZINC02472081
REMARK  5 active torsions:
REMARK  status: ('A' for Active; 'I' for Inactive)
REMARK    1  A    between atoms: C_1  and  C_2
REMARK    2  A    between atoms: C_2  and  O_3
REMARK    3  A    between atoms: O_3  and  C_4
REMARK    4  A    between atoms: C_7  and  C_10
REMARK    5  A    between atoms: C_13  and  C_22
REMARK                            x       y       z     vdW  Elec       q    Type
REMARK                         _______ _______ _______ _____ _____    ______ ____
ROOT
ATOM      1  C   UNL     1      -2.001  -6.092  -0.011  0.00  0.00    +0.106 C 
ATOM      2  C   UNL     1      -2.326  -6.566  -1.432  0.00  0.00    +0.058 C 
ATOM      3  C   UNL     1      -2.453  -8.094  -1.452  0.00  0.00    +0.143 C 
ATOM      4  N   UNL     1      -3.338  -8.508  -0.364  0.00  0.00    -0.224 N 
ATOM      5  C   UNL     1      -3.640  -7.739   0.709  0.00  0.00    +0.216 A 
ATOM      6  N   UNL     1      -4.454  -8.413   1.477  0.00  0.00    -0.180 NA
ATOM      7  C   UNL     1      -4.692  -9.614   0.930  0.00  0.00    +0.233 A 
ATOM      8  N   UNL     1      -4.026  -9.711  -0.199  0.00  0.00    -0.132 NA
ATOM      9  N   UNL     1      -5.516 -10.602   1.473  0.00  0.00    -0.326 N 
ATOM     10  N   UNL     1      -3.118  -6.462   0.879  0.00  0.00    -0.307 N 
ATOM     11  H   UNL     1      -5.972 -10.445   2.314  0.00  0.00    +0.145 HD
ATOM     12  H   UNL     1      -5.631 -11.446   1.008  0.00  0.00    +0.145 HD
ATOM     13  H   UNL     1      -3.469  -5.849   1.544  0.00  0.00    +0.149 HD
ENDROOT
BRANCH   3  14
ATOM     14  C   UNL     1      -3.030  -8.536  -2.772  0.00  0.00    -0.023 A 
ATOM     15  C   UNL     1      -4.277  -8.089  -3.165  0.00  0.00    +0.007 A 
ATOM     16  C   UNL     1      -4.807  -8.493  -4.376  0.00  0.00    +0.020 A 
ATOM     17  C   UNL     1      -4.089  -9.346  -5.195  0.00  0.00    +0.041 A 
ATOM     18  C   UNL     1      -2.840  -9.793  -4.801  0.00  0.00    +0.020 A 
ATOM     19  C   UNL     1      -2.309  -9.383  -3.593  0.00  0.00    +0.007 A 
ATOM     20 CL   UNL     1      -4.754  -9.855  -6.715  0.00  0.00    -0.084 Cl
ENDBRANCH   3  14
BRANCH   1  24
ATOM     21  C   UNL     1      -1.498  -1.848   0.006  0.00  0.00    +0.121 A 
ATOM     22  C   UNL     1      -0.388  -2.679  -0.003  0.00  0.00    +0.046 A 
ATOM     23  C   UNL     1      -0.553  -4.051  -0.008  0.00  0.00    +0.009 A 
ATOM     24  C   UNL     1      -1.823  -4.596  -0.005  0.00  0.00    -0.027 A 
ATOM     25  C   UNL     1      -2.932  -3.769   0.004  0.00  0.00    +0.009 A 
ATOM     26  C   UNL     1      -2.772  -2.397   0.016  0.00  0.00    +0.046 A 
BRANCH  21  27
ATOM     27  O   UNL     1      -1.339  -0.499   0.012  0.00  0.00    -0.492 OA
BRANCH  27  29
ATOM     28  C   UNL     1      -0.019   1.526   0.010  0.00  0.00    +0.048 C 
ATOM     29  C   UNL     1       0.002  -0.004   0.002  0.00  0.00    +0.225 C 
ENDBRANCH  27  29
ENDBRANCH  21  27
ENDBRANCH   1  24
TORSDOF 4
