REMARK  Name = ZINC06576960
REMARK  10 active torsions:
REMARK  status: ('A' for Active; 'I' for Inactive)
REMARK    1  A    between atoms: C_1  and  C_2
REMARK    2  A    between atoms: C_2  and  C_3
REMARK    3  A    between atoms: C_2  and  C_4
REMARK    4  A    between atoms: C_4  and  O_24
REMARK    5  A    between atoms: C_6  and  C_19
REMARK    6  A    between atoms: N_7  and  O_18
REMARK    7  A    between atoms: C_19  and  C_20
REMARK    8  A    between atoms: C_19  and  C_21
REMARK    9  A    between atoms: C_19  and  O_22
REMARK   10  A    between atoms: O_22  and  C_23
REMARK                            x       y       z     vdW  Elec       q    Type
REMARK                         _______ _______ _______ _____ _____    ______ ____
ROOT
ATOM      1  C   UNL     1       0.742  -0.511   1.242  0.00  0.00    +0.192 C 
ATOM      2  C   UNL     1       0.691  -2.053   1.310  0.00  0.00    +0.112 C 
ATOM      3  C   UNL     1       0.535  -2.372   2.810  0.00  0.00    +0.155 C 
ATOM      4  N   UNL     1      -0.788  -3.010   3.027  0.00  0.00    -0.161 NA
ATOM      5  C   UNL     1      -1.602  -2.008   3.716  0.00  0.00    +0.106 C 
ATOM      6  C   UNL     1      -2.620  -2.518   4.716  0.00  0.00    +0.023 C 
ATOM      7  C   UNL     1      -3.322  -1.292   5.323  0.00  0.00    +0.002 C 
ATOM      8  C   UNL     1      -2.320  -0.344   5.975  0.00  0.00    +0.002 C 
ATOM      9  C   UNL     1      -1.214   0.070   4.990  0.00  0.00    +0.023 C 
ATOM     10  C   UNL     1      -0.538  -1.197   4.504  0.00  0.00    +0.106 C 
ATOM     11  N   UNL     1       0.507  -1.034   3.486  0.00  0.00    -0.155 NA
ATOM     12  O   UNL     1       0.065  -0.086   2.445  0.00  0.00    -0.260 OA
ENDROOT
BRANCH   1  14
ATOM     13  C   UNL     1      -0.019   1.526   0.010  0.00  0.00    +0.012 C 
ATOM     14  C   UNL     1       0.002  -0.004   0.002  0.00  0.00    +0.044 C 
ATOM     15  C   UNL     1       0.718  -0.497  -1.257  0.00  0.00    +0.012 C 
ENDBRANCH   1  14
BRANCH   3  16
ATOM     16  C   UNL     1       1.686  -3.239   3.324  0.00  0.00    +0.099 C 
ATOM     17  C   UNL     1       1.699  -4.569   2.567  0.00  0.00    +0.045 C 
ATOM     18  C   UNL     1       3.013  -2.512   3.099  0.00  0.00    +0.045 C 
BRANCH  16  19
ATOM     19  O   UNL     1       1.509  -3.487   4.720  0.00  0.00    -0.374 OA
ATOM     20  C   UNL     1       2.535  -4.293   5.302  0.00  0.00    +0.194 C 
ENDBRANCH  16  19
ENDBRANCH   3  16
BRANCH   4  21
ATOM     21  O   UNL     1      -1.399  -3.397   1.755  0.00  0.00    -0.310 OA
ATOM     22  H   UNL     1      -2.264  -3.818   1.846  0.00  0.00    +0.237 HD
ENDBRANCH   4  21
BRANCH   1  23
ATOM     23  O   UNL     1       2.095  -0.051   1.239  0.00  0.00    -0.363 OA
ATOM     24  H   UNL     1       2.183   0.912   1.228  0.00  0.00    +0.213 HD
ENDBRANCH   1  23
TORSDOF 5
