REMARK  Name = ZINC15866621
REMARK  6 active torsions:
REMARK  status: ('A' for Active; 'I' for Inactive)
REMARK    1  A    between atoms: C_1  and  C_2
REMARK    2  A    between atoms: C_4  and  C_20
REMARK    3  A    between atoms: C_6  and  S_9
REMARK    4  A    between atoms: C_7  and  C_8
REMARK    5  A    between atoms: S_9  and  N_12
REMARK    6  A    between atoms: N_12  and  C_13
REMARK                            x       y       z     vdW  Elec       q    Type
REMARK                         _______ _______ _______ _____ _____    ______ ____
ROOT
ATOM      1  C   UNL     1       6.023   0.686   0.239  0.00  0.00    +0.044 C 
ATOM      2  C   UNL     1       5.596  -0.757   0.152  0.00  0.00    -0.045 A 
ATOM      3  C   UNL     1       6.464  -1.756   0.543  0.00  0.00    +0.013 A 
ATOM      4  C   UNL     1       6.068  -3.090   0.462  0.00  0.00    +0.004 A 
ATOM      5  C   UNL     1       4.796  -3.406  -0.013  0.00  0.00    +0.039 A 
ATOM      6  C   UNL     1       3.937  -2.399  -0.400  0.00  0.00    +0.112 A 
ATOM      7  C   UNL     1       4.337  -1.077  -0.323  0.00  0.00    -0.021 A 
ATOM      8  C   UNL     1       3.397   0.019  -0.754  0.00  0.00    +0.046 C 
ENDROOT
BRANCH   4   9
ATOM      9  C   UNL     1       6.997  -4.169   0.880  0.00  0.00    +0.091 A 
ATOM     10  C   UNL     1       8.288  -3.842   1.355  0.00  0.00    +0.035 A 
ATOM     11  C   UNL     1       9.112  -4.860   1.736  0.00  0.00    +0.073 A 
ATOM     12  C   UNL     1       8.628  -6.181   1.619  0.00  0.00    +0.265 A 
ATOM     13  O   UNL     1       9.332  -7.125   1.942  0.00  0.00    -0.266 OA
ATOM     14  N   UNL     1       7.384  -6.393   1.150  0.00  0.00    -0.243 N 
ATOM     15  H   UNL     1       7.058  -7.303   1.072  0.00  0.00    +0.192 HD
ATOM     16  N   UNL     1       6.619  -5.423   0.801  0.00  0.00    -0.171 NA
ENDBRANCH   4   9
BRANCH   6  17
ATOM     17  S   UNL     1       2.329  -2.797  -1.001  0.00  0.00    +0.073 S 
ATOM     18  O   UNL     1       2.196  -4.208  -0.901  0.00  0.00    -0.150 OA
ATOM     19  O   UNL     1       2.171  -2.102  -2.230  0.00  0.00    -0.150 OA
BRANCH  17  20
ATOM     20  N   UNL     1       1.235  -2.143   0.057  0.00  0.00    -0.216 N 
ATOM     21  H   UNL     1       0.607  -1.470  -0.250  0.00  0.00    +0.174 HD
BRANCH  20  22
ATOM     22  C   UNL     1       1.217  -2.560   1.391  0.00  0.00    +0.048 A 
ATOM     23  C   UNL     1       1.150  -1.622   2.412  0.00  0.00    +0.027 A 
ATOM     24  C   UNL     1       1.132  -2.036   3.730  0.00  0.00    +0.040 A 
ATOM     25  C   UNL     1       1.181  -3.386   4.032  0.00  0.00    +0.124 A 
ATOM     26  C   UNL     1       1.248  -4.324   3.015  0.00  0.00    +0.040 A 
ATOM     27  C   UNL     1       1.266  -3.914   1.697  0.00  0.00    +0.027 A 
ATOM     28  F   UNL     1       1.163  -3.790   5.322  0.00  0.00    -0.205 F 
ENDBRANCH  20  22
ENDBRANCH  17  20
ENDBRANCH   6  17
TORSDOF 4
