REMARK  Name = ZINC41152855
REMARK  5 active torsions:
REMARK  status: ('A' for Active; 'I' for Inactive)
REMARK    1  A    between atoms: C_4  and  C_7
REMARK    2  A    between atoms: C_8  and  C_9
REMARK    3  A    between atoms: C_9  and  N_10
REMARK    4  A    between atoms: C_24  and  N_26
REMARK    5  A    between atoms: N_26  and  C_27
REMARK                            x       y       z     vdW  Elec       q    Type
REMARK                         _______ _______ _______ _____ _____    ______ ____
ROOT
ATOM      1  N   UNL     1       3.867  -4.975   1.738  0.00  0.00    +0.384 N 
ATOM      2  C   UNL     1       4.741  -6.150   1.847  0.00  0.00    -0.059 C 
ATOM      3  C   UNL     1       6.168  -5.695   2.173  0.00  0.00    +0.089 C 
ATOM      4  N   UNL     1       6.125  -4.855   3.380  0.00  0.00    -0.305 N 
ATOM      5  C   UNL     1       5.157  -3.748   3.421  0.00  0.00    +0.089 C 
ATOM      6  C   UNL     1       3.778  -4.295   3.036  0.00  0.00    -0.059 C 
ATOM      7  C   UNL     1       6.971  -5.098   4.446  0.00  0.00    +0.198 A 
ATOM      8  N   UNL     1       7.902  -6.025   4.316  0.00  0.00    -0.327 N 
ATOM      9  C   UNL     1       8.742  -6.291   5.327  0.00  0.00    +0.052 A 
ATOM     10  C   UNL     1       9.741  -7.268   5.223  0.00  0.00    +0.026 A 
ATOM     11  C   UNL     1      10.570  -7.498   6.280  0.00  0.00    +0.002 A 
ATOM     12  C   UNL     1      10.439  -6.779   7.465  0.00  0.00    +0.001 A 
ATOM     13  C   UNL     1       9.477  -5.821   7.599  0.00  0.00    +0.013 A 
ATOM     14  C   UNL     1       8.611  -5.559   6.533  0.00  0.00    +0.038 A 
ATOM     15  C   UNL     1       7.593  -4.576   6.615  0.00  0.00    +0.132 A 
ATOM     16  N   UNL     1       6.817  -4.386   5.558  0.00  0.00    -0.201 NA
ATOM     17  H   UNL     1       7.978  -6.518   3.484  0.00  0.00    +0.169 HD
ATOM     18  H   UNL     1       4.246  -4.340   1.052  0.00  0.00    -0.081 HD
ENDROOT
BRANCH  15  19
ATOM     19  N   UNL     1       7.419  -3.834   7.763  0.00  0.00    -0.326 N 
ATOM     20  H   UNL     1       7.996  -3.982   8.528  0.00  0.00    +0.148 HD
BRANCH  19  21
ATOM     21  C   UNL     1       6.361  -2.823   7.828  0.00  0.00    +0.072 C 
ATOM     22  C   UNL     1       6.873  -1.510   7.233  0.00  0.00    +0.022 C 
ATOM     23  C   UNL     1       5.769  -0.453   7.301  0.00  0.00    +0.002 C 
ATOM     24  C   UNL     1       5.367  -0.229   8.760  0.00  0.00    +0.000 C 
ATOM     25  C   UNL     1       4.854  -1.542   9.355  0.00  0.00    +0.002 C 
ATOM     26  C   UNL     1       5.959  -2.598   9.287  0.00  0.00    +0.022 C 
ENDBRANCH  19  21
ENDBRANCH  15  19
BRANCH   1  27
ATOM     27  C   UNL     1       2.526  -5.403   1.318  0.00  0.00    -0.051 C 
BRANCH  27  29
ATOM     28  C   UNL     1       2.135  -7.213  -0.294  0.00  0.00    +0.002 C 
ATOM     29  C   UNL     1       2.596  -5.991  -0.068  0.00  0.00    -0.045 C 
BRANCH  28  33
ATOM     30  C   UNL     1       2.333  -8.869  -4.199  0.00  0.00    +0.000 A 
ATOM     31  C   UNL     1       1.787  -9.608  -3.165  0.00  0.00    +0.001 A 
ATOM     32  C   UNL     1       1.719  -9.075  -1.894  0.00  0.00    +0.008 A 
ATOM     33  C   UNL     1       2.204  -7.789  -1.653  0.00  0.00    -0.025 A 
ATOM     34  C   UNL     1       2.755  -7.050  -2.700  0.00  0.00    +0.008 A 
ATOM     35  C   UNL     1       2.816  -7.594  -3.967  0.00  0.00    +0.001 A 
ENDBRANCH  28  33
ENDBRANCH  27  29
ENDBRANCH   1  27
TORSDOF 5
