REMARK  Name = ZINC02688817
REMARK  6 active torsions:
REMARK  status: ('A' for Active; 'I' for Inactive)
REMARK    1  A    between atoms: C_1  and  C_2
REMARK    2  A    between atoms: C_5  and  S_8
REMARK    3  A    between atoms: S_8  and  N_11
REMARK    4  A    between atoms: N_11  and  N_12
REMARK    5  A    between atoms: C_14  and  C_23
REMARK    6  A    between atoms: N_25  and  C_26
REMARK                            x       y       z     vdW  Elec       q    Type
REMARK                         _______ _______ _______ _____ _____    ______ ____
ROOT
ATOM      1  N   UNL     1      -2.538   1.221   3.129  0.00  0.00    -0.127 NA
ATOM      2  C   UNL     1      -3.328   1.188   4.165  0.00  0.00    +0.249 A 
ATOM      3  C   UNL     1      -4.017   2.410   4.639  0.00  0.00    +0.101 A 
ATOM      4  C   UNL     1      -5.205   2.238   5.314  0.00  0.00    +0.030 A 
ATOM      5  C   UNL     1      -5.681   0.864   5.514  0.00  0.00    +0.018 A 
ATOM      6  C   UNL     1      -6.987   0.617   5.948  0.00  0.00    +0.011 A 
ATOM      7  C   UNL     1      -7.413  -0.681   6.124  0.00  0.00    +0.001 A 
ATOM      8  C   UNL     1      -6.555  -1.740   5.873  0.00  0.00    +0.004 A 
ATOM      9  C   UNL     1      -5.261  -1.511   5.446  0.00  0.00    +0.047 A 
ATOM     10  C   UNL     1      -4.812  -0.213   5.265  0.00  0.00    +0.138 A 
ATOM     11  O   UNL     1      -3.542   0.027   4.850  0.00  0.00    -0.436 OA
ENDROOT
BRANCH   3  12
ATOM     12  C   UNL     1      -3.457   3.750   4.395  0.00  0.00    +0.254 C 
ATOM     13  O   UNL     1      -3.817   4.693   5.074  0.00  0.00    -0.270 OA
ATOM     14  N   UNL     1      -2.546   3.932   3.418  0.00  0.00    -0.279 N 
ATOM     15  H   UNL     1      -2.321   3.200   2.823  0.00  0.00    +0.155 HD
BRANCH  14  16
ATOM     16  C   UNL     1      -1.925   5.176   3.264  0.00  0.00    +0.069 A 
ATOM     17  C   UNL     1      -1.836   6.048   4.340  0.00  0.00    +0.026 A 
ATOM     18  C   UNL     1      -1.222   7.276   4.185  0.00  0.00    +0.002 A 
ATOM     19  C   UNL     1      -0.695   7.638   2.959  0.00  0.00    +0.003 A 
ATOM     20  C   UNL     1      -0.781   6.773   1.883  0.00  0.00    +0.040 A 
ATOM     21  C   UNL     1      -1.390   5.540   2.033  0.00  0.00    +0.144 A 
ATOM     22  F   UNL     1      -1.470   4.693   0.983  0.00  0.00    -0.204 F 
ENDBRANCH  14  16
ENDBRANCH   3  12
BRANCH   1  23
ATOM     23  N   UNL     1      -1.982   0.034   2.634  0.00  0.00    -0.133 N 
ATOM     24  H   UNL     1      -2.247  -0.820   3.011  0.00  0.00    +0.197 HD
BRANCH  23  25
ATOM     25  S   UNL     1      -0.874   0.088   1.405  0.00  0.00    +0.087 S 
ATOM     26  O   UNL     1      -1.462   0.851   0.360  0.00  0.00    -0.149 OA
ATOM     27  O   UNL     1      -0.416  -1.243   1.211  0.00  0.00    -0.149 OA
BRANCH  25  32
ATOM     28  C   UNL     1       3.859   3.258   3.393  0.00  0.00    +0.044 C 
ATOM     29  C   UNL     1       2.675   2.467   2.900  0.00  0.00    -0.050 A 
ATOM     30  C   UNL     1       2.583   1.116   3.177  0.00  0.00    +0.005 A 
ATOM     31  C   UNL     1       1.497   0.390   2.723  0.00  0.00    +0.029 A 
ATOM     32  C   UNL     1       0.507   1.014   1.989  0.00  0.00    +0.110 A 
ATOM     33  C   UNL     1       0.597   2.367   1.716  0.00  0.00    +0.029 A 
ATOM     34  C   UNL     1       1.682   3.092   2.169  0.00  0.00    +0.005 A 
ENDBRANCH  25  32
ENDBRANCH  23  25
ENDBRANCH   1  23
TORSDOF 5
