REMARK  Name = ZINC37254402
REMARK  5 active torsions:
REMARK  status: ('A' for Active; 'I' for Inactive)
REMARK    1  A    between atoms: C_1  and  C_2
REMARK    2  A    between atoms: C_7  and  N_10
REMARK    3  A    between atoms: N_10  and  S_11
REMARK    4  A    between atoms: S_11  and  C_14
REMARK    5  A    between atoms: C_17  and  N_21
REMARK                            x       y       z     vdW  Elec       q    Type
REMARK                         _______ _______ _______ _____ _____    ______ ____
ROOT
ATOM      1  S   UNL     1       2.396  -3.897   2.329  0.00  0.00    +0.061 S 
ATOM      2  O   UNL     1       2.966  -4.088   3.617  0.00  0.00    -0.153 OA
ATOM      3  O   UNL     1       1.596  -4.885   1.696  0.00  0.00    -0.153 OA
ENDROOT
BRANCH   1   4
ATOM      4  C   UNL     1       3.732  -3.552   1.234  0.00  0.00    +0.133 A 
ATOM      5  C   UNL     1       3.595  -3.796  -0.121  0.00  0.00    +0.047 A 
ATOM      6  C   UNL     1       4.641  -3.527  -0.983  0.00  0.00    +0.040 A 
ATOM      7  C   UNL     1       5.832  -3.011  -0.488  0.00  0.00    +0.027 A 
ATOM      8  C   UNL     1       5.967  -2.767   0.873  0.00  0.00    +0.040 A 
ATOM      9  C   UNL     1       4.915  -3.033   1.729  0.00  0.00    +0.047 A 
ATOM     10 BR   UNL     1       5.096  -2.695   3.581  0.00  0.00    -0.048 Br
ATOM     11 BR   UNL     1       1.973  -4.498  -0.795  0.00  0.00    -0.048 Br
BRANCH   7  12
ATOM     12  N   UNL     1       6.891  -2.739  -1.356  0.00  0.00    -0.358 N 
ATOM     13  H   UNL     1       6.796  -2.910  -2.306  0.00  0.00    +0.142 HD
ATOM     14  H   UNL     1       7.723  -2.379  -1.009  0.00  0.00    +0.142 HD
ENDBRANCH   7  12
ENDBRANCH   1   4
BRANCH   1  15
ATOM     15  N   UNL     1       1.471  -2.526   2.420  0.00  0.00    -0.187 NA
ATOM     16  H   UNL     1       1.399  -2.045   3.259  0.00  0.00    +0.148 HD
BRANCH  15  22
ATOM     17  C   UNL     1      -0.019   1.526   0.010  0.00  0.00    +0.007 C 
ATOM     18  C   UNL     1       0.002  -0.004   0.002  0.00  0.00    -0.013 C 
ATOM     19  C   UNL     1      -1.433  -0.534   0.013  0.00  0.00    +0.003 C 
ATOM     20  C   UNL     1      -1.413  -2.063   0.004  0.00  0.00    +0.002 C 
ATOM     21  C   UNL     1      -0.673  -2.570   1.244  0.00  0.00    +0.020 C 
ATOM     22  C   UNL     1       0.763  -2.041   1.233  0.00  0.00    +0.077 C 
ATOM     23  C   UNL     1       0.742  -0.511   1.242  0.00  0.00    +0.023 C 
ENDBRANCH  15  22
ENDBRANCH   1  15
TORSDOF 4
