REMARK  Name = ZINC32974771
REMARK  8 active torsions:
REMARK  status: ('A' for Active; 'I' for Inactive)
REMARK    1  A    between atoms: C_1  and  C_2
REMARK    2  A    between atoms: C_6  and  C_8
REMARK    3  A    between atoms: C_10  and  C_13
REMARK    4  A    between atoms: N_15  and  C_18
REMARK    5  A    between atoms: C_18  and  C_19
REMARK    6  A    between atoms: C_22  and  N_25
REMARK    7  A    between atoms: N_25  and  S_26
REMARK    8  A    between atoms: S_26  and  C_29
REMARK                            x       y       z     vdW  Elec       q    Type
REMARK                         _______ _______ _______ _____ _____    ______ ____
ROOT
ATOM      1  C   UNL     1       2.117  -7.270   1.393  0.00  0.00    -0.028 A 
ATOM      2  C   UNL     1       3.302  -7.603   2.023  0.00  0.00    +0.007 A 
ATOM      3  C   UNL     1       3.286  -8.087   3.316  0.00  0.00    +0.025 A 
ATOM      4  C   UNL     1       2.076  -8.250   3.980  0.00  0.00    +0.048 A 
ATOM      5  C   UNL     1       0.887  -7.920   3.342  0.00  0.00    +0.025 A 
ATOM      6  C   UNL     1       0.911  -7.431   2.050  0.00  0.00    +0.007 A 
ENDROOT
BRANCH   4   7
ATOM      7  N   UNL     1       2.056  -8.745   5.286  0.00  0.00    -0.216 N 
ATOM      8  H   UNL     1       1.437  -8.253   6.051  0.00  0.00    +0.174 HD
BRANCH   7   9
ATOM      9  S   UNL     1       2.963 -10.073   5.683  0.00  0.00    +0.072 S 
ATOM     10  O   UNL     1       4.289  -9.803   5.250  0.00  0.00    -0.150 OA
ATOM     11  O   UNL     1       2.652 -10.388   7.033  0.00  0.00    -0.150 OA
BRANCH   9  12
ATOM     12  C   UNL     1       2.377 -11.415   4.704  0.00  0.00    +0.111 A 
ATOM     13  C   UNL     1       1.294 -12.161   5.131  0.00  0.00    +0.032 A 
ATOM     14  C   UNL     1       0.829 -13.211   4.362  0.00  0.00    +0.043 A 
ATOM     15  C   UNL     1       1.455 -13.524   3.168  0.00  0.00    +0.159 A 
ATOM     16  C   UNL     1       2.544 -12.780   2.742  0.00  0.00    +0.160 A 
ATOM     17  C   UNL     1       3.004 -11.726   3.512  0.00  0.00    +0.070 A 
ATOM     18  F   UNL     1       3.157 -13.084   1.577  0.00  0.00    -0.202 F 
ATOM     19  F   UNL     1       1.004 -14.554   2.418  0.00  0.00    -0.202 F 
ENDBRANCH   9  12
ENDBRANCH   7   9
ENDBRANCH   4   7
BRANCH   1  20
ATOM     20  C   UNL     1       2.139  -6.737  -0.017  0.00  0.00    +0.157 C 
BRANCH  20  23
ATOM     21  C   UNL     1       1.747  -3.146   0.070  0.00  0.00    +0.146 A 
ATOM     22  C   UNL     1       1.202  -4.396   0.051  0.00  0.00    +0.120 A 
ATOM     23  N   UNL     1       2.242  -5.276   0.016  0.00  0.00    -0.332 N 
ATOM     24  C   UNL     1       3.390  -4.551   0.022  0.00  0.00    +0.200 A 
ATOM     25  N   UNL     1       3.091  -3.284   0.054  0.00  0.00    -0.231 NA
BRANCH  21  28
ATOM     26  C   UNL     1       0.467   0.183   0.161  0.00  0.00    +0.202 A 
ATOM     27  N   UNL     1       1.521  -0.658   0.125  0.00  0.00    -0.186 NA
ATOM     28  C   UNL     1       1.002  -1.873   0.107  0.00  0.00    +0.279 A 
ATOM     29  O   UNL     1      -0.332  -1.727   0.124  0.00  0.00    -0.331 OA
ATOM     30  N   UNL     1      -0.618  -0.549   0.154  0.00  0.00    -0.056 NA
BRANCH  26  36
ATOM     31  C   UNL     1      -1.860   4.600   0.286  0.00  0.00    +0.044 C 
ATOM     32  C   UNL     1      -0.589   3.791   0.255  0.00  0.00    -0.050 A 
ATOM     33  C   UNL     1       0.637   4.432   0.257  0.00  0.00    +0.003 A 
ATOM     34  C   UNL     1       1.808   3.696   0.229  0.00  0.00    +0.001 A 
ATOM     35  C   UNL     1       1.758   2.316   0.197  0.00  0.00    +0.012 A 
ATOM     36  C   UNL     1       0.526   1.666   0.195  0.00  0.00    +0.023 A 
ATOM     37  C   UNL     1      -0.650   2.413   0.218  0.00  0.00    +0.015 A 
ENDBRANCH  26  36
ENDBRANCH  21  28
ENDBRANCH  20  23
ENDBRANCH   1  20
TORSDOF 7
