REMARK  Name = ZINC23855889
REMARK  9 active torsions:
REMARK  status: ('A' for Active; 'I' for Inactive)
REMARK    1  A    between atoms: C_1  and  O_2
REMARK    2  A    between atoms: O_2  and  C_3
REMARK    3  A    between atoms: C_6  and  C_9
REMARK    4  A    between atoms: C_9  and  N_10
REMARK    5  A    between atoms: N_13  and  C_16
REMARK    6  A    between atoms: C_16  and  N_17
REMARK    7  A    between atoms: C_20  and  C_24
REMARK    8  A    between atoms: C_20  and  C_31
REMARK    9  A    between atoms: C_24  and  C_25
REMARK                            x       y       z     vdW  Elec       q    Type
REMARK                         _______ _______ _______ _____ _____    ______ ____
ROOT
ATOM      1  N   UNL     1       4.244  -2.332   1.477  0.00  0.00    -0.210 N 
ATOM      2  C   UNL     1       4.182  -0.989   1.375  0.00  0.00    +0.252 C 
ATOM      3  O   UNL     1       4.447  -0.176   2.234  0.00  0.00    -0.272 OA
ATOM      4  C   UNL     1       3.711  -0.707  -0.038  0.00  0.00    +0.142 C 
ATOM      5  N   UNL     1       3.547  -2.049  -0.623  0.00  0.00    -0.281 N 
ATOM      6  C   UNL     1       3.881  -2.931   0.337  0.00  0.00    +0.311 C 
ATOM      7  O   UNL     1       3.857  -4.136   0.185  0.00  0.00    -0.252 OA
ATOM      8  H   UNL     1       3.207  -2.158  -1.663  0.00  0.00    +0.152 HD
ENDROOT
BRANCH   4   9
ATOM      9  C   UNL     1       2.396   0.029  -0.022  0.00  0.00    -0.015 A 
ATOM     10  C   UNL     1       1.208  -0.679  -0.013  0.00  0.00    +0.006 A 
ATOM     11  C   UNL     1       0.002  -0.004   0.002  0.00  0.00    +0.000 A 
ATOM     12  C   UNL     1      -0.017   1.378   0.010  0.00  0.00    +0.000 A 
ATOM     13  C   UNL     1       1.171   2.086   0.002  0.00  0.00    +0.000 A 
ATOM     14  C   UNL     1       2.377   1.411  -0.015  0.00  0.00    +0.006 A 
ENDBRANCH   4   9
BRANCH   1  15
ATOM     15  C   UNL     1       4.658  -3.047   2.687  0.00  0.00    +0.205 C 
BRANCH  15  19
ATOM     16  N   UNL     1       2.073  -3.588   5.983  0.00  0.00    +0.384 N 
ATOM     17  C   UNL     1       2.432  -4.771   5.188  0.00  0.00    -0.063 C 
ATOM     18  C   UNL     1       3.706  -4.479   4.391  0.00  0.00    +0.067 C 
ATOM     19  N   UNL     1       3.482  -3.313   3.525  0.00  0.00    -0.290 NA
ATOM     20  C   UNL     1       3.123  -2.131   4.320  0.00  0.00    +0.067 C 
ATOM     21  C   UNL     1       1.849  -2.423   5.117  0.00  0.00    -0.063 C 
ATOM     22  H   UNL     1       2.917  -3.358   6.651  0.00  0.00    -0.081 HD
BRANCH  16  23
ATOM     23  C   UNL     1       0.896  -3.855   6.822  0.00  0.00    -0.043 C 
BRANCH  23  27
ATOM     24  C   UNL     1       0.354  -0.637   9.581  0.00  0.00    +0.120 A 
ATOM     25  C   UNL     1      -0.254  -0.594   8.335  0.00  0.00    +0.046 A 
ATOM     26  C   UNL     1      -0.077  -1.635   7.444  0.00  0.00    +0.005 A 
ATOM     27  C   UNL     1       0.705  -2.720   7.795  0.00  0.00    -0.064 A 
ATOM     28  C   UNL     1       1.308  -2.768   9.038  0.00  0.00    +0.005 A 
ATOM     29  C   UNL     1       1.139  -1.726   9.930  0.00  0.00    +0.046 A 
BRANCH  24  31
ATOM     30  C   UNL     1       0.838   0.275  11.722  0.00  0.00    +0.277 C 
ATOM     31  O   UNL     1       0.182   0.387  10.458  0.00  0.00    -0.495 OA
ENDBRANCH  24  31
ENDBRANCH  23  27
ENDBRANCH  16  23
ENDBRANCH  15  19
ENDBRANCH   1  15
BRANCH   4  32
ATOM     32  C   UNL     1       4.764   0.093  -0.807  0.00  0.00    +0.075 C 
BRANCH  32  33
ATOM     33  C   UNL     1       6.031  -0.716  -0.914  0.00  0.00    -0.045 A 
ATOM     34  C   UNL     1       7.004  -0.609   0.061  0.00  0.00    +0.004 A 
ATOM     35  C   UNL     1       8.164  -1.355  -0.035  0.00  0.00    +0.000 A 
ATOM     36  C   UNL     1       8.355  -2.200  -1.112  0.00  0.00    +0.000 A 
ATOM     37  C   UNL     1       7.384  -2.304  -2.090  0.00  0.00    +0.000 A 
ATOM     38  C   UNL     1       6.222  -1.561  -1.992  0.00  0.00    +0.004 A 
ENDBRANCH  32  33
ENDBRANCH   4  32
TORSDOF 8
