REMARK  Name = ZINC40286994
REMARK  9 active torsions:
REMARK  status: ('A' for Active; 'I' for Inactive)
REMARK    1  A    between atoms: C_1  and  O_2
REMARK    2  A    between atoms: O_2  and  C_3
REMARK    3  A    between atoms: C_3  and  C_5
REMARK    4  A    between atoms: C_5  and  C_6
REMARK    5  A    between atoms: C_6  and  C_7
REMARK    6  A    between atoms: C_7  and  C_8
REMARK    7  A    between atoms: C_8  and  C_9
REMARK    8  A    between atoms: C_9  and  N_10
REMARK    9  A    between atoms: C_22  and  C_24
REMARK                            x       y       z     vdW  Elec       q    Type
REMARK                         _______ _______ _______ _____ _____    ______ ____
ROOT
ATOM      1  N   UNL     1       2.792  -8.413   4.437  0.00  0.00    -0.299 N 
ATOM      2  C   UNL     1       3.264  -7.590   5.394  0.00  0.00    +0.303 C 
ATOM      3  O   UNL     1       3.207  -6.385   5.242  0.00  0.00    -0.253 OA
ATOM      4  N   UNL     1       3.800  -8.103   6.520  0.00  0.00    -0.273 N 
ATOM      5  C   UNL     1       4.213  -7.224   7.625  0.00  0.00    +0.116 C 
ATOM      6  C   UNL     1       3.347  -7.525   8.855  0.00  0.00    +0.074 C 
ATOM      7  C   UNL     1       3.246  -9.018   9.025  0.00  0.00    +0.040 A 
ATOM      8  C   UNL     1       3.523  -9.924   8.063  0.00  0.00    +0.062 A 
ATOM      9  N   UNL     1       3.320 -11.143   8.569  0.00  0.00    -0.348 N 
ATOM     10  C   UNL     1       2.929 -11.030   9.812  0.00  0.00    +0.171 A 
ATOM     11  N   UNL     1       2.873  -9.717  10.133  0.00  0.00    -0.349 N 
ATOM     12  H   UNL     1       2.614  -9.344  10.990  0.00  0.00    +0.166 HD
ATOM     13  C   UNL     1       3.980  -9.557   6.675  0.00  0.00    +0.159 C 
ATOM     14  H   UNL     1       2.904  -9.373   4.524  0.00  0.00    +0.150 HD
ATOM     15  H   UNL     1       3.442 -11.978   8.091  0.00  0.00    +0.167 HD
ENDROOT
BRANCH  13  16
ATOM     16  C   UNL     1       5.435  -9.914   6.509  0.00  0.00    +0.015 A 
ATOM     17  C   UNL     1       6.208 -10.202   7.618  0.00  0.00    +0.028 A 
ATOM     18  C   UNL     1       7.543 -10.530   7.465  0.00  0.00    +0.041 A 
ATOM     19  C   UNL     1       8.105 -10.570   6.201  0.00  0.00    +0.023 A 
ATOM     20  C   UNL     1       7.334 -10.283   5.092  0.00  0.00    +0.040 A 
ATOM     21  C   UNL     1       5.996  -9.960   5.244  0.00  0.00    +0.129 A 
ATOM     22  F   UNL     1       5.240  -9.684   4.159  0.00  0.00    -0.205 F 
ATOM     23 CL   UNL     1       8.513 -10.890   8.859  0.00  0.00    -0.084 Cl
ENDBRANCH  13  16
BRANCH   1  24
ATOM     24  C   UNL     1       2.110  -7.859   3.265  0.00  0.00    +0.106 C 
BRANCH  24  25
ATOM     25  C   UNL     1       1.677  -8.998   2.340  0.00  0.00    +0.019 C 
BRANCH  25  26
ATOM     26  C   UNL     1       0.965  -8.419   1.116  0.00  0.00    +0.002 C 
BRANCH  26  27
ATOM     27  C   UNL     1       0.532  -9.559   0.192  0.00  0.00    +0.011 C 
BRANCH  27  28
ATOM     28  C   UNL     1      -0.180  -8.980  -1.032  0.00  0.00    +0.120 C 
BRANCH  28  29
ATOM     29  C   UNL     1      -0.606 -10.102  -1.943  0.00  0.00    +0.307 C 
ATOM     30  O   UNL     1      -0.365 -11.248  -1.644  0.00  0.00    -0.251 OA
BRANCH  29  32
ATOM     31  C   UNL     1      -1.628 -10.942  -3.902  0.00  0.00    +0.280 C 
ATOM     32  O   UNL     1      -1.254  -9.829  -3.087  0.00  0.00    -0.468 OA
ENDBRANCH  29  32
ENDBRANCH  28  29
ENDBRANCH  27  28
ENDBRANCH  26  27
ENDBRANCH  25  26
ENDBRANCH  24  25
ENDBRANCH   1  24
TORSDOF 8
