REMARK  Name = ZINC09640542
REMARK  3 active torsions:
REMARK  status: ('A' for Active; 'I' for Inactive)
REMARK    1  A    between atoms: C_12  and  C_14
REMARK    2  A    between atoms: C_14  and  S_15
REMARK    3  A    between atoms: S_15  and  C_16
REMARK                            x       y       z     vdW  Elec       q    Type
REMARK                         _______ _______ _______ _____ _____    ______ ____
ROOT
ATOM      1  C   UNL     1      -3.509  -2.251   0.002  0.00  0.00    +0.002 A 
ATOM      2  C   UNL     1      -3.495  -1.003   0.597  0.00  0.00    +0.002 A 
ATOM      3  C   UNL     1      -2.337  -0.247   0.602  0.00  0.00    +0.025 A 
ATOM      4  C   UNL     1      -1.190  -0.745   0.009  0.00  0.00    +0.058 A 
ATOM      5  C   UNL     1      -1.202  -2.003  -0.595  0.00  0.00    +0.055 A 
ATOM      6  C   UNL     1      -2.367  -2.753  -0.594  0.00  0.00    +0.025 A 
ATOM      7  N   UNL     1      -0.038  -2.488  -1.202  0.00  0.00    -0.283 N 
ATOM      8  C   UNL     1       1.153  -1.904  -0.971  0.00  0.00    +0.235 C 
ATOM      9  O   UNL     1       2.142  -2.314  -1.541  0.00  0.00    -0.274 OA
ATOM     10  C   UNL     1       1.272  -0.746  -0.020  0.00  0.00    +0.209 C 
ATOM     11  N   UNL     1       0.002  -0.004   0.002  0.00  0.00    -0.260 N 
ATOM     12  C   UNL     1      -0.016   1.344   0.009  0.00  0.00    +0.230 C 
ATOM     13  O   UNL     1      -1.075   1.936   0.018  0.00  0.00    -0.274 OA
ATOM     14  H   UNL     1      -0.090  -3.254  -1.794  0.00  0.00    +0.155 HD
ENDROOT
BRANCH  12  15
ATOM     15  C   UNL     1       1.278   2.115   0.001  0.00  0.00    +0.172 C 
BRANCH  15  16
ATOM     16  S   UNL     1       0.924   3.890   0.014  0.00  0.00    -0.095 S 
BRANCH  16  17
ATOM     17  C   UNL     1       2.565   4.530   0.002  0.00  0.00    +0.115 A 
ATOM     18  C   UNL     1       2.795   5.896   0.007  0.00  0.00    +0.069 A 
ATOM     19  C   UNL     1       4.107   6.415  -0.003  0.00  0.00    +0.082 A 
ATOM     20  C   UNL     1       4.200   7.817   0.004  0.00  0.00    +0.036 A 
ATOM     21  C   UNL     1       3.083   8.569   0.019  0.00  0.00    +0.048 A 
ATOM     22  S   UNL     1       1.780   7.349   0.025  0.00  0.00    -0.092 S 
ATOM     23  N   UNL     1       5.102   5.492  -0.017  0.00  0.00    -0.235 NA
ATOM     24  C   UNL     1       4.843   4.210  -0.021  0.00  0.00    +0.223 A 
ATOM     25  N   UNL     1       3.619   3.712  -0.007  0.00  0.00    -0.228 NA
ENDBRANCH  16  17
ENDBRANCH  15  16
ENDBRANCH  12  15
TORSDOF 3
