REMARK  Name = ZINC21075604
REMARK  8 active torsions:
REMARK  status: ('A' for Active; 'I' for Inactive)
REMARK    1  A    between atoms: C_3  and  N_13
REMARK    2  A    between atoms: C_5  and  N_7
REMARK    3  A    between atoms: C_14  and  C_16
REMARK    4  A    between atoms: C_16  and  S_17
REMARK    5  A    between atoms: S_17  and  C_18
REMARK    6  A    between atoms: N_23  and  N_24
REMARK    7  A    between atoms: C_25  and  C_26
REMARK    8  A    between atoms: C_28  and  N_33
REMARK                            x       y       z     vdW  Elec       q    Type
REMARK                         _______ _______ _______ _____ _____    ______ ____
ROOT
ATOM      1  C   UNL     1      -5.047   1.052  -0.105  0.00  0.00    +0.211 A 
ATOM      2  N   UNL     1      -6.383   1.335  -0.155  0.00  0.00    -0.186 NA
ATOM      3  C   UNL     1      -7.032   0.131  -0.033  0.00  0.00    +0.232 A 
ATOM      4  N   UNL     1      -6.090  -0.822   0.084  0.00  0.00    -0.245 N 
ATOM      5  N   UNL     1      -4.924  -0.283   0.037  0.00  0.00    -0.144 NA
ATOM      6  N   UNL     1      -8.356  -0.059  -0.031  0.00  0.00    -0.205 N 
ATOM      7  H   UNL     1      -9.035   0.800  -0.134  0.00  0.00    +0.177 HD
ATOM      8  H   UNL     1      -6.385  -1.876   0.199  0.00  0.00    +0.192 HD
ENDROOT
BRANCH   6   9
ATOM      9  N   UNL     1      -8.837  -1.250   0.092  0.00  0.00    -0.187 NA
ATOM     10  C   UNL     1     -10.141  -1.437   0.094  0.00  0.00    +0.142 C 
BRANCH  10  11
ATOM     11  C   UNL     1     -10.669  -2.744   0.229  0.00  0.00    +0.043 A 
ATOM     12  C   UNL     1     -12.060  -2.951   0.232  0.00  0.00    +0.046 A 
ATOM     13  C   UNL     1     -12.561  -4.213   0.362  0.00  0.00    +0.127 A 
ATOM     14  C   UNL     1     -11.708  -5.301   0.492  0.00  0.00    +0.036 A 
ATOM     15  C   UNL     1     -10.338  -5.124   0.491  0.00  0.00    +0.054 A 
ATOM     16  C   UNL     1      -9.803  -3.853   0.356  0.00  0.00    +0.188 A 
ATOM     17  O   UNL     1      -8.460  -3.674   0.349  0.00  0.00    -0.287 OA
BRANCH  13  18
ATOM     18  N   UNL     1     -14.026  -4.424   0.365  0.00  0.00    +0.056 N 
ATOM     19  O   UNL     1     -14.840  -3.396   0.242  0.00  0.00    -0.126 OA
ATOM     20  O   UNL     1     -14.516  -5.640   0.490  0.00  0.00    -0.126 OA
ENDBRANCH  13  18
ENDBRANCH  10  11
ENDBRANCH   6   9
BRANCH   1  21
ATOM     21  S   UNL     1      -3.767   2.183  -0.211  0.00  0.00    -0.075 S 
BRANCH  21  22
ATOM     22  C   UNL     1      -2.349   1.067  -0.068  0.00  0.00    +0.173 C 
BRANCH  22  24
ATOM     23  N   UNL     1       0.119   1.240  -0.051  0.00  0.00    -0.285 N 
ATOM     24  C   UNL     1      -1.072   1.865  -0.137  0.00  0.00    +0.227 C 
ATOM     25  O   UNL     1      -1.117   3.070  -0.270  0.00  0.00    -0.275 OA
ATOM     26  H   UNL     1       0.161   0.142  -0.001  0.00  0.00    +0.155 HD
BRANCH  23  29
ATOM     27  C   UNL     1       2.566   3.898  -0.744  0.00  0.00    +0.004 A 
ATOM     28  C   UNL     1       1.400   3.156  -0.771  0.00  0.00    +0.023 A 
ATOM     29  C   UNL     1       1.301   1.988  -0.027  0.00  0.00    +0.035 A 
ATOM     30  C   UNL     1       2.378   1.560   0.736  0.00  0.00    +0.046 A 
ATOM     31  C   UNL     1       3.548   2.304   0.758  0.00  0.00    +0.038 A 
ATOM     32  C   UNL     1       3.639   3.475   0.016  0.00  0.00    +0.023 A 
BRANCH  31  33
ATOM     33  N   UNL     1       4.637   1.875   1.526  0.00  0.00    -0.271 N 
ATOM     34  C   UNL     1       5.875   2.643   1.709  0.00  0.00    +0.114 C 
ATOM     35  C   UNL     1       6.914   1.628   2.235  0.00  0.00    +0.029 C 
ATOM     36  C   UNL     1       6.010   0.568   2.905  0.00  0.00    +0.098 C 
ATOM     37  C   UNL     1       4.681   0.711   2.196  0.00  0.00    +0.220 C 
ATOM     38  O   UNL     1       3.786  -0.107   2.226  0.00  0.00    -0.275 OA
ENDBRANCH  31  33
ENDBRANCH  23  29
ENDBRANCH  22  24
ENDBRANCH  21  22
ENDBRANCH   1  21
TORSDOF 8
