REMARK  Name = ZINC12796292
REMARK  5 active torsions:
REMARK  status: ('A' for Active; 'I' for Inactive)
REMARK    1  A    between atoms: C_4  and  C_7
REMARK    2  A    between atoms: C_18  and  C_20
REMARK    3  A    between atoms: C_20  and  N_21
REMARK    4  A    between atoms: C_24  and  C_29
REMARK    5  A    between atoms: C_29  and  C_30
REMARK                            x       y       z     vdW  Elec       q    Type
REMARK                         _______ _______ _______ _____ _____    ______ ____
ROOT
ATOM      1  C   UNL     1      -2.501   4.489  -2.241  0.00  0.00    +0.214 C 
ENDROOT
BRANCH   1  12
ATOM      2  C   UNL     1       0.074   1.875  -1.367  0.00  0.00    +0.122 C 
ATOM      3  C   UNL     1       1.361   2.497  -0.803  0.00  0.00    +0.102 C 
ATOM      4  S   UNL     1       1.147   2.672   0.994  0.00  0.00    -0.121 S 
ATOM      5  C   UNL     1      -0.467   3.372   1.143  0.00  0.00    +0.029 A 
ATOM      6  C   UNL     1      -0.848   3.937   2.354  0.00  0.00    +0.016 A 
ATOM      7  C   UNL     1      -2.110   4.478   2.502  0.00  0.00    +0.001 A 
ATOM      8  C   UNL     1      -2.998   4.457   1.442  0.00  0.00    +0.002 A 
ATOM      9  C   UNL     1      -2.625   3.902   0.234  0.00  0.00    +0.024 A 
ATOM     10  C   UNL     1      -1.354   3.357   0.071  0.00  0.00    +0.050 A 
ATOM     11  N   UNL     1      -1.025   2.816  -1.174  0.00  0.00    -0.261 N 
ATOM     12  C   UNL     1      -1.756   3.179  -2.246  0.00  0.00    +0.238 C 
ATOM     13  O   UNL     1      -1.815   2.452  -3.215  0.00  0.00    -0.273 OA
BRANCH   2  17
ATOM     14  C   UNL     1       0.572   1.091  -5.537  0.00  0.00    +0.000 A 
ATOM     15  C   UNL     1       0.006   0.133  -4.716  0.00  0.00    +0.000 A 
ATOM     16  C   UNL     1      -0.155   0.387  -3.367  0.00  0.00    +0.005 A 
ATOM     17  C   UNL     1       0.250   1.598  -2.838  0.00  0.00    -0.026 A 
ATOM     18  C   UNL     1       0.811   2.558  -3.660  0.00  0.00    +0.005 A 
ATOM     19  C   UNL     1       0.977   2.302  -5.008  0.00  0.00    +0.000 A 
ENDBRANCH   2  17
ENDBRANCH   1  12
BRANCH   1  20
ATOM     20  N   UNL     1      -2.723   4.930  -3.621  0.00  0.00    -0.216 N 
ATOM     21  C   UNL     1      -1.870   5.713  -4.312  0.00  0.00    +0.244 C 
ATOM     22  O   UNL     1      -0.816   6.168  -3.924  0.00  0.00    -0.273 OA
ATOM     23  C   UNL     1      -2.504   5.905  -5.675  0.00  0.00    +0.165 C 
ATOM     24  N   UNL     1      -3.761   5.142  -5.584  0.00  0.00    -0.287 N 
ATOM     25  C   UNL     1      -3.799   4.610  -4.348  0.00  0.00    +0.310 C 
ATOM     26  O   UNL     1      -4.709   3.916  -3.939  0.00  0.00    -0.252 OA
ATOM     27  H   UNL     1      -4.431   5.043  -6.278  0.00  0.00    +0.151 HD
BRANCH  23  28
ATOM     28  C   UNL     1      -1.607   5.334  -6.775  0.00  0.00    +0.069 C 
BRANCH  28  29
ATOM     29  C   UNL     1      -2.255   5.555  -8.118  0.00  0.00    -0.020 A 
ATOM     30  C   UNL     1      -3.020   4.680  -8.789  0.00  0.00    +0.087 A 
ATOM     31  N   UNL     1      -3.434   5.233  -9.971  0.00  0.00    -0.360 N 
ATOM     32  H   UNL     1      -3.998   4.792 -10.625  0.00  0.00    +0.165 HD
ATOM     33  C   UNL     1      -2.925   6.506 -10.096  0.00  0.00    +0.047 A 
ATOM     34  C   UNL     1      -2.164   6.764  -8.940  0.00  0.00    +0.003 A 
ATOM     35  C   UNL     1      -1.522   7.994  -8.790  0.00  0.00    +0.010 A 
ATOM     36  C   UNL     1      -1.635   8.943  -9.767  0.00  0.00    +0.001 A 
ATOM     37  C   UNL     1      -2.384   8.693 -10.908  0.00  0.00    +0.002 A 
ATOM     38  C   UNL     1      -3.026   7.486 -11.077  0.00  0.00    +0.026 A 
ENDBRANCH  28  29
ENDBRANCH  23  28
ENDBRANCH   1  20
TORSDOF 5
