REMARK  Name = ZINC33265746
REMARK  9 active torsions:
REMARK  status: ('A' for Active; 'I' for Inactive)
REMARK    1  A    between atoms: C_1  and  C_2
REMARK    2  A    between atoms: C_2  and  C_3
REMARK    3  A    between atoms: C_6  and  S_9
REMARK    4  A    between atoms: S_9  and  N_12
REMARK    5  A    between atoms: N_12  and  C_13
REMARK    6  A    between atoms: C_18  and  O_19
REMARK    7  A    between atoms: O_19  and  C_20
REMARK    8  A    between atoms: N_26  and  C_33
REMARK    9  A    between atoms: N_31  and  C_32
REMARK                            x       y       z     vdW  Elec       q    Type
REMARK                         _______ _______ _______ _____ _____    ______ ____
ROOT
ATOM      1  C   UNL     1      -1.237   3.287  -0.153  0.00  0.00    +0.092 A 
ATOM      2  C   UNL     1      -0.040   3.974  -0.050  0.00  0.00    +0.056 A 
ATOM      3  C   UNL     1       1.151   3.277   0.120  0.00  0.00    +0.070 A 
ATOM      4  C   UNL     1       1.137   1.882   0.188  0.00  0.00    +0.072 A 
ATOM      5  C   UNL     1      -0.069   1.196   0.086  0.00  0.00    +0.076 A 
ATOM      6  C   UNL     1      -1.250   1.892  -0.090  0.00  0.00    +0.153 A 
ATOM      7  N   UNL     1       2.321   1.169   0.359  0.00  0.00    -0.305 N 
ATOM      8  C   UNL     1       3.496   1.824   0.459  0.00  0.00    +0.316 A 
ATOM      9  O   UNL     1       4.532   1.206   0.607  0.00  0.00    -0.262 OA
ATOM     10  C   UNL     1       3.511   3.312   0.386  0.00  0.00    +0.316 A 
ATOM     11  O   UNL     1       4.559   3.920   0.475  0.00  0.00    -0.262 OA
ATOM     12  N   UNL     1       2.350   3.978   0.221  0.00  0.00    -0.305 N 
ATOM     13  C   UNL     1       2.350   5.441   0.149  0.00  0.00    +0.153 C 
ATOM     14  C   UNL     1       2.291  -0.294   0.429  0.00  0.00    +0.153 C 
ENDROOT
BRANCH   1  15
ATOM     15  N   UNL     1      -2.435   3.990  -0.325  0.00  0.00    -0.213 N 
ATOM     16  H   UNL     1      -3.361   3.623   0.142  0.00  0.00    +0.174 HD
BRANCH  15  17
ATOM     17  S   UNL     1      -2.458   5.377  -1.230  0.00  0.00    +0.072 S 
ATOM     18  O   UNL     1      -3.819   5.776  -1.326  0.00  0.00    -0.150 OA
ATOM     19  O   UNL     1      -1.450   6.226  -0.700  0.00  0.00    -0.150 OA
BRANCH  17  23
ATOM     20  C   UNL     1      -1.141   4.263  -5.415  0.00  0.00    -0.048 A 
ATOM     21  C   UNL     1      -2.480   4.217  -5.077  0.00  0.00    +0.005 A 
ATOM     22  C   UNL     1      -2.883   4.557  -3.799  0.00  0.00    +0.029 A 
ATOM     23  C   UNL     1      -1.946   4.943  -2.859  0.00  0.00    +0.109 A 
ATOM     24  C   UNL     1      -0.607   4.994  -3.199  0.00  0.00    +0.029 A 
ATOM     25  C   UNL     1      -0.204   4.650  -4.476  0.00  0.00    +0.005 A 
BRANCH  20  27
ATOM     26  C   UNL     1      -0.705   5.139  -7.694  0.00  0.00    +0.009 C 
ATOM     27  C   UNL     1      -0.702   3.891  -6.808  0.00  0.00    +0.032 C 
ENDBRANCH  20  27
ENDBRANCH  17  23
ENDBRANCH  15  17
ENDBRANCH   1  15
BRANCH   6  28
ATOM     28  O   UNL     1      -2.427   1.219  -0.196  0.00  0.00    -0.454 OA
BRANCH  28  29
ATOM     29  C   UNL     1      -3.205   1.116   0.913  0.00  0.00    +0.129 A 
ATOM     30  C   UNL     1      -2.826   1.748   2.089  0.00  0.00    +0.046 A 
ATOM     31  C   UNL     1      -3.622   1.646   3.214  0.00  0.00    +0.004 A 
ATOM     32  C   UNL     1      -4.790   0.906   3.171  0.00  0.00    +0.000 A 
ATOM     33  C   UNL     1      -5.167   0.271   2.002  0.00  0.00    +0.004 A 
ATOM     34  C   UNL     1      -4.377   0.374   0.874  0.00  0.00    +0.046 A 
ENDBRANCH  28  29
ENDBRANCH   6  28
TORSDOF 6
