REMARK  Name = ZINC18275860
REMARK  5 active torsions:
REMARK  status: ('A' for Active; 'I' for Inactive)
REMARK    1  A    between atoms: C_1  and  C_2
REMARK    2  A    between atoms: N_13  and  N_14
REMARK    3  A    between atoms: C_15  and  C_17
REMARK    4  A    between atoms: C_17  and  C_18
REMARK    5  A    between atoms: C_18  and  C_19
REMARK                            x       y       z     vdW  Elec       q    Type
REMARK                         _______ _______ _______ _____ _____    ______ ____
ROOT
ATOM      1  C   UNL     1      -0.018   1.503   0.010  0.00  0.00    +0.045 C 
ATOM      2  C   UNL     1       0.002  -0.004   0.002  0.00  0.00    -0.036 A 
ATOM      3  C   UNL     1       0.006  -0.687  -1.198  0.00  0.00    +0.016 A 
ATOM      4  C   UNL     1       0.025  -2.077  -1.200  0.00  0.00    +0.028 A 
ATOM      5  C   UNL     1       0.040  -2.788   0.007  0.00  0.00    +0.044 A 
ATOM      6  C   UNL     1       0.036  -2.084   1.206  0.00  0.00    +0.039 A 
ATOM      7  C   UNL     1       0.023  -0.702   1.198  0.00  0.00    +0.023 A 
ATOM      8 BR   UNL     1       0.026   0.244   2.836  0.00  0.00    -0.050 Br
ATOM      9  N   UNL     1       0.057  -4.152  -0.262  0.00  0.00    -0.280 N 
ATOM     10  C   UNL     1       0.054  -4.392  -1.585  0.00  0.00    +0.269 C 
ATOM     11  O   UNL     1       0.067  -5.487  -2.114  0.00  0.00    -0.268 OA
ATOM     12  C   UNL     1       0.033  -3.090  -2.282  0.00  0.00    +0.153 C 
ATOM     13  N   UNL     1       0.024  -2.876  -3.575  0.00  0.00    -0.175 NA
ATOM     14  H   UNL     1       0.070  -4.843   0.418  0.00  0.00    +0.155 HD
ENDROOT
BRANCH  13  15
ATOM     15  N   UNL     1       0.035  -3.959  -4.463  0.00  0.00    -0.206 N 
ATOM     16  C   UNL     1       0.025  -3.740  -5.793  0.00  0.00    +0.233 C 
ATOM     17  O   UNL     1       0.007  -2.606  -6.221  0.00  0.00    -0.274 OA
ATOM     18  H   UNL     1       0.049  -4.867  -4.122  0.00  0.00    +0.177 HD
BRANCH  16  19
ATOM     19  C   UNL     1       0.036  -4.905  -6.749  0.00  0.00    +0.102 C 
BRANCH  19  20
ATOM     20  C   UNL     1       0.022  -4.385  -8.188  0.00  0.00    +0.044 C 
BRANCH  20  21
ATOM     21  C   UNL     1       0.033  -5.550  -9.144  0.00  0.00    -0.047 A 
ATOM     22  C   UNL     1       1.236  -6.071  -9.584  0.00  0.00    +0.003 A 
ATOM     23  C   UNL     1       1.246  -7.140 -10.460  0.00  0.00    +0.000 A 
ATOM     24  C   UNL     1       0.054  -7.687 -10.897  0.00  0.00    +0.000 A 
ATOM     25  C   UNL     1      -1.148  -7.166 -10.456  0.00  0.00    +0.000 A 
ATOM     26  C   UNL     1      -1.159  -6.101  -9.576  0.00  0.00    +0.003 A 
ENDBRANCH  20  21
ENDBRANCH  19  20
ENDBRANCH  16  19
ENDBRANCH  13  15
TORSDOF 4
