REMARK  Name = ZINC58004903
REMARK  7 active torsions:
REMARK  status: ('A' for Active; 'I' for Inactive)
REMARK    1  A    between atoms: C_1  and  C_2
REMARK    2  A    between atoms: C_2  and  C_3
REMARK    3  A    between atoms: N_11  and  C_15
REMARK    4  A    between atoms: C_15  and  C_16
REMARK    5  A    between atoms: N_18  and  C_19
REMARK    6  A    between atoms: C_21  and  N_27
REMARK    7  A    between atoms: C_28  and  C_30
REMARK                            x       y       z     vdW  Elec       q    Type
REMARK                         _______ _______ _______ _____ _____    ______ ____
ROOT
ATOM      1  C   UNL     1      -3.940  -3.608   5.327  0.00  0.00    +0.235 C 
ATOM      2  O   UNL     1      -4.315  -2.459   5.229  0.00  0.00    -0.274 OA
ATOM      3  N   UNL     1      -3.797  -4.169   6.545  0.00  0.00    -0.282 N 
ATOM      4  H   UNL     1      -3.560  -5.106   6.622  0.00  0.00    +0.155 HD
ENDROOT
BRANCH   3   5
ATOM      5  C   UNL     1      -3.990  -3.397   7.698  0.00  0.00    +0.071 A 
ATOM      6  C   UNL     1      -4.949  -2.393   7.710  0.00  0.00    +0.052 A 
ATOM      7  C   UNL     1      -5.139  -1.631   8.853  0.00  0.00    +0.071 A 
ATOM      8  C   UNL     1      -4.369  -1.874   9.985  0.00  0.00    +0.147 A 
ATOM      9  C   UNL     1      -3.414  -2.875   9.972  0.00  0.00    +0.080 A 
ATOM     10  C   UNL     1      -3.227  -3.640   8.834  0.00  0.00    +0.147 A 
ATOM     11  F   UNL     1      -2.297  -4.620   8.825  0.00  0.00    -0.203 F 
ATOM     12  F   UNL     1      -4.553  -1.132  11.099  0.00  0.00    -0.203 F 
BRANCH   7  13
ATOM     13  N   UNL     1      -6.106  -0.617   8.867  0.00  0.00    -0.283 N 
ATOM     14  C   UNL     1      -7.254  -0.772   8.179  0.00  0.00    +0.214 C 
ATOM     15  O   UNL     1      -7.418  -1.752   7.484  0.00  0.00    -0.276 OA
ATOM     16  C   UNL     1      -8.336   0.273   8.274  0.00  0.00    +0.109 C 
ATOM     17  H   UNL     1      -5.948   0.196   9.371  0.00  0.00    +0.155 HD
ENDBRANCH   7  13
ENDBRANCH   3   5
BRANCH   1  18
ATOM     18  C   UNL     1      -3.634  -4.410   4.088  0.00  0.00    +0.214 C 
BRANCH  18  27
ATOM     19  C   UNL     1      -1.516  -0.497  -0.035  0.00  0.00    -0.011 C 
ATOM     20  C   UNL     1      -2.177  -0.112   1.290  0.00  0.00    +0.006 C 
ATOM     21  C   UNL     1      -3.616  -0.633   1.312  0.00  0.00    +0.035 C 
ATOM     22  C   UNL     1      -3.613  -2.149   1.148  0.00  0.00    +0.113 C 
ATOM     23  C   UNL     1      -2.935  -2.550  -0.157  0.00  0.00    +0.035 C 
ATOM     24  C   UNL     1      -1.498  -2.021  -0.173  0.00  0.00    +0.006 C 
ATOM     25  C   UNL     1      -2.927  -2.806   2.324  0.00  0.00    +0.247 C 
ATOM     26  O   UNL     1      -1.775  -2.664   2.673  0.00  0.00    -0.273 OA
ATOM     27  N   UNL     1      -3.866  -3.582   2.902  0.00  0.00    -0.215 N 
ATOM     28  C   UNL     1      -5.036  -3.504   2.256  0.00  0.00    +0.310 C 
ATOM     29  O   UNL     1      -6.034  -4.114   2.589  0.00  0.00    -0.252 OA
ATOM     30  N   UNL     1      -4.984  -2.674   1.197  0.00  0.00    -0.285 N 
ATOM     31  H   UNL     1      -5.708  -2.464   0.587  0.00  0.00    +0.151 HD
BRANCH  19  33
ATOM     32  C   UNL     1      -0.104   1.564  -0.051  0.00  0.00    +0.004 C 
ATOM     33  C   UNL     1      -0.082   0.034  -0.063  0.00  0.00    -0.000 C 
ENDBRANCH  19  33
ENDBRANCH  18  27
ENDBRANCH   1  18
TORSDOF 5
