REMARK  Name = ZINC40547998
REMARK  10 active torsions:
REMARK  status: ('A' for Active; 'I' for Inactive)
REMARK    1  A    between atoms: C_1  and  C_2
REMARK    2  A    between atoms: C_2  and  C_3
REMARK    3  A    between atoms: C_3  and  C_4
REMARK    4  A    between atoms: C_4  and  O_5
REMARK    5  A    between atoms: O_5  and  C_6
REMARK    6  A    between atoms: C_10  and  C_12
REMARK    7  A    between atoms: C_15  and  C_31
REMARK    8  A    between atoms: N_22  and  C_23
REMARK    9  A    between atoms: C_33  and  C_38
REMARK   10  A    between atoms: C_36  and  O_37
REMARK                            x       y       z     vdW  Elec       q    Type
REMARK                         _______ _______ _______ _____ _____    ______ ____
ROOT
ATOM      1  C   UNL     1      -5.508  -6.460  -0.052  0.00  0.00    +0.142 C 
ATOM      2  C   UNL     1      -6.042  -6.805  -1.415  0.00  0.00    +0.035 A 
ATOM      3  C   UNL     1      -6.395  -6.355  -2.692  0.00  0.00    +0.102 A 
ATOM      4  N   UNL     1      -6.828  -7.398  -3.372  0.00  0.00    -0.173 NA
ATOM      5  N   UNL     1      -6.784  -8.462  -2.652  0.00  0.00    -0.272 N 
ATOM      6  H   UNL     1      -7.053  -9.346  -2.946  0.00  0.00    +0.189 HD
ATOM      7  C   UNL     1      -6.300  -8.162  -1.410  0.00  0.00    +0.126 A 
ATOM      8  C   UNL     1      -5.949  -8.698  -0.090  0.00  0.00    +0.266 C 
ATOM      9  O   UNL     1      -6.059  -9.865   0.237  0.00  0.00    -0.268 OA
ATOM     10  N   UNL     1      -5.488  -7.717   0.708  0.00  0.00    -0.280 N 
ENDROOT
BRANCH  10  11
ATOM     11  C   UNL     1      -5.043  -7.874   2.095  0.00  0.00    +0.100 C 
ATOM     12  C   UNL     1      -6.200  -8.426   2.943  0.00  0.00    +0.047 C 
ATOM     13  C   UNL     1      -5.623  -8.876   4.316  0.00  0.00    +0.168 C 
ATOM     14  S   UNL     1      -4.048  -9.666   3.777  0.00  0.00    -0.029 S 
ATOM     15  O   UNL     1      -3.000  -9.244   4.639  0.00  0.00    -0.174 OA
ATOM     16  O   UNL     1      -4.272 -11.055   3.576  0.00  0.00    -0.174 OA
ATOM     17  C   UNL     1      -3.843  -8.851   2.142  0.00  0.00    +0.188 C 
ENDBRANCH  10  11
BRANCH   3  18
ATOM     18  C   UNL     1      -6.300  -4.960  -3.189  0.00  0.00    +0.044 A 
ATOM     19  C   UNL     1      -6.734  -3.903  -2.394  0.00  0.00    +0.017 A 
ATOM     20  C   UNL     1      -6.644  -2.607  -2.861  0.00  0.00    -0.050 A 
ATOM     21  C   UNL     1      -6.122  -2.354  -4.117  0.00  0.00    +0.007 A 
ATOM     22  C   UNL     1      -5.688  -3.396  -4.915  0.00  0.00    +0.046 A 
ATOM     23  C   UNL     1      -5.768  -4.701  -4.456  0.00  0.00    +0.126 A 
ATOM     24  C   UNL     1      -7.115  -1.464  -1.999  0.00  0.00    +0.044 C 
BRANCH  23  25
ATOM     25  O   UNL     1      -5.336  -5.726  -5.236  0.00  0.00    -0.506 OA
ATOM     26  H   UNL     1      -5.994  -6.042  -5.870  0.00  0.00    +0.292 HD
ENDBRANCH  23  25
ENDBRANCH   3  18
BRANCH   1  31
ATOM     27  C   UNL     1      -2.601  -4.046  -0.035  0.00  0.00    +0.121 A 
ATOM     28  C   UNL     1      -1.549  -4.882  -0.381  0.00  0.00    +0.045 A 
ATOM     29  C   UNL     1      -1.782  -6.222  -0.618  0.00  0.00    +0.004 A 
ATOM     30  C   UNL     1      -3.063  -6.732  -0.511  0.00  0.00    +0.006 A 
ATOM     31  C   UNL     1      -4.113  -5.902  -0.167  0.00  0.00    -0.019 A 
ATOM     32  C   UNL     1      -3.885  -4.561   0.076  0.00  0.00    +0.051 A 
BRANCH  27  33
ATOM     33  O   UNL     1      -2.374  -2.727   0.199  0.00  0.00    -0.492 OA
BRANCH  33  34
ATOM     34  C   UNL     1      -1.028  -2.266   0.065  0.00  0.00    +0.229 C 
BRANCH  34  35
ATOM     35  C   UNL     1      -0.970  -0.767   0.365  0.00  0.00    +0.041 C 
BRANCH  35  37
ATOM     36  C   UNL     1       0.530   1.225   0.521  0.00  0.00    +0.004 C 
ATOM     37  C   UNL     1       0.471  -0.274   0.221  0.00  0.00    -0.000 C 
ENDBRANCH  35  37
ENDBRANCH  34  35
ENDBRANCH  33  34
ENDBRANCH  27  33
ENDBRANCH   1  31
TORSDOF 8
