REMARK  Name = ZINC59015611
REMARK  8 active torsions:
REMARK  status: ('A' for Active; 'I' for Inactive)
REMARK    1  A    between atoms: C_1  and  C_2
REMARK    2  A    between atoms: C_5  and  C_28
REMARK    3  A    between atoms: C_6  and  N_8
REMARK    4  A    between atoms: C_9  and  C_11
REMARK    5  A    between atoms: C_11  and  S_12
REMARK    6  A    between atoms: S_12  and  C_13
REMARK    7  A    between atoms: N_18  and  N_19
REMARK    8  A    between atoms: C_20  and  C_21
REMARK                            x       y       z     vdW  Elec       q    Type
REMARK                         _______ _______ _______ _____ _____    ______ ____
ROOT
ATOM      1  C   UNL     1       0.537  -2.770   7.657  0.00  0.00    +0.211 A 
ATOM      2  N   UNL     1       0.641  -2.347   8.921  0.00  0.00    -0.186 NA
ATOM      3  C   UNL     1       0.732  -3.382   9.729  0.00  0.00    +0.232 A 
ATOM      4  N   UNL     1       0.685  -4.503   8.977  0.00  0.00    -0.245 N 
ATOM      5  N   UNL     1       0.554  -4.082   7.644  0.00  0.00    -0.144 NA
ATOM      6  N   UNL     1       0.854  -3.331  11.105  0.00  0.00    -0.205 N 
ATOM      7  H   UNL     1       0.915  -4.153  11.618  0.00  0.00    +0.177 HD
ATOM      8  H   UNL     1       0.730  -5.418   9.296  0.00  0.00    +0.192 HD
ENDROOT
BRANCH   6   9
ATOM      9  N   UNL     1       0.889  -2.093  11.760  0.00  0.00    -0.188 NA
ATOM     10  C   UNL     1       1.004  -2.045  13.052  0.00  0.00    +0.138 C 
BRANCH  10  11
ATOM     11  C   UNL     1       1.041  -0.742  13.741  0.00  0.00    -0.005 A 
ATOM     12  C   UNL     1       0.948   0.443  13.007  0.00  0.00    +0.010 A 
ATOM     13  C   UNL     1       0.983   1.658  13.658  0.00  0.00    +0.016 A 
ATOM     14  C   UNL     1       1.110   1.706  15.036  0.00  0.00    +0.018 A 
ATOM     15  C   UNL     1       1.203   0.535  15.770  0.00  0.00    +0.016 A 
ATOM     16  C   UNL     1       1.164  -0.687  15.132  0.00  0.00    +0.010 A 
ATOM     17 BR   UNL     1       1.158   3.377  15.919  0.00  0.00    -0.050 Br
ENDBRANCH  10  11
ENDBRANCH   6   9
BRANCH   1  18
ATOM     18  S   UNL     1       0.391  -1.734   6.239  0.00  0.00    -0.075 S 
BRANCH  18  19
ATOM     19  C   UNL     1       0.280  -2.900   4.854  0.00  0.00    +0.173 C 
BRANCH  19  21
ATOM     20  N   UNL     1       0.052  -2.797   2.393  0.00  0.00    -0.285 N 
ATOM     21  C   UNL     1       0.150  -2.135   3.562  0.00  0.00    +0.227 C 
ATOM     22  O   UNL     1       0.134  -0.922   3.575  0.00  0.00    -0.275 OA
ATOM     23  H   UNL     1      -0.016  -3.765   2.388  0.00  0.00    +0.155 HD
BRANCH  20  29
ATOM     24  C   UNL     1       1.264   1.227  -0.158  0.00  0.00    +0.044 C 
ATOM     25  C   UNL     1       0.628  -0.137  -0.079  0.00  0.00    -0.049 A 
ATOM     26  C   UNL     1       0.039  -0.690  -1.201  0.00  0.00    +0.004 A 
ATOM     27  C   UNL     1      -0.546  -1.941  -1.133  0.00  0.00    +0.005 A 
ATOM     28  C   UNL     1      -0.543  -2.643   0.057  0.00  0.00    -0.029 A 
ATOM     29  C   UNL     1       0.048  -2.090   1.185  0.00  0.00    +0.037 A 
ATOM     30  C   UNL     1       0.639  -0.835   1.112  0.00  0.00    +0.027 A 
ATOM     31  C   UNL     1      -1.181  -4.006   0.131  0.00  0.00    +0.045 C 
ENDBRANCH  20  29
ENDBRANCH  19  21
ENDBRANCH  18  19
ENDBRANCH   1  18
TORSDOF 6
