REMARK  Name = ZINC39337729
REMARK  12 active torsions:
REMARK  status: ('A' for Active; 'I' for Inactive)
REMARK    1  A    between atoms: C_1  and  O_2
REMARK    2  A    between atoms: O_2  and  C_3
REMARK    3  A    between atoms: C_3  and  C_4
REMARK    4  A    between atoms: N_6  and  C_7
REMARK    5  A    between atoms: C_11  and  N_33
REMARK    6  A    between atoms: N_15  and  C_22
REMARK    7  A    between atoms: C_16  and  C_18
REMARK    8  A    between atoms: C_18  and  O_20
REMARK    9  A    between atoms: O_20  and  C_21
REMARK   10  A    between atoms: C_22  and  C_23
REMARK   11  A    between atoms: C_23  and  C_24
REMARK   12  A    between atoms: N_33  and  C_34
REMARK                            x       y       z     vdW  Elec       q    Type
REMARK                         _______ _______ _______ _____ _____    ______ ____
ROOT
ATOM      1  C   UNL     1      -2.120  -4.341  -0.001  0.00  0.00    +0.138 C 
ATOM      2  C   UNL     1      -2.012  -4.870   1.410  0.00  0.00    +0.015 A 
ATOM      3  C   UNL     1      -1.077  -4.639   2.401  0.00  0.00    +0.033 A 
ATOM      4  C   UNL     1      -1.238  -5.278   3.629  0.00  0.00    +0.044 A 
ATOM      5  C   UNL     1      -2.328  -6.117   3.806  0.00  0.00    +0.107 A 
ATOM      6  N   UNL     1      -3.198  -6.312   2.838  0.00  0.00    -0.348 N 
ATOM      7  C   UNL     1      -3.081  -5.721   1.649  0.00  0.00    +0.105 A 
ATOM      8  N   UNL     1      -3.911  -5.825   0.534  0.00  0.00    -0.301 N 
ATOM      9  C   UNL     1      -3.394  -4.995  -0.562  0.00  0.00    +0.208 C 
ATOM     10  H   UNL     1      -3.949  -6.906   2.995  0.00  0.00    +0.167 HD
ENDROOT
BRANCH   1  13
ATOM     11  C   UNL     1      -1.156  -2.103   0.002  0.00  0.00    +0.239 C 
ATOM     12  O   UNL     1      -0.054  -2.610  -0.011  0.00  0.00    -0.273 OA
ATOM     13  N   UNL     1      -2.256  -2.882   0.008  0.00  0.00    -0.304 N 
ATOM     14  H   UNL     1      -3.137  -2.477   0.019  0.00  0.00    +0.149 HD
BRANCH  11  15
ATOM     15  C   UNL     1      -1.295  -0.603   0.011  0.00  0.00    +0.255 C 
BRANCH  15  17
ATOM     16  C   UNL     1      -0.017   1.425   0.010  0.00  0.00    +0.194 C 
ATOM     17  O   UNL     1       0.002  -0.004   0.002  0.00  0.00    -0.374 OA
ENDBRANCH  15  17
ENDBRANCH  11  15
ENDBRANCH   1  13
BRANCH   9  18
ATOM     18  C   UNL     1      -3.060  -5.852  -1.756  0.00  0.00    +0.330 C 
ATOM     19  O   UNL     1      -2.958  -7.049  -1.631  0.00  0.00    -0.249 OA
BRANCH  18  20
ATOM     20  O   UNL     1      -2.875  -5.284  -2.958  0.00  0.00    -0.467 OA
ATOM     21  C   UNL     1      -2.561  -6.156  -4.046  0.00  0.00    +0.280 C 
ENDBRANCH  18  20
ENDBRANCH   9  18
BRANCH   4  22
ATOM     22  N   UNL     1      -0.317  -5.077   4.664  0.00  0.00    -0.340 N 
ATOM     23  H   UNL     1       0.443  -4.488   4.530  0.00  0.00    +0.146 HD
BRANCH  22  24
ATOM     24  C   UNL     1      -0.499  -5.756   5.950  0.00  0.00    +0.072 C 
ATOM     25  C   UNL     1      -1.469  -4.950   6.809  0.00  0.00    +0.033 C 
ATOM     26  C   UNL     1      -1.897  -5.776   8.026  0.00  0.00    +0.071 C 
ATOM     27  S   UNL     1      -0.428  -6.130   9.037  0.00  0.00    -0.161 S 
ATOM     28  C   UNL     1       0.735  -6.845   7.836  0.00  0.00    +0.071 C 
ATOM     29  C   UNL     1       0.853  -5.893   6.642  0.00  0.00    +0.033 C 
ENDBRANCH  22  24
ENDBRANCH   4  22
BRANCH   8  30
ATOM     30  C   UNL     1      -5.123  -6.645   0.464  0.00  0.00    +0.112 C 
BRANCH  30  31
ATOM     31  C   UNL     1      -6.326  -5.816   0.917  0.00  0.00    +0.056 C 
BRANCH  31  32
ATOM     32  C   UNL     1      -7.573  -6.659   0.845  0.00  0.00    -0.021 A 
ATOM     33  C   UNL     1      -8.064  -7.578   1.875  0.00  0.00    +0.003 A 
ATOM     34  C   UNL     1      -7.606  -7.953   3.139  0.00  0.00    +0.010 A 
ATOM     35  C   UNL     1      -8.313  -8.861   3.876  0.00  0.00    +0.001 A 
ATOM     36  C   UNL     1      -9.484  -9.415   3.376  0.00  0.00    +0.002 A 
ATOM     37  C   UNL     1      -9.954  -9.059   2.131  0.00  0.00    +0.026 A 
ATOM     38  C   UNL     1      -9.251  -8.136   1.365  0.00  0.00    +0.047 A 
ATOM     39  N   UNL     1      -9.453  -7.588   0.118  0.00  0.00    -0.360 N 
ATOM     40  C   UNL     1      -8.447  -6.707  -0.172  0.00  0.00    +0.087 A 
ATOM     41  H   UNL     1     -10.200  -7.793  -0.467  0.00  0.00    +0.165 HD
ENDBRANCH  31  32
ENDBRANCH  30  31
ENDBRANCH   8  30
TORSDOF 10
