REMARK  Name = ZINC39672176
REMARK  7 active torsions:
REMARK  status: ('A' for Active; 'I' for Inactive)
REMARK    1  A    between atoms: C_1  and  N_2
REMARK    2  A    between atoms: C_10  and  C_12
REMARK    3  A    between atoms: C_12  and  N_13
REMARK    4  A    between atoms: C_14  and  C_16
REMARK    5  A    between atoms: C_27  and  C_29
REMARK    6  A    between atoms: C_32  and  O_35
REMARK    7  A    between atoms: O_35  and  C_36
REMARK                            x       y       z     vdW  Elec       q    Type
REMARK                         _______ _______ _______ _____ _____    ______ ____
ROOT
ATOM      1  C   UNL     1       7.116  -2.793   2.396  0.00  0.00    +0.100 C 
ATOM      2  C   UNL     1       7.260  -1.296   2.751  0.00  0.00    +0.121 C 
ATOM      3  N   UNL     1       8.533  -1.211   3.505  0.00  0.00    -0.296 N 
ATOM      4  C   UNL     1       9.443  -2.145   2.799  0.00  0.00    +0.115 C 
ATOM      5  C   UNL     1       8.550  -3.346   2.428  0.00  0.00    -0.004 C 
ATOM      6  C   UNL     1       8.671  -4.440   3.485  0.00  0.00    -0.010 C 
ATOM      7  C   UNL     1      10.091  -5.014   3.459  0.00  0.00    -0.082 C 
ATOM      8  N   UNL     1      10.375  -5.560   2.127  0.00  0.00    +0.379 N 
ATOM      9  C   UNL     1      10.348  -4.484   1.128  0.00  0.00    -0.082 C 
ATOM     10  C   UNL     1       8.939  -3.888   1.056  0.00  0.00    -0.010 C 
ATOM     11  C   UNL     1       8.803  -0.455   4.588  0.00  0.00    +0.247 C 
ATOM     12  O   UNL     1       7.916   0.185   5.119  0.00  0.00    -0.270 OA
ATOM     13  H   UNL     1      11.287  -5.991   2.129  0.00  0.00    -0.086 HD
ATOM     14  H   UNL     1       9.679  -6.252   1.893  0.00  0.00    -0.086 HD
ENDROOT
BRANCH  11  15
ATOM     15  C   UNL     1      10.176  -0.403   5.128  0.00  0.00    +0.037 A 
ATOM     16  C   UNL     1      11.267  -0.672   4.297  0.00  0.00    +0.016 A 
ATOM     17  C   UNL     1      12.546  -0.622   4.805  0.00  0.00    +0.047 A 
ATOM     18  C   UNL     1      12.752  -0.306   6.142  0.00  0.00    +0.130 A 
ATOM     19  C   UNL     1      11.670  -0.038   6.972  0.00  0.00    +0.047 A 
ATOM     20  C   UNL     1      10.388  -0.080   6.471  0.00  0.00    +0.016 A 
BRANCH  18  21
ATOM     21  O   UNL     1      14.014  -0.259   6.639  0.00  0.00    -0.406 OA
BRANCH  21  22
ATOM     22  C   UNL     1      14.155   0.072   8.022  0.00  0.00    +0.575 C 
ATOM     23  F   UNL     1      13.480  -0.875   8.800  0.00  0.00    -0.133 F 
ATOM     24  F   UNL     1      15.511   0.075   8.365  0.00  0.00    -0.133 F 
ATOM     25  F   UNL     1      13.612   1.340   8.256  0.00  0.00    -0.133 F 
ENDBRANCH  21  22
ENDBRANCH  18  21
ENDBRANCH  11  15
BRANCH   1  27
ATOM     26  N   UNL     1       5.762  -4.026   0.733  0.00  0.00    -0.311 N 
ATOM     27  C   UNL     1       6.523  -2.951   1.020  0.00  0.00    +0.218 C 
ATOM     28  O   UNL     1       6.731  -2.111   0.170  0.00  0.00    -0.275 OA
ATOM     29  H   UNL     1       5.596  -4.697   1.413  0.00  0.00    +0.149 HD
BRANCH  26  30
ATOM     30  C   UNL     1       5.186  -4.179  -0.605  0.00  0.00    +0.139 C 
BRANCH  30  40
ATOM     31  C   UNL     1       0.831  -9.021  -0.196  0.00  0.00    +0.129 C 
ATOM     32  N   UNL     1       2.159  -8.971  -0.813  0.00  0.00    -0.333 N 
ATOM     33  C   UNL     1       2.711 -10.151  -1.493  0.00  0.00    +0.105 C 
ATOM     34  C   UNL     1       4.172 -10.305  -1.052  0.00  0.00    +0.024 C 
ATOM     35  C   UNL     1       4.961  -9.082  -1.519  0.00  0.00    +0.038 C 
ATOM     36  C   UNL     1       4.268  -7.814  -1.094  0.00  0.00    -0.026 A 
ATOM     37  C   UNL     1       2.919  -7.797  -0.770  0.00  0.00    +0.033 A 
ATOM     38  C   UNL     1       2.307  -6.608  -0.391  0.00  0.00    +0.024 A 
ATOM     39  C   UNL     1       3.041  -5.439  -0.339  0.00  0.00    +0.007 A 
ATOM     40  C   UNL     1       4.385  -5.454  -0.664  0.00  0.00    -0.030 A 
ATOM     41  C   UNL     1       4.999  -6.639  -1.032  0.00  0.00    +0.010 A 
ENDBRANCH  30  40
ENDBRANCH  26  30
ENDBRANCH   1  27
TORSDOF 6
