REMARK  Name = ZINC39362944
REMARK  6 active torsions:
REMARK  status: ('A' for Active; 'I' for Inactive)
REMARK    1  A    between atoms: C_3  and  C_8
REMARK    2  A    between atoms: C_8  and  S_9
REMARK    3  A    between atoms: S_9  and  C_10
REMARK    4  A    between atoms: C_13  and  C_23
REMARK    5  A    between atoms: N_15  and  C_16
REMARK    6  A    between atoms: C_23  and  C_24
REMARK                            x       y       z     vdW  Elec       q    Type
REMARK                         _______ _______ _______ _____ _____    ______ ____
ROOT
ATOM      1  C   UNL     1       5.616   3.589   1.516  0.00  0.00    +0.180 C 
ATOM      2  N   UNL     1       6.162   3.856   0.378  0.00  0.00    -0.162 NA
ATOM      3  N   UNL     1       7.478   4.310   0.534  0.00  0.00    -0.246 N 
ATOM      4  C   UNL     1       7.743   4.309   1.983  0.00  0.00    +0.187 C 
ATOM      5  N   UNL     1       6.481   3.831   2.573  0.00  0.00    -0.258 N 
ATOM      6  H   UNL     1       8.091   4.571  -0.170  0.00  0.00    +0.170 HD
ENDROOT
BRANCH   5   7
ATOM      7  C   UNL     1       6.208   3.654   3.933  0.00  0.00    +0.038 A 
ATOM      8  C   UNL     1       6.139   4.755   4.778  0.00  0.00    +0.026 A 
ATOM      9  C   UNL     1       5.870   4.577   6.121  0.00  0.00    +0.040 A 
ATOM     10  C   UNL     1       5.668   3.304   6.626  0.00  0.00    +0.124 A 
ATOM     11  C   UNL     1       5.736   2.205   5.785  0.00  0.00    +0.040 A 
ATOM     12  C   UNL     1       6.000   2.378   4.441  0.00  0.00    +0.026 A 
ATOM     13  F   UNL     1       5.405   3.133   7.940  0.00  0.00    -0.205 F 
ENDBRANCH   5   7
BRANCH   1  14
ATOM     14  S   UNL     1       3.968   2.995   1.704  0.00  0.00    -0.084 S 
BRANCH  14  15
ATOM     15  C   UNL     1       3.346   2.877   0.004  0.00  0.00    +0.112 C 
BRANCH  15  18
ATOM     16  C   UNL     1      -0.427   2.810   0.114  0.00  0.00    +0.002 A 
ATOM     17  C   UNL     1       0.877   3.270   0.097  0.00  0.00    +0.004 A 
ATOM     18  C   UNL     1       1.926   2.374   0.022  0.00  0.00    -0.036 A 
ATOM     19  C   UNL     1       1.673   1.016  -0.038  0.00  0.00    +0.024 A 
ATOM     20  C   UNL     1       0.369   0.555  -0.021  0.00  0.00    +0.041 A 
ATOM     21  C   UNL     1      -0.681   1.452   0.055  0.00  0.00    +0.020 A 
ATOM     22 CL   UNL     1       0.051  -1.150  -0.097  0.00  0.00    -0.084 Cl
ENDBRANCH  15  18
ENDBRANCH  14  15
ENDBRANCH   1  14
BRANCH   4  23
ATOM     23  C   UNL     1       8.894   3.358   2.317  0.00  0.00    +0.097 C 
BRANCH  23  24
ATOM     24  C   UNL     1      10.173   3.890   1.723  0.00  0.00    +0.029 A 
ATOM     25  N   UNL     1      10.492   3.615   0.421  0.00  0.00    -0.311 N 
ATOM     26  C   UNL     1      11.631   4.085  -0.119  0.00  0.00    +0.327 A 
ATOM     27  O   UNL     1      11.895   3.829  -1.278  0.00  0.00    -0.247 OA
ATOM     28  N   UNL     1      12.482   4.836   0.605  0.00  0.00    -0.275 N 
ATOM     29  C   UNL     1      12.204   5.130   1.891  0.00  0.00    +0.254 A 
ATOM     30  O   UNL     1      12.973   5.809   2.546  0.00  0.00    -0.268 OA
ATOM     31  C   UNL     1      11.006   4.645   2.470  0.00  0.00    +0.091 A 
ATOM     32  H   UNL     1      13.299   5.167   0.199  0.00  0.00    +0.173 HD
ATOM     33  H   UNL     1       9.892   3.076  -0.117  0.00  0.00    +0.170 HD
ENDBRANCH  23  24
ENDBRANCH   4  23
TORSDOF 6
