REMARK  Name = ZINC36610101
REMARK  13 active torsions:
REMARK  status: ('A' for Active; 'I' for Inactive)
REMARK    1  A    between atoms: C_1  and  C_2
REMARK    2  A    between atoms: C_2  and  C_3
REMARK    3  A    between atoms: C_2  and  C_4
REMARK    4  A    between atoms: C_2  and  N_5
REMARK    5  A    between atoms: C_6  and  C_8
REMARK    6  A    between atoms: C_8  and  C_10
REMARK    7  A    between atoms: C_8  and  N_22
REMARK    8  A    between atoms: C_19  and  O_20
REMARK    9  A    between atoms: O_20  and  C_21
REMARK   10  A    between atoms: N_22  and  C_23
REMARK   11  A    between atoms: C_29  and  C_31
REMARK   12  A    between atoms: C_32  and  O_38
REMARK   13  A    between atoms: C_36  and  O_37
REMARK                            x       y       z     vdW  Elec       q    Type
REMARK                         _______ _______ _______ _____ _____    ______ ____
ROOT
ATOM      1  C   UNL     1       2.301  -0.909  -2.804  0.00  0.00    +0.202 C 
ENDROOT
BRANCH   1   2
ATOM      2  C   UNL     1       2.460  -2.308  -3.342  0.00  0.00    +0.031 A 
ATOM      3  C   UNL     1       1.567  -2.797  -4.310  0.00  0.00    -0.009 A 
ATOM      4  C   UNL     1       0.513  -2.005  -4.797  0.00  0.00    +0.009 A 
ATOM      5  C   UNL     1      -0.332  -2.512  -5.735  0.00  0.00    +0.001 A 
ATOM      6  C   UNL     1      -0.170  -3.808  -6.222  0.00  0.00    +0.001 A 
ATOM      7  C   UNL     1       0.839  -4.604  -5.774  0.00  0.00    +0.008 A 
ATOM      8  C   UNL     1       1.732  -4.115  -4.806  0.00  0.00    -0.017 A 
ATOM      9  C   UNL     1       2.786  -4.909  -4.320  0.00  0.00    +0.012 A 
ATOM     10  C   UNL     1       3.634  -4.405  -3.383  0.00  0.00    +0.046 A 
ATOM     11  C   UNL     1       3.476  -3.104  -2.896  0.00  0.00    +0.126 A 
BRANCH  11  12
ATOM     12  O   UNL     1       4.342  -2.627  -1.964  0.00  0.00    -0.495 OA
ATOM     13  C   UNL     1       5.312  -3.542  -1.452  0.00  0.00    +0.277 C 
ENDBRANCH  11  12
ENDBRANCH   1   2
BRANCH   1  15
ATOM     14  N   UNL     1       1.024  -1.631  -0.812  0.00  0.00    -0.309 N 
ATOM     15  C   UNL     1       2.084  -0.966  -1.314  0.00  0.00    +0.239 C 
ATOM     16  O   UNL     1       2.863  -0.414  -0.566  0.00  0.00    -0.273 OA
ATOM     17  H   UNL     1       0.401  -2.072  -1.410  0.00  0.00    +0.149 HD
BRANCH  14  19
ATOM     18  C   UNL     1       0.651  -0.267   1.183  0.00  0.00    +0.031 C 
ATOM     19  C   UNL     1       0.813  -1.687   0.637  0.00  0.00    +0.026 C 
ATOM     20  C   UNL     1       2.017  -2.355   1.302  0.00  0.00    +0.031 C 
ATOM     21  C   UNL     1      -0.450  -2.496   0.937  0.00  0.00    +0.031 C 
ENDBRANCH  14  19
ENDBRANCH   1  15
BRANCH   1  22
ATOM     22  N   UNL     1       3.510  -0.135  -3.092  0.00  0.00    -0.251 N 
ATOM     23  C   UNL     1       3.573   1.169  -2.753  0.00  0.00    +0.259 C 
ATOM     24  O   UNL     1       2.666   1.677  -2.122  0.00  0.00    -0.269 OA
BRANCH  22  25
ATOM     25  C   UNL     1       4.600  -0.747  -3.718  0.00  0.00    +0.038 A 
ATOM     26  C   UNL     1       4.487  -1.200  -5.026  0.00  0.00    +0.023 A 
ATOM     27  C   UNL     1       5.565  -1.805  -5.642  0.00  0.00    +0.002 A 
ATOM     28  C   UNL     1       6.757  -1.959  -4.958  0.00  0.00    +0.000 A 
ATOM     29  C   UNL     1       6.873  -1.509  -3.655  0.00  0.00    +0.002 A 
ATOM     30  C   UNL     1       5.801  -0.898  -3.036  0.00  0.00    +0.023 A 
ENDBRANCH  22  25
BRANCH  23  31
ATOM     31  C   UNL     1       4.739   1.976  -3.147  0.00  0.00    +0.120 A 
ATOM     32  C   UNL     1       4.816   2.524  -4.435  0.00  0.00    +0.133 A 
ATOM     33  C   UNL     1       5.917   3.284  -4.795  0.00  0.00    +0.046 A 
ATOM     34  C   UNL     1       6.938   3.502  -3.889  0.00  0.00    +0.007 A 
ATOM     35  C   UNL     1       6.873   2.966  -2.616  0.00  0.00    +0.046 A 
ATOM     36  C   UNL     1       5.778   2.209  -2.233  0.00  0.00    +0.133 A 
BRANCH  36  37
ATOM     37  O   UNL     1       5.713   1.689  -0.982  0.00  0.00    -0.506 OA
ATOM     38  H   UNL     1       6.173   0.844  -0.883  0.00  0.00    +0.292 HD
ENDBRANCH  36  37
BRANCH  32  39
ATOM     39  O   UNL     1       3.815   2.311  -5.327  0.00  0.00    -0.506 OA
ATOM     40  H   UNL     1       3.116   2.978  -5.300  0.00  0.00    +0.292 HD
ENDBRANCH  32  39
ENDBRANCH  23  31
ENDBRANCH   1  22
TORSDOF 9
