REMARK  Name = ZINC08790062
REMARK  8 active torsions:
REMARK  status: ('A' for Active; 'I' for Inactive)
REMARK    1  A    between atoms: C_1  and  O_2
REMARK    2  A    between atoms: O_2  and  C_3
REMARK    3  A    between atoms: C_6  and  C_9
REMARK    4  A    between atoms: C_9  and  N_10
REMARK    5  A    between atoms: C_15  and  C_31
REMARK    6  A    between atoms: C_31  and  C_32
REMARK    7  A    between atoms: C_35  and  O_39
REMARK    8  A    between atoms: C_36  and  O_38
REMARK                            x       y       z     vdW  Elec       q    Type
REMARK                         _______ _______ _______ _____ _____    ______ ____
ROOT
ATOM      1  N   UNL     1      -1.012  -2.888   1.315  0.00  0.00    -0.237 N 
ATOM      2  C   UNL     1      -2.177  -2.445   0.828  0.00  0.00    +0.224 C 
ATOM      3  O   UNL     1      -3.118  -3.144   0.519  0.00  0.00    -0.275 OA
ATOM      4  C   UNL     1      -2.137  -0.938   0.722  0.00  0.00    +0.073 C 
ATOM      5  C   UNL     1      -2.141  -0.530  -0.766  0.00  0.00    -0.053 C 
ATOM      6  C   UNL     1       0.002  -0.004   0.002  0.00  0.00    +0.050 C 
ATOM      7  C   UNL     1      -0.712  -0.580   1.231  0.00  0.00    +0.088 C 
ATOM      8  C   UNL     1      -0.108  -1.919   1.589  0.00  0.00    +0.225 C 
ATOM      9  O   UNL     1       1.004  -2.087   2.042  0.00  0.00    -0.275 OA
ATOM     10  C   UNL     1       1.458  -0.375  -0.015  0.00  0.00    -0.028 A 
ATOM     11  C   UNL     1       2.130  -1.577  -0.030  0.00  0.00    +0.004 A 
ATOM     12  C   UNL     1       3.513  -1.596  -0.045  0.00  0.00    +0.000 A 
ATOM     13  C   UNL     1       4.218  -0.406  -0.044  0.00  0.00    +0.002 A 
ATOM     14  C   UNL     1       3.549   0.799  -0.029  0.00  0.00    +0.023 A 
ATOM     15  C   UNL     1       2.157   0.828  -0.015  0.00  0.00    +0.036 A 
ATOM     16  N   UNL     1       1.266   1.904   0.000  0.00  0.00    -0.286 N 
ATOM     17  C   UNL     1      -0.018   1.500   0.010  0.00  0.00    +0.211 C 
ATOM     18  O   UNL     1      -1.001   2.211   0.019  0.00  0.00    -0.277 OA
ATOM     19  H   UNL     1       1.542   2.834   0.003  0.00  0.00    +0.155 HD
ATOM     20  N   UNL     1      -0.724  -0.534  -1.138  0.00  0.00    +0.394 N 
ATOM     21  H   UNL     1      -0.572   0.058  -1.963  0.00  0.00    -0.083 HD
ATOM     22  H   UNL     1      -0.414  -1.492  -1.343  0.00  0.00    -0.083 HD
ENDROOT
BRANCH   1  23
ATOM     23  C   UNL     1      -0.737  -4.309   1.541  0.00  0.00    +0.151 C 
BRANCH  23  27
ATOM     24  C   UNL     1       0.976  -6.007  -1.987  0.00  0.00    +0.120 A 
ATOM     25  C   UNL     1       1.796  -5.454  -1.014  0.00  0.00    +0.046 A 
ATOM     26  C   UNL     1       1.240  -4.906   0.126  0.00  0.00    +0.009 A 
ATOM     27  C   UNL     1      -0.133  -4.907   0.297  0.00  0.00    -0.029 A 
ATOM     28  C   UNL     1      -0.951  -5.462  -0.670  0.00  0.00    +0.009 A 
ATOM     29  C   UNL     1      -0.400  -6.007  -1.814  0.00  0.00    +0.046 A 
BRANCH  24  31
ATOM     30  C   UNL     1       0.617  -7.098  -4.068  0.00  0.00    +0.277 C 
ATOM     31  O   UNL     1       1.521  -6.547  -3.109  0.00  0.00    -0.495 OA
ENDBRANCH  24  31
ENDBRANCH  23  27
ENDBRANCH   1  23
BRANCH   5  32
ATOM     32  C   UNL     1      -2.939  -1.540  -1.593  0.00  0.00    +0.020 C 
BRANCH  32  33
ATOM     33  C   UNL     1      -3.034  -1.060  -3.018  0.00  0.00    -0.045 A 
ATOM     34  C   UNL     1      -4.093  -0.261  -3.407  0.00  0.00    +0.007 A 
ATOM     35  C   UNL     1      -4.182   0.186  -4.713  0.00  0.00    +0.049 A 
ATOM     36  C   UNL     1      -3.214  -0.175  -5.636  0.00  0.00    +0.158 A 
ATOM     37  C   UNL     1      -2.151  -0.983  -5.245  0.00  0.00    +0.158 A 
ATOM     38  C   UNL     1      -2.064  -1.423  -3.934  0.00  0.00    +0.052 A 
BRANCH  37  39
ATOM     39  O   UNL     1      -1.198  -1.340  -6.148  0.00  0.00    -0.503 OA
ATOM     40  H   UNL     1      -1.392  -2.162  -6.620  0.00  0.00    +0.292 HD
ENDBRANCH  37  39
BRANCH  36  41
ATOM     41  O   UNL     1      -3.302   0.261  -6.921  0.00  0.00    -0.503 OA
ATOM     42  H   UNL     1      -3.797  -0.332  -7.504  0.00  0.00    +0.292 HD
ENDBRANCH  36  41
ENDBRANCH  32  33
ENDBRANCH   5  32
TORSDOF 7
