REMARK  Name = ZINC56544231
REMARK  4 active torsions:
REMARK  status: ('A' for Active; 'I' for Inactive)
REMARK    1  A    between atoms: C_1  and  C_2
REMARK    2  A    between atoms: C_5  and  N_9
REMARK    3  A    between atoms: C_18  and  C_20
REMARK    4  A    between atoms: C_23  and  C_25
REMARK                            x       y       z     vdW  Elec       q    Type
REMARK                         _______ _______ _______ _____ _____    ______ ____
ROOT
ATOM      1  N   UNL     1       1.566  -4.738  -0.536  0.00  0.00    -0.267 N 
ATOM      2  C   UNL     1       1.034  -5.310  -1.634  0.00  0.00    +0.307 C 
ATOM      3  O   UNL     1       0.901  -4.661  -2.654  0.00  0.00    -0.252 OA
ATOM      4  N   UNL     1       0.649  -6.602  -1.602  0.00  0.00    -0.282 N 
ATOM      5  C   UNL     1       0.710  -7.369  -0.350  0.00  0.00    +0.128 C 
ATOM      6  C   UNL     1      -0.680  -7.953  -0.066  0.00  0.00    +0.127 C 
ATOM      7  N   UNL     1      -1.167  -8.619  -1.282  0.00  0.00    -0.294 N 
ATOM      8  C   UNL     1      -1.228  -7.851  -2.534  0.00  0.00    +0.127 C 
ATOM      9  C   UNL     1       0.157  -7.266  -2.817  0.00  0.00    +0.128 C 
ATOM     10  C   UNL     1      -1.552  -9.910  -1.250  0.00  0.00    +0.253 C 
ATOM     11  O   UNL     1      -1.908 -10.464  -2.273  0.00  0.00    -0.269 OA
ATOM     12  H   UNL     1       1.700  -5.263   0.268  0.00  0.00    +0.156 HD
ENDROOT
BRANCH   1  17
ATOM     13  C   UNL     1       3.024   0.747  -0.620  0.00  0.00    +0.044 C 
ATOM     14  C   UNL     1       2.637  -0.709  -0.597  0.00  0.00    -0.048 A 
ATOM     15  C   UNL     1       2.554  -1.420  -1.780  0.00  0.00    +0.005 A 
ATOM     16  C   UNL     1       2.200  -2.756  -1.763  0.00  0.00    +0.026 A 
ATOM     17  C   UNL     1       1.926  -3.385  -0.556  0.00  0.00    +0.070 A 
ATOM     18  C   UNL     1       2.010  -2.668   0.632  0.00  0.00    +0.145 A 
ATOM     19  C   UNL     1       2.370  -1.333   0.608  0.00  0.00    +0.043 A 
ATOM     20  F   UNL     1       1.744  -3.276   1.809  0.00  0.00    -0.204 F 
ENDBRANCH   1  17
BRANCH  10  21
ATOM     21  C   UNL     1      -1.541 -10.647   0.018  0.00  0.00    +0.074 A 
ATOM     22  C   UNL     1      -1.517 -12.016   0.232  0.00  0.00    +0.021 A 
ATOM     23  C   UNL     1      -1.512 -12.414   1.548  0.00  0.00    +0.011 A 
ATOM     24  C   UNL     1      -1.531 -11.471   2.522  0.00  0.00    -0.013 A 
ATOM     25  S   UNL     1      -1.547 -10.015   1.685  0.00  0.00    -0.089 S 
ATOM     26  C   UNL     1      -1.530 -11.682   4.014  0.00  0.00    +0.051 C 
ENDBRANCH  10  21
TORSDOF 2
