REMARK  Name = ZINC39656733
REMARK  5 active torsions:
REMARK  status: ('A' for Active; 'I' for Inactive)
REMARK    1  A    between atoms: C_1  and  C_2
REMARK    2  A    between atoms: C_2  and  C_4
REMARK    3  A    between atoms: C_2  and  N_11
REMARK    4  A    between atoms: C_12  and  C_14
REMARK    5  A    between atoms: C_25  and  C_27
REMARK                            x       y       z     vdW  Elec       q    Type
REMARK                         _______ _______ _______ _____ _____    ______ ____
ROOT
ATOM      1  C   UNL     1      -3.442  -1.176   1.184  0.00  0.00    +0.100 C 
ATOM      2  C   UNL     1      -4.400  -0.144   0.549  0.00  0.00    +0.121 C 
ATOM      3  N   UNL     1      -5.639  -0.238   1.355  0.00  0.00    -0.296 N 
ATOM      4  C   UNL     1      -5.161  -0.406   2.748  0.00  0.00    +0.115 C 
ATOM      5  C   UNL     1      -3.944  -1.345   2.628  0.00  0.00    -0.004 C 
ATOM      6  C   UNL     1      -2.859  -0.930   3.617  0.00  0.00    -0.010 C 
ATOM      7  C   UNL     1      -3.361  -1.161   5.045  0.00  0.00    -0.082 C 
ATOM      8  N   UNL     1      -3.698  -2.579   5.223  0.00  0.00    +0.379 N 
ATOM      9  C   UNL     1      -4.806  -2.946   4.333  0.00  0.00    -0.082 C 
ATOM     10  C   UNL     1      -4.365  -2.790   2.875  0.00  0.00    -0.010 C 
ATOM     11  C   UNL     1      -6.914  -0.183   0.920  0.00  0.00    +0.248 C 
ATOM     12  O   UNL     1      -7.148  -0.139  -0.272  0.00  0.00    -0.270 OA
ATOM     13  H   UNL     1      -2.891  -3.145   5.005  0.00  0.00    -0.086 HD
ATOM     14  H   UNL     1      -3.970  -2.741   6.181  0.00  0.00    -0.086 HD
ENDROOT
BRANCH  11  15
ATOM     15  C   UNL     1      -8.027  -0.175   1.893  0.00  0.00    +0.055 A 
ATOM     16  C   UNL     1      -7.883   0.478   3.118  0.00  0.00    +0.014 A 
ATOM     17  C   UNL     1      -8.925   0.482   4.021  0.00  0.00    +0.001 A 
ATOM     18  C   UNL     1     -10.113  -0.161   3.715  0.00  0.00    +0.001 A 
ATOM     19  C   UNL     1     -10.263  -0.811   2.504  0.00  0.00    +0.021 A 
ATOM     20  C   UNL     1      -9.229  -0.817   1.588  0.00  0.00    +0.053 A 
ATOM     21 CL   UNL     1      -9.422  -1.627   0.064  0.00  0.00    -0.083 Cl
ENDBRANCH  11  15
BRANCH   1  23
ATOM     22  N   UNL     1      -0.993  -1.508   1.287  0.00  0.00    -0.308 N 
ATOM     23  C   UNL     1      -2.028  -0.653   1.178  0.00  0.00    +0.219 C 
ATOM     24  O   UNL     1      -1.823   0.538   1.075  0.00  0.00    -0.275 OA
ATOM     25  H   UNL     1      -1.157  -2.461   1.370  0.00  0.00    +0.149 HD
BRANCH  22  27
ATOM     26  C   UNL     1       0.859  -0.837  -0.163  0.00  0.00    +0.033 C 
ATOM     27  C   UNL     1       0.381  -1.000   1.282  0.00  0.00    +0.100 C 
BRANCH  27  28
ATOM     28  C   UNL     1       1.280  -1.973   2.001  0.00  0.00    -0.027 A 
ATOM     29  C   UNL     1       1.110  -3.333   1.821  0.00  0.00    +0.006 A 
ATOM     30  C   UNL     1       1.934  -4.226   2.480  0.00  0.00    +0.015 A 
ATOM     31  C   UNL     1       2.929  -3.758   3.319  0.00  0.00    +0.018 A 
ATOM     32  C   UNL     1       3.099  -2.397   3.498  0.00  0.00    +0.015 A 
ATOM     33  C   UNL     1       2.278  -1.505   2.835  0.00  0.00    +0.006 A 
ATOM     34 BR   UNL     1       4.057  -4.979   4.221  0.00  0.00    -0.050 Br
ENDBRANCH  27  28
ENDBRANCH  22  27
ENDBRANCH   1  23
TORSDOF 4
