REMARK  Name = ZINC63697941
REMARK  12 active torsions:
REMARK  status: ('A' for Active; 'I' for Inactive)
REMARK    1  A    between atoms: C_1  and  C_2
REMARK    2  A    between atoms: C_2  and  O_3
REMARK    3  A    between atoms: O_3  and  C_4
REMARK    4  A    between atoms: C_7  and  C_10
REMARK    5  A    between atoms: C_25  and  C_27
REMARK    6  A    between atoms: C_27  and  C_28
REMARK    7  A    between atoms: C_32  and  O_37
REMARK    8  A    between atoms: C_33  and  O_34
REMARK    9  A    between atoms: O_34  and  C_35
REMARK   10  A    between atoms: C_35  and  C_36
REMARK   11  A    between atoms: O_37  and  C_38
REMARK   12  A    between atoms: C_38  and  C_39
REMARK                            x       y       z     vdW  Elec       q    Type
REMARK                         _______ _______ _______ _____ _____    ______ ____
ROOT
ATOM      1  C   UNL     1       1.091  -6.042  -1.843  0.00  0.00    +0.133 C 
ATOM      2  C   UNL     1       2.530  -6.476  -1.540  0.00  0.00    +0.131 C 
ATOM      3  C   UNL     1       2.660  -7.915  -2.021  0.00  0.00    -0.035 C 
ATOM      4  C   UNL     1       3.068  -8.624  -0.975  0.00  0.00    -0.001 A 
ATOM      5  C   UNL     1       3.432 -10.044  -0.835  0.00  0.00    +0.010 A 
ATOM      6  C   UNL     1       3.803 -10.448   0.408  0.00  0.00    +0.001 A 
ATOM      7  C   UNL     1       3.847  -9.593   1.514  0.00  0.00    +0.002 A 
ATOM      8  C   UNL     1       3.534  -8.273   1.476  0.00  0.00    +0.026 A 
ATOM      9  C   UNL     1       3.134  -7.729   0.221  0.00  0.00    +0.043 A 
ATOM     10  N   UNL     1       2.803  -6.491  -0.102  0.00  0.00    -0.375 N 
ATOM     11  C   UNL     1       2.287  -8.340  -3.420  0.00  0.00    +0.052 C 
ATOM     12  C   UNL     1       0.872  -7.794  -3.686  0.00  0.00    +0.113 C 
ATOM     13  N   UNL     1       0.795  -6.399  -3.239  0.00  0.00    -0.292 N 
ATOM     14  C   UNL     1       0.451  -5.436  -4.116  0.00  0.00    +0.221 C 
ATOM     15  O   UNL     1       0.489  -4.270  -3.782  0.00  0.00    -0.275 OA
ATOM     16  H   UNL     1       2.744  -5.729   0.495  0.00  0.00    +0.160 HD
ENDROOT
BRANCH   1  20
ATOM     17  C   UNL     1       0.714  -1.817  -1.321  0.00  0.00    +0.121 A 
ATOM     18  C   UNL     1       1.953  -2.375  -1.600  0.00  0.00    +0.046 A 
ATOM     19  C   UNL     1       2.073  -3.741  -1.768  0.00  0.00    +0.009 A 
ATOM     20  C   UNL     1       0.958  -4.552  -1.659  0.00  0.00    -0.025 A 
ATOM     21  C   UNL     1      -0.278  -3.999  -1.380  0.00  0.00    +0.009 A 
ATOM     22  C   UNL     1      -0.401  -2.634  -1.205  0.00  0.00    +0.046 A 
BRANCH  17  23
ATOM     23  O   UNL     1       0.594  -0.474  -1.154  0.00  0.00    -0.492 OA
BRANCH  23  25
ATOM     24  C   UNL     1       1.454   1.783  -1.069  0.00  0.00    +0.048 C 
ATOM     25  C   UNL     1       1.785   0.305  -1.288  0.00  0.00    +0.225 C 
ENDBRANCH  23  25
ENDBRANCH  17  23
ENDBRANCH   1  20
BRANCH  14  26
ATOM     26  C   UNL     1       0.019  -5.806  -5.511  0.00  0.00    +0.135 C 
BRANCH  26  27
ATOM     27  C   UNL     1      -0.309  -4.555  -6.285  0.00  0.00    +0.007 A 
ATOM     28  C   UNL     1      -1.615  -4.104  -6.349  0.00  0.00    +0.008 A 
ATOM     29  C   UNL     1      -1.919  -2.957  -7.058  0.00  0.00    +0.004 A 
ATOM     30  C   UNL     1      -0.918  -2.255  -7.705  0.00  0.00    +0.049 A 
ATOM     31  C   UNL     1       0.392  -2.701  -7.644  0.00  0.00    +0.162 A 
ATOM     32  C   UNL     1       0.699  -3.853  -6.926  0.00  0.00    +0.165 A 
BRANCH  32  33
ATOM     33  O   UNL     1       1.984  -4.291  -6.858  0.00  0.00    -0.488 OA
BRANCH  33  34
ATOM     34  C   UNL     1       2.415  -5.197  -7.876  0.00  0.00    +0.226 C 
ATOM     35  C   UNL     1       3.877  -5.577  -7.635  0.00  0.00    +0.048 C 
ENDBRANCH  33  34
ENDBRANCH  32  33
BRANCH  31  36
ATOM     36  O   UNL     1       1.376  -2.011  -8.280  0.00  0.00    -0.489 OA
BRANCH  36  37
ATOM     37  C   UNL     1       0.988  -0.835  -8.993  0.00  0.00    +0.226 C 
ATOM     38  C   UNL     1       2.222  -0.200  -9.638  0.00  0.00    +0.048 C 
ENDBRANCH  36  37
ENDBRANCH  31  36
ENDBRANCH  26  27
ENDBRANCH  14  26
TORSDOF 9
