REMARK  Name = ZINC35538878
REMARK  5 active torsions:
REMARK  status: ('A' for Active; 'I' for Inactive)
REMARK    1  A    between atoms: C_4  and  C_7
REMARK    2  A    between atoms: C_10  and  C_31
REMARK    3  A    between atoms: C_15  and  N_17
REMARK    4  A    between atoms: N_17  and  S_18
REMARK    5  A    between atoms: S_18  and  C_21
REMARK                            x       y       z     vdW  Elec       q    Type
REMARK                         _______ _______ _______ _____ _____    ______ ____
ROOT
ATOM      1  C   UNL     1       3.711  -0.707  -0.038  0.00  0.00    +0.147 C 
ATOM      2  C   UNL     1       3.791  -1.597  -1.284  0.00  0.00    +0.087 C 
ATOM      3  C   UNL     1       2.966  -2.842  -1.112  0.00  0.00    +0.055 C 
ATOM      4  N   UNL     1       2.819  -3.435   0.042  0.00  0.00    -0.217 NA
ATOM      5  C   UNL     1       3.374  -2.865   1.145  0.00  0.00    +0.228 A 
ATOM      6  N   UNL     1       3.812  -1.568   1.141  0.00  0.00    -0.221 N 
ATOM      7  N   UNL     1       4.320  -1.311   2.410  0.00  0.00    -0.130 NA
ATOM      8  C   UNL     1       4.158  -2.413   3.114  0.00  0.00    +0.255 A 
ATOM      9  N   UNL     1       3.576  -3.346   2.348  0.00  0.00    -0.293 N 
ATOM     10  H   UNL     1       3.340  -4.241   2.638  0.00  0.00    +0.172 HD
ENDROOT
BRANCH   1  14
ATOM     11  C   UNL     1      -0.017   1.378   0.010  0.00  0.00    +0.000 A 
ATOM     12  C   UNL     1       1.171   2.086   0.002  0.00  0.00    +0.000 A 
ATOM     13  C   UNL     1       2.377   1.411  -0.013  0.00  0.00    +0.006 A 
ATOM     14  C   UNL     1       2.396   0.029  -0.020  0.00  0.00    -0.023 A 
ATOM     15  C   UNL     1       1.208  -0.679  -0.012  0.00  0.00    +0.006 A 
ATOM     16  C   UNL     1       0.002  -0.004   0.002  0.00  0.00    +0.000 A 
ENDBRANCH   1  14
BRANCH   3  17
ATOM     17  C   UNL     1       2.298  -3.415  -2.291  0.00  0.00    -0.004 A 
ATOM     18  C   UNL     1       2.440  -2.808  -3.544  0.00  0.00    +0.010 A 
ATOM     19  C   UNL     1       1.811  -3.352  -4.644  0.00  0.00    +0.001 A 
ATOM     20  C   UNL     1       1.041  -4.494  -4.511  0.00  0.00    +0.000 A 
ATOM     21  C   UNL     1       0.896  -5.100  -3.276  0.00  0.00    +0.001 A 
ATOM     22  C   UNL     1       1.523  -4.572  -2.167  0.00  0.00    +0.010 A 
ENDBRANCH   3  17
BRANCH   8  23
ATOM     23  N   UNL     1       4.535  -2.582   4.447  0.00  0.00    -0.058 NA
BRANCH  23  24
ATOM     24  S   UNL     1       5.248  -1.335   5.270  0.00  0.00    +0.094 S 
ATOM     25  O   UNL     1       6.510  -1.112   4.655  0.00  0.00    -0.148 OA
ATOM     26  O   UNL     1       4.268  -0.314   5.390  0.00  0.00    -0.148 OA
BRANCH  24  27
ATOM     27  C   UNL     1       5.579  -1.910   6.903  0.00  0.00    +0.111 A 
ATOM     28  C   UNL     1       4.613  -1.751   7.895  0.00  0.00    +0.029 A 
ATOM     29  C   UNL     1       4.836  -2.183   9.166  0.00  0.00    +0.010 A 
ATOM     30  C   UNL     1       6.058  -2.801   9.486  0.00  0.00    -0.018 A 
ATOM     31  C   UNL     1       6.324  -3.261  10.787  0.00  0.00    +0.008 A 
ATOM     32  C   UNL     1       7.518  -3.855  11.060  0.00  0.00    +0.001 A 
ATOM     33  C   UNL     1       8.483  -4.015  10.067  0.00  0.00    +0.001 A 
ATOM     34  C   UNL     1       8.260  -3.582   8.796  0.00  0.00    +0.008 A 
ATOM     35  C   UNL     1       7.039  -2.964   8.477  0.00  0.00    -0.016 A 
ATOM     36  C   UNL     1       6.770  -2.509   7.174  0.00  0.00    +0.037 A 
ENDBRANCH  24  27
ENDBRANCH  23  24
ENDBRANCH   8  23
TORSDOF 5
