REMARK  Name = ZINC28054859
REMARK  2 active torsions:
REMARK  status: ('A' for Active; 'I' for Inactive)
REMARK    1  A    between atoms: C_5  and  C_7
REMARK    2  A    between atoms: C_24  and  C_26
REMARK                            x       y       z     vdW  Elec       q    Type
REMARK                         _______ _______ _______ _____ _____    ______ ____
ROOT
ATOM      1  C   UNL     1       0.314   1.527  -0.147  0.00  0.00    +0.237 C 
ATOM      2  C   UNL     1       1.806   1.341  -0.305  0.00  0.00    +0.026 C 
ATOM      3  C   UNL     1       2.622   2.358  -0.019  0.00  0.00    +0.050 C 
ATOM      4  C   UNL     1       2.025   3.630   0.452  0.00  0.00    +0.038 A 
ATOM      5  C   UNL     1       2.740   4.821   0.433  0.00  0.00    +0.013 A 
ATOM      6  C   UNL     1       2.143   5.981   0.886  0.00  0.00    +0.001 A 
ATOM      7  C   UNL     1       0.840   5.960   1.353  0.00  0.00    +0.004 A 
ATOM      8  C   UNL     1       0.120   4.779   1.373  0.00  0.00    +0.046 A 
ATOM      9  C   UNL     1       0.705   3.611   0.923  0.00  0.00    +0.131 A 
ATOM     10  O   UNL     1       0.031   2.433   0.919  0.00  0.00    -0.479 OA
ATOM     11  N   UNL     1       4.013   2.257  -0.141  0.00  0.00    -0.282 N 
ATOM     12  C   UNL     1       4.546   0.988  -0.293  0.00  0.00    +0.240 A 
ATOM     13  N   UNL     1       5.770   0.553  -0.199  0.00  0.00    -0.092 NA
ATOM     14  N   UNL     1       5.809  -0.719  -0.409  0.00  0.00    -0.021 NA
ATOM     15  N   UNL     1       4.621  -1.172  -0.652  0.00  0.00    -0.042 NA
ATOM     16  N   UNL     1       3.758  -0.079  -0.590  0.00  0.00    -0.201 N 
ATOM     17  C   UNL     1       2.318   0.006  -0.787  0.00  0.00    +0.174 C 
ATOM     18  H   UNL     1       4.634   3.164  -0.115  0.00  0.00    +0.155 HD
ENDROOT
BRANCH   1  23
ATOM     19  C   UNL     1      -0.711   3.934  -2.868  0.00  0.00    +0.001 A 
ATOM     20  C   UNL     1      -1.304   3.083  -3.783  0.00  0.00    +0.003 A 
ATOM     21  C   UNL     1      -1.374   1.728  -3.522  0.00  0.00    +0.039 A 
ATOM     22  C   UNL     1      -0.846   1.222  -2.346  0.00  0.00    +0.130 A 
ATOM     23  C   UNL     1      -0.257   2.075  -1.429  0.00  0.00    +0.032 A 
ATOM     24  C   UNL     1      -0.188   3.431  -1.692  0.00  0.00    +0.010 A 
ATOM     25  F   UNL     1      -0.909  -0.104  -2.092  0.00  0.00    -0.205 F 
ENDBRANCH   1  23
BRANCH  17  26
ATOM     26  C   UNL     1       2.004  -0.150  -2.252  0.00  0.00    -0.019 A 
ATOM     27  C   UNL     1       2.365   0.841  -3.145  0.00  0.00    +0.009 A 
ATOM     28  C   UNL     1       2.082   0.697  -4.490  0.00  0.00    +0.039 A 
ATOM     29  C   UNL     1       1.427  -0.437  -4.942  0.00  0.00    +0.123 A 
ATOM     30  C   UNL     1       1.062  -1.427  -4.045  0.00  0.00    +0.039 A 
ATOM     31  C   UNL     1       1.351  -1.283  -2.702  0.00  0.00    +0.009 A 
ATOM     32  F   UNL     1       1.146  -0.577  -6.256  0.00  0.00    -0.205 F 
ENDBRANCH  17  26
TORSDOF 2
