REMARK  Name = ZINC31675230
REMARK  6 active torsions:
REMARK  status: ('A' for Active; 'I' for Inactive)
REMARK    1  A    between atoms: C_9  and  O_13
REMARK    2  A    between atoms: C_10  and  C_11
REMARK    3  A    between atoms: O_13  and  C_14
REMARK    4  A    between atoms: C_14  and  C_15
REMARK    5  A    between atoms: N_17  and  C_18
REMARK    6  A    between atoms: C_19  and  C_27
REMARK                            x       y       z     vdW  Elec       q    Type
REMARK                         _______ _______ _______ _____ _____    ______ ____
ROOT
ATOM      1  C   UNL     1       6.161  -4.751  -0.076  0.00  0.00    +0.255 C 
ATOM      2  O   UNL     1       7.130  -4.021  -0.081  0.00  0.00    -0.272 OA
ATOM      3  N   UNL     1       6.325  -6.088  -0.083  0.00  0.00    -0.277 N 
ATOM      4  H   UNL     1       5.551  -6.672  -0.078  0.00  0.00    +0.155 HD
ENDROOT
BRANCH   3   5
ATOM      5  C   UNL     1       7.602  -6.630  -0.097  0.00  0.00    +0.084 A 
ATOM      6  C   UNL     1       7.959  -7.969  -0.111  0.00  0.00    +0.068 A 
ATOM      7  C   UNL     1       9.378  -8.278  -0.123  0.00  0.00    -0.023 A 
ATOM      8  C   UNL     1      10.180  -7.191  -0.119  0.00  0.00    -0.004 A 
ATOM      9  S   UNL     1       9.069  -5.814  -0.107  0.00  0.00    -0.077 S 
ATOM     10  C   UNL     1      11.677  -7.178  -0.127  0.00  0.00    +0.043 C 
ATOM     11  C   UNL     1      12.174  -8.584   0.239  0.00  0.00    +0.005 C 
ATOM     12  C   UNL     1      11.412  -9.613  -0.602  0.00  0.00    +0.005 C 
ATOM     13  C   UNL     1       9.955  -9.686  -0.141  0.00  0.00    +0.037 C 
BRANCH   6  14
ATOM     14  C   UNL     1       6.947  -9.030  -0.113  0.00  0.00    +0.244 C 
ATOM     15  O   UNL     1       6.519  -9.461  -1.168  0.00  0.00    -0.270 OA
ATOM     16  N   UNL     1       6.489  -9.527   1.053  0.00  0.00    -0.325 N 
ATOM     17  H   UNL     1       6.830  -9.184   1.893  0.00  0.00    +0.145 HD
ATOM     18  H   UNL     1       5.820 -10.229   1.051  0.00  0.00    +0.145 HD
ENDBRANCH   6  14
ENDBRANCH   3   5
BRANCH   1  19
ATOM     19  C   UNL     1       4.774  -4.162  -0.061  0.00  0.00    +0.324 C 
BRANCH  19  20
ATOM     20  O   UNL     1       4.862  -2.736  -0.055  0.00  0.00    -0.482 OA
BRANCH  20  29
ATOM     21  C   UNL     1      -0.016   1.358   0.009  0.00  0.00    +0.001 A 
ATOM     22  C   UNL     1       1.167   2.091   0.002  0.00  0.00    +0.001 A 
ATOM     23  C   UNL     1       2.378   1.463  -0.013  0.00  0.00    +0.009 A 
ATOM     24  C   UNL     1       2.433   0.066  -0.021  0.00  0.00    -0.004 A 
ATOM     25  C   UNL     1       1.232  -0.682  -0.013  0.00  0.00    -0.017 A 
ATOM     26  C   UNL     1       0.002  -0.004   0.002  0.00  0.00    +0.008 A 
ATOM     27  C   UNL     1       1.289  -2.089  -0.020  0.00  0.00    +0.012 A 
ATOM     28  C   UNL     1       2.482  -2.738  -0.034  0.00  0.00    +0.047 A 
ATOM     29  C   UNL     1       3.695  -2.048  -0.042  0.00  0.00    +0.132 A 
ATOM     30  C   UNL     1       3.712  -0.648  -0.036  0.00  0.00    +0.063 A 
BRANCH  30  31
ATOM     31  C   UNL     1       4.976   0.084  -0.045  0.00  0.00    +0.263 C 
ATOM     32  O   UNL     1       6.028  -0.521  -0.058  0.00  0.00    -0.296 OA
ENDBRANCH  30  31
ENDBRANCH  20  29
ENDBRANCH  19  20
ENDBRANCH   1  19
TORSDOF 6
