REMARK  Name = ZINC10109442
REMARK  9 active torsions:
REMARK  status: ('A' for Active; 'I' for Inactive)
REMARK    1  A    between atoms: C_1  and  C_2
REMARK    2  A    between atoms: C_2  and  C_3
REMARK    3  A    between atoms: C_2  and  C_4
REMARK    4  A    between atoms: C_4  and  C_6
REMARK    5  A    between atoms: C_4  and  N_62
REMARK    6  A    between atoms: C_17  and  C_18
REMARK    7  A    between atoms: C_17  and  N_62
REMARK    8  A    between atoms: N_20  and  C_21
REMARK    9  A    between atoms: C_22  and  C_30
REMARK                            x       y       z     vdW  Elec       q    Type
REMARK                         _______ _______ _______ _____ _____    ______ ____
ROOT
ATOM      1  C   UNL     1      -3.444   2.938   2.090  0.00  0.00    +0.016 C 
ENDROOT
BRANCH   1   2
ATOM      2  C   UNL     1      -4.177   3.490   3.286  0.00  0.00    +0.201 C 
ATOM      3  O   UNL     1      -4.231   2.847   4.313  0.00  0.00    -0.278 OA
ATOM      4  N   UNL     1      -4.772   4.696   3.213  0.00  0.00    -0.281 N 
ATOM      5  H   UNL     1      -4.729   5.210   2.391  0.00  0.00    +0.155 HD
BRANCH   4   6
ATOM      6  C   UNL     1      -5.447   5.204   4.313  0.00  0.00    +0.084 A 
ATOM      7  C   UNL     1      -6.111   6.416   4.433  0.00  0.00    +0.068 A 
ATOM      8  C   UNL     1      -6.747   6.711   5.706  0.00  0.00    -0.023 A 
ATOM      9  C   UNL     1      -6.608   5.756   6.652  0.00  0.00    -0.004 A 
ATOM     10  S   UNL     1      -5.659   4.481   5.874  0.00  0.00    -0.077 S 
ATOM     11  C   UNL     1      -7.146   5.786   8.050  0.00  0.00    +0.043 C 
ATOM     12  C   UNL     1      -7.563   7.227   8.378  0.00  0.00    +0.005 C 
ATOM     13  C   UNL     1      -8.403   7.773   7.220  0.00  0.00    +0.005 C 
ATOM     14  C   UNL     1      -7.516   7.994   5.993  0.00  0.00    +0.037 C 
BRANCH   7  15
ATOM     15  C   UNL     1      -6.173   7.363   3.316  0.00  0.00    +0.244 C 
ATOM     16  O   UNL     1      -7.089   7.303   2.516  0.00  0.00    -0.270 OA
ATOM     17  N   UNL     1      -5.216   8.301   3.173  0.00  0.00    -0.325 N 
ATOM     18  H   UNL     1      -4.486   8.350   3.811  0.00  0.00    +0.145 HD
ATOM     19  H   UNL     1      -5.257   8.928   2.434  0.00  0.00    +0.145 HD
ENDBRANCH   7  15
ENDBRANCH   4   6
ENDBRANCH   1   2
BRANCH   1  20
ATOM     20  N   UNL     1      -2.889   1.615   2.432  0.00  0.00    +0.389 N 
ATOM     21  H   UNL     1      -2.242   1.712   3.223  0.00  0.00    -0.084 HD
ATOM     22  H   UNL     1      -3.655   0.983   2.692  0.00  0.00    -0.084 HD
BRANCH  20  23
ATOM     23  C   UNL     1      -2.164   1.050   1.278  0.00  0.00    -0.038 C 
BRANCH  23  24
ATOM     24  C   UNL     1      -2.144  -0.453   1.393  0.00  0.00    -0.057 A 
ATOM     25  C   UNL     1      -1.946  -1.046   2.626  0.00  0.00    +0.006 A 
ATOM     26  C   UNL     1      -1.933  -2.425   2.741  0.00  0.00    +0.049 A 
ATOM     27  C   UNL     1      -2.107  -3.209   1.613  0.00  0.00    +0.162 A 
ATOM     28  C   UNL     1      -2.301  -2.614   0.375  0.00  0.00    +0.162 A 
ATOM     29  C   UNL     1      -2.319  -1.233   0.265  0.00  0.00    +0.051 A 
ATOM     30  O   UNL     1      -2.473  -3.395  -0.730  0.00  0.00    -0.488 OA
ATOM     31  C   UNL     1      -1.330  -4.142  -1.151  0.00  0.00    +0.232 C 
ATOM     32  C   UNL     1      -1.225  -5.449  -0.380  0.00  0.00    +0.082 C 
ATOM     33  C   UNL     1      -0.977  -5.227   1.103  0.00  0.00    +0.232 C 
ATOM     34  O   UNL     1      -2.091  -4.570   1.711  0.00  0.00    -0.488 OA
ENDBRANCH  23  24
BRANCH  23  36
ATOM     35  C   UNL     1      -0.013   1.086   0.008  0.00  0.00    +0.006 C 
ATOM     36  C   UNL     1      -0.729   1.579   1.267  0.00  0.00    -0.027 C 
ATOM     37  C   UNL     1       0.011   1.072   2.506  0.00  0.00    +0.006 C 
ENDBRANCH  23  36
ENDBRANCH  20  23
ENDBRANCH   1  20
TORSDOF 7
