REMARK  Name = ZINC04985703
REMARK  6 active torsions:
REMARK  status: ('A' for Active; 'I' for Inactive)
REMARK    1  A    between atoms: C_1  and  C_2
REMARK    2  A    between atoms: C_2  and  C_4
REMARK    3  A    between atoms: C_2  and  S_11
REMARK    4  A    between atoms: N_9  and  C_10
REMARK    5  A    between atoms: S_11  and  C_12
REMARK    6  A    between atoms: N_22  and  C_23
REMARK                            x       y       z     vdW  Elec       q    Type
REMARK                         _______ _______ _______ _____ _____    ______ ____
ROOT
ATOM      1  C   UNL     1      -2.391   0.813   1.334  0.00  0.00    +0.173 A 
ATOM      2  N   UNL     1      -2.563   0.034   0.294  0.00  0.00    -0.223 NA
ATOM      3  C   UNL     1      -3.714  -0.653   0.108  0.00  0.00    +0.080 A 
ATOM      4  C   UNL     1      -3.900  -1.485  -1.000  0.00  0.00    +0.048 A 
ATOM      5  C   UNL     1      -5.089  -2.164  -1.148  0.00  0.00    +0.043 A 
ATOM      6  C   UNL     1      -6.106  -2.032  -0.209  0.00  0.00    +0.021 A 
ATOM      7  C   UNL     1      -5.948  -1.225   0.883  0.00  0.00    +0.017 A 
ATOM      8  C   UNL     1      -4.754  -0.525   1.057  0.00  0.00    +0.065 A 
ATOM      9  C   UNL     1      -4.534   0.355   2.212  0.00  0.00    +0.263 A 
ATOM     10  O   UNL     1      -5.391   0.506   3.063  0.00  0.00    -0.267 OA
ATOM     11  N   UNL     1      -3.341   0.988   2.299  0.00  0.00    -0.284 N 
ATOM     12 CL   UNL     1      -5.321  -3.197  -2.524  0.00  0.00    -0.083 Cl
ENDROOT
BRANCH  11  13
ATOM     13  C   UNL     1      -3.070   1.874   3.434  0.00  0.00    +0.093 C 
ATOM     14  C   UNL     1      -3.158   1.076   4.736  0.00  0.00    +0.025 C 
ATOM     15  C   UNL     1      -2.874   2.000   5.921  0.00  0.00    +0.002 C 
ATOM     16  C   UNL     1      -3.905   3.130   5.945  0.00  0.00    +0.000 C 
ATOM     17  C   UNL     1      -3.817   3.929   4.643  0.00  0.00    +0.002 C 
ATOM     18  C   UNL     1      -4.101   3.004   3.457  0.00  0.00    +0.025 C 
ENDBRANCH  11  13
BRANCH   1  19
ATOM     19  S   UNL     1      -0.860   1.669   1.497  0.00  0.00    -0.075 S 
BRANCH  19  21
ATOM     20  C   UNL     1      -0.753   1.593  -1.232  0.00  0.00    +0.029 C 
ATOM     21  C   UNL     1      -0.013   1.086   0.008  0.00  0.00    +0.137 C 
BRANCH  21  22
ATOM     22  C   UNL     1       1.401   1.607  -0.003  0.00  0.00    +0.233 C 
ATOM     23  O   UNL     1       1.698   2.568   0.675  0.00  0.00    -0.274 OA
ATOM     24  N   UNL     1       2.336   1.006  -0.765  0.00  0.00    -0.239 N 
ATOM     25  C   UNL     1       3.600   1.472  -0.775  0.00  0.00    +0.306 C 
ATOM     26  O   UNL     1       3.897   2.436  -0.096  0.00  0.00    -0.252 OA
ATOM     27  N   UNL     1       4.535   0.871  -1.537  0.00  0.00    -0.302 N 
ATOM     28  C   UNL     1       5.909   1.378  -1.548  0.00  0.00    +0.129 C 
ATOM     29  H   UNL     1       2.098   0.237  -1.307  0.00  0.00    +0.159 HD
ATOM     30  H   UNL     1       4.297   0.102  -2.079  0.00  0.00    +0.150 HD
ENDBRANCH  21  22
ENDBRANCH  19  21
ENDBRANCH   1  19
TORSDOF 4
