REMARK  Name = ZINC40147565
REMARK  4 active torsions:
REMARK  status: ('A' for Active; 'I' for Inactive)
REMARK    1  A    between atoms: C_14  and  C_15
REMARK    2  A    between atoms: N_16  and  N_17
REMARK    3  A    between atoms: C_22  and  C_25
REMARK    4  A    between atoms: C_25  and  C_26
REMARK                            x       y       z     vdW  Elec       q    Type
REMARK                         _______ _______ _______ _____ _____    ______ ____
ROOT
ATOM      1  C   UNL     1       4.926   0.211  -0.046  0.00  0.00    +0.144 C 
ATOM      2  N   UNL     1       6.084  -0.397   0.038  0.00  0.00    -0.155 NA
ENDROOT
BRANCH   1  16
ATOM      3  C   UNL     1       3.823  -4.741  -0.115  0.00  0.00    +0.001 A 
ATOM      4  C   UNL     1       5.005  -4.003  -0.124  0.00  0.00    +0.001 A 
ATOM      5  C   UNL     1       4.996  -2.642  -0.100  0.00  0.00    +0.009 A 
ATOM      6  C   UNL     1       3.771  -1.956  -0.065  0.00  0.00    -0.009 A 
ATOM      7  C   UNL     1       2.528  -2.729  -0.055  0.00  0.00    -0.017 A 
ATOM      8  C   UNL     1       2.606  -4.138  -0.082  0.00  0.00    +0.008 A 
ATOM      9  C   UNL     1       1.293  -2.078  -0.020  0.00  0.00    +0.017 A 
ATOM     10  C   UNL     1       1.239  -0.684   0.006  0.00  0.00    -0.017 A 
ATOM     11  C   UNL     1       0.003  -0.005   0.042  0.00  0.00    +0.008 A 
ATOM     12  C   UNL     1      -0.016   1.354   0.067  0.00  0.00    +0.001 A 
ATOM     13  C   UNL     1       1.161   2.101   0.058  0.00  0.00    +0.001 A 
ATOM     14  C   UNL     1       2.384   1.506   0.024  0.00  0.00    +0.009 A 
ATOM     15  C   UNL     1       2.473   0.104  -0.003  0.00  0.00    -0.009 A 
ATOM     16  C   UNL     1       3.727  -0.545  -0.038  0.00  0.00    +0.010 A 
ENDBRANCH   1  16
BRANCH   2  17
ATOM     17  N   UNL     1       7.176   0.291   0.030  0.00  0.00    -0.127 NA
ATOM     18  C   UNL     1       8.341  -0.321   0.115  0.00  0.00    +0.183 C 
ATOM     19  N   UNL     1       8.587  -1.673   0.210  0.00  0.00    -0.263 N 
ATOM     20  C   UNL     1       9.810  -2.169   0.289  0.00  0.00    +0.232 C 
ATOM     21  O   UNL     1      10.018  -3.361   0.372  0.00  0.00    -0.274 OA
ATOM     22  C   UNL     1      10.939  -1.151   0.267  0.00  0.00    +0.144 C 
ATOM     23  S   UNL     1       9.972   0.408   0.124  0.00  0.00    -0.075 S 
ATOM     24  H   UNL     1       7.834  -2.285   0.221  0.00  0.00    +0.157 HD
BRANCH  22  25
ATOM     25  C   UNL     1      11.844  -1.352  -0.950  0.00  0.00    +0.059 C 
BRANCH  25  26
ATOM     26  C   UNL     1      13.014  -0.406  -0.868  0.00  0.00    -0.046 A 
ATOM     27  C   UNL     1      12.924   0.855  -1.426  0.00  0.00    +0.005 A 
ATOM     28  C   UNL     1      13.997   1.723  -1.351  0.00  0.00    +0.020 A 
ATOM     29  C   UNL     1      15.162   1.329  -0.717  0.00  0.00    +0.041 A 
ATOM     30  C   UNL     1      15.252   0.067  -0.159  0.00  0.00    +0.020 A 
ATOM     31  C   UNL     1      14.176  -0.798  -0.229  0.00  0.00    +0.005 A 
ATOM     32 CL   UNL     1      16.510   2.419  -0.623  0.00  0.00    -0.084 Cl
ENDBRANCH  25  26
ENDBRANCH  22  25
ENDBRANCH   2  17
TORSDOF 4
