REMARK  Name = ZINC05648801
REMARK  6 active torsions:
REMARK  status: ('A' for Active; 'I' for Inactive)
REMARK    1  A    between atoms: C_10  and  N_11
REMARK    2  A    between atoms: C_12  and  C_14
REMARK    3  A    between atoms: C_14  and  S_15
REMARK    4  A    between atoms: S_15  and  C_16
REMARK    5  A    between atoms: C_20  and  C_22
REMARK    6  A    between atoms: C_27  and  O_28
REMARK                            x       y       z     vdW  Elec       q    Type
REMARK                         _______ _______ _______ _____ _____    ______ ____
ROOT
ATOM      1  C   UNL     1       7.334   0.221   0.146  0.00  0.00    +0.173 C 
ENDROOT
BRANCH   1   3
ATOM      2  N   UNL     1       4.871   0.098  -0.045  0.00  0.00    -0.284 N 
ATOM      3  C   UNL     1       6.047  -0.555   0.042  0.00  0.00    +0.228 C 
ATOM      4  O   UNL     1       6.068  -1.768   0.036  0.00  0.00    -0.275 OA
ATOM      5  H   UNL     1       4.858   1.065  -0.121  0.00  0.00    +0.155 HD
BRANCH   2  15
ATOM      6  C   UNL     1       0.203   0.945  -1.767  0.00  0.00    +0.001 A 
ATOM      7  C   UNL     1       1.389   1.676  -1.797  0.00  0.00    +0.001 A 
ATOM      8  C   UNL     1       2.529   1.185  -1.236  0.00  0.00    +0.010 A 
ATOM      9  C   UNL     1       2.511  -0.076  -0.618  0.00  0.00    +0.003 A 
ATOM     10  C   UNL     1       1.306  -0.819  -0.587  0.00  0.00    -0.016 A 
ATOM     11  C   UNL     1       0.149  -0.280  -1.177  0.00  0.00    +0.008 A 
ATOM     12  C   UNL     1       1.286  -2.080   0.032  0.00  0.00    +0.008 A 
ATOM     13  C   UNL     1       2.422  -2.578   0.596  0.00  0.00    +0.002 A 
ATOM     14  C   UNL     1       3.612  -1.857   0.572  0.00  0.00    +0.024 A 
ATOM     15  C   UNL     1       3.672  -0.617  -0.026  0.00  0.00    +0.041 A 
ENDBRANCH   2  15
ENDBRANCH   1   3
BRANCH   1  16
ATOM     16  S   UNL     1       8.730  -0.934   0.247  0.00  0.00    -0.077 S 
BRANCH  16  17
ATOM     17  C   UNL     1      10.142   0.113   0.363  0.00  0.00    +0.185 A 
ATOM     18  N   UNL     1      11.427  -0.294   0.455  0.00  0.00    -0.253 N 
ATOM     19  H   UNL     1      11.746  -1.211   0.469  0.00  0.00    +0.191 HD
ATOM     20  N   UNL     1      12.211   0.869   0.525  0.00  0.00    -0.151 NA
ATOM     21  C   UNL     1      11.385   1.890   0.473  0.00  0.00    +0.186 A 
ATOM     22  N   UNL     1      10.130   1.428   0.370  0.00  0.00    -0.201 NA
BRANCH  21  23
ATOM     23  C   UNL     1      11.778   3.319   0.518  0.00  0.00    +0.062 A 
ATOM     24  C   UNL     1      10.804   4.314   0.462  0.00  0.00    +0.015 A 
ATOM     25  C   UNL     1      11.174   5.643   0.503  0.00  0.00    +0.001 A 
ATOM     26  C   UNL     1      12.510   5.992   0.601  0.00  0.00    +0.004 A 
ATOM     27  C   UNL     1      13.484   5.013   0.657  0.00  0.00    +0.046 A 
ATOM     28  C   UNL     1      13.126   3.675   0.622  0.00  0.00    +0.128 A 
BRANCH  28  29
ATOM     29  O   UNL     1      14.082   2.711   0.682  0.00  0.00    -0.506 OA
ATOM     30  H   UNL     1      14.424   2.442  -0.181  0.00  0.00    +0.292 HD
ENDBRANCH  28  29
ENDBRANCH  21  23
ENDBRANCH  16  17
ENDBRANCH   1  16
TORSDOF 6
