REMARK  Name = ZINC28293054
REMARK  8 active torsions:
REMARK  status: ('A' for Active; 'I' for Inactive)
REMARK    1  A    between atoms: C_1  and  C_2
REMARK    2  A    between atoms: C_2  and  C_3
REMARK    3  A    between atoms: C_2  and  C_4
REMARK    4  A    between atoms: C_7  and  C_10
REMARK    5  A    between atoms: C_10  and  C_12
REMARK    6  A    between atoms: C_10  and  N_28
REMARK    7  A    between atoms: C_12  and  N_13
REMARK    8  A    between atoms: C_14  and  C_16
REMARK                            x       y       z     vdW  Elec       q    Type
REMARK                         _______ _______ _______ _____ _____    ______ ____
ROOT
ATOM      1  C   UNL     1      -0.105   0.970   2.427  0.00  0.00    -0.020 C 
ENDROOT
BRANCH   1   2
ATOM      2  N   UNL     1      -1.065   1.106   1.324  0.00  0.00    +0.385 N 
ATOM      3  C   UNL     1      -0.946   2.420   0.681  0.00  0.00    -0.078 C 
ATOM      4  C   UNL     1      -1.854   2.472  -0.550  0.00  0.00    -0.019 C 
ATOM      5  C   UNL     1      -3.303   2.224  -0.119  0.00  0.00    -0.004 C 
ATOM      6  C   UNL     1      -3.391   0.870   0.591  0.00  0.00    -0.019 C 
ATOM      7  C   UNL     1      -2.437   0.865   1.788  0.00  0.00    -0.078 C 
ATOM      8  H   UNL     1      -0.827   0.341   0.570  0.00  0.00    -0.081 HD
ENDBRANCH   1   2
BRANCH   1  12
ATOM      9  C   UNL     1      -1.897   2.342   6.053  0.00  0.00    -0.045 A 
ATOM     10  C   UNL     1      -1.465   1.033   5.948  0.00  0.00    +0.004 A 
ATOM     11  C   UNL     1      -0.885   0.589   4.774  0.00  0.00    +0.002 A 
ATOM     12  C   UNL     1      -0.738   1.454   3.706  0.00  0.00    -0.059 A 
ATOM     13  C   UNL     1      -1.165   2.764   3.813  0.00  0.00    +0.002 A 
ATOM     14  C   UNL     1      -1.750   3.207   4.985  0.00  0.00    +0.004 A 
BRANCH   9  16
ATOM     15  C   UNL     1      -1.704   3.981   7.904  0.00  0.00    +0.012 C 
ATOM     16  C   UNL     1      -2.529   2.826   7.333  0.00  0.00    +0.013 C 
ATOM     17  C   UNL     1      -3.953   3.308   7.048  0.00  0.00    +0.012 C 
ENDBRANCH   9  16
ENDBRANCH   1  12
BRANCH   1  18
ATOM     18  C   UNL     1       1.140   1.806   2.125  0.00  0.00    +0.094 C 
BRANCH  18  19
ATOM     19  N   UNL     1       1.681   1.423   0.819  0.00  0.00    -0.310 N 
ATOM     20  C   UNL     1       2.733   2.090   0.303  0.00  0.00    +0.279 C 
ATOM     21  O   UNL     1       3.233   3.008   0.922  0.00  0.00    -0.267 OA
ATOM     22  H   UNL     1       1.229   0.592   0.259  0.00  0.00    +0.149 HD
BRANCH  20  23
ATOM     23  C   UNL     1       3.281   1.702  -1.018  0.00  0.00    +0.193 A 
ATOM     24  C   UNL     1       4.338   2.389  -1.511  0.00  0.00    +0.103 A 
ATOM     25  C   UNL     1       4.883   2.006  -2.823  0.00  0.00    +0.193 A 
ATOM     26  O   UNL     1       5.832   2.589  -3.315  0.00  0.00    -0.287 OA
ATOM     27  C   UNL     1       4.223   0.881  -3.514  0.00  0.00    +0.065 A 
ATOM     28  C   UNL     1       4.663   0.439  -4.761  0.00  0.00    +0.035 A 
ATOM     29  C   UNL     1       4.020  -0.614  -5.375  0.00  0.00    +0.042 A 
ATOM     30  C   UNL     1       2.942  -1.233  -4.754  0.00  0.00    +0.023 A 
ATOM     31  C   UNL     1       2.499  -0.805  -3.521  0.00  0.00    +0.048 A 
ATOM     32  C   UNL     1       3.133   0.257  -2.884  0.00  0.00    +0.140 A 
ATOM     33  O   UNL     1       2.713   0.681  -1.676  0.00  0.00    -0.450 OA
ATOM     34 CL   UNL     1       4.559  -1.171  -6.928  0.00  0.00    -0.084 Cl
ENDBRANCH  20  23
ENDBRANCH  18  19
ENDBRANCH   1  18
TORSDOF 6
