REMARK  Name = ZINC03298437
REMARK  8 active torsions:
REMARK  status: ('A' for Active; 'I' for Inactive)
REMARK    1  A    between atoms: C_1  and  C_2
REMARK    2  A    between atoms: C_5  and  C_8
REMARK    3  A    between atoms: C_9  and  C_30
REMARK    4  A    between atoms: C_11  and  S_14
REMARK    5  A    between atoms: S_14  and  C_15
REMARK    6  A    between atoms: C_15  and  C_17
REMARK    7  A    between atoms: C_15  and  C_18
REMARK    8  A    between atoms: C_33  and  C_36
REMARK                            x       y       z     vdW  Elec       q    Type
REMARK                         _______ _______ _______ _____ _____    ______ ____
ROOT
ATOM      1  C   UNL     1       9.556  -0.148   0.365  0.00  0.00    +0.075 A 
ATOM      2  C   UNL     1       8.717   0.852  -0.085  0.00  0.00    +0.098 A 
ATOM      3  N   UNL     1       7.450   0.461   0.151  0.00  0.00    -0.221 NA
ATOM      4  C   UNL     1       7.453  -0.718   0.728  0.00  0.00    +0.168 A 
ATOM      5  N   UNL     1       8.739  -1.139   0.879  0.00  0.00    -0.332 N 
ATOM      6  H   UNL     1       9.037  -2.002   1.286  0.00  0.00    +0.168 HD
ENDROOT
BRANCH   1  11
ATOM      7  C   UNL     1      15.304  -0.190   0.147  0.00  0.00    +0.044 C 
ATOM      8  C   UNL     1      13.798  -0.178   0.205  0.00  0.00    -0.050 A 
ATOM      9  C   UNL     1      13.150  -0.568   1.364  0.00  0.00    +0.004 A 
ATOM     10  C   UNL     1      11.772  -0.560   1.423  0.00  0.00    +0.010 A 
ATOM     11  C   UNL     1      11.030  -0.159   0.310  0.00  0.00    +0.000 A 
ATOM     12  C   UNL     1      11.691   0.228  -0.859  0.00  0.00    +0.010 A 
ATOM     13  C   UNL     1      13.070   0.221  -0.902  0.00  0.00    +0.004 A 
ENDBRANCH   1  11
BRANCH   2  14
ATOM     14  C   UNL     1       9.136   2.123  -0.720  0.00  0.00    +0.002 A 
ATOM     15  C   UNL     1      10.217   2.839  -0.207  0.00  0.00    +0.010 A 
ATOM     16  C   UNL     1      10.606   4.019  -0.806  0.00  0.00    +0.004 A 
ATOM     17  C   UNL     1       9.918   4.499  -1.907  0.00  0.00    -0.050 A 
ATOM     18  C   UNL     1       8.841   3.797  -2.416  0.00  0.00    +0.004 A 
ATOM     19  C   UNL     1       8.446   2.612  -1.829  0.00  0.00    +0.010 A 
ATOM     20  C   UNL     1      10.344   5.793  -2.552  0.00  0.00    +0.044 C 
ENDBRANCH   2  14
BRANCH   4  21
ATOM     21  S   UNL     1       6.020  -1.616   1.222  0.00  0.00    -0.075 S 
BRANCH  21  22
ATOM     22  C   UNL     1       4.729  -0.454   0.712  0.00  0.00    +0.137 C 
ATOM     23  C   UNL     1       4.744  -0.312  -0.812  0.00  0.00    +0.029 C 
BRANCH  22  24
ATOM     24  C   UNL     1       3.385  -0.971   1.154  0.00  0.00    +0.233 C 
ATOM     25  O   UNL     1       3.249  -2.142   1.440  0.00  0.00    -0.274 OA
ATOM     26  N   UNL     1       2.333  -0.132   1.233  0.00  0.00    -0.270 N 
ATOM     27  C   UNL     1       2.509   1.310   1.013  0.00  0.00    +0.114 C 
ATOM     28  C   UNL     1       1.728   2.050   2.106  0.00  0.00    +0.024 C 
ATOM     29  C   UNL     1       0.241   1.731   1.953  0.00  0.00    +0.038 C 
ATOM     30  C   UNL     1       0.026   0.243   1.877  0.00  0.00    -0.026 A 
ATOM     31  C   UNL     1       1.052  -0.621   1.526  0.00  0.00    +0.039 A 
ATOM     32  C   UNL     1       0.818  -1.989   1.462  0.00  0.00    +0.024 A 
ATOM     33  C   UNL     1      -0.436  -2.491   1.750  0.00  0.00    +0.002 A 
ATOM     34  C   UNL     1      -1.458  -1.629   2.102  0.00  0.00    +0.000 A 
ATOM     35  C   UNL     1      -1.228  -0.268   2.166  0.00  0.00    +0.005 A 
ENDBRANCH  22  24
ENDBRANCH  21  22
ENDBRANCH   4  21
TORSDOF 5
