REMARK  Name = ZINC20711205
REMARK  6 active torsions:
REMARK  status: ('A' for Active; 'I' for Inactive)
REMARK    1  A    between atoms: C_1  and  O_2
REMARK    2  A    between atoms: O_2  and  C_3
REMARK    3  A    between atoms: C_6  and  N_9
REMARK    4  A    between atoms: N_9  and  S_10
REMARK    5  A    between atoms: S_10  and  C_13
REMARK    6  A    between atoms: C_26  and  C_29
REMARK                            x       y       z     vdW  Elec       q    Type
REMARK                         _______ _______ _______ _____ _____    ______ ____
ROOT
ATOM      1  C   UNL     1      -2.580  -0.141   0.388  0.00  0.00    +0.109 A 
ATOM      2  C   UNL     1      -3.122  -1.016  -0.536  0.00  0.00    +0.030 A 
ATOM      3  C   UNL     1      -4.388  -0.796  -1.039  0.00  0.00    +0.025 A 
ATOM      4  C   UNL     1      -5.128   0.302  -0.620  0.00  0.00    +0.031 A 
ATOM      5  C   UNL     1      -4.579   1.176   0.325  0.00  0.00    -0.018 A 
ATOM      6  C   UNL     1      -3.313   0.949   0.820  0.00  0.00    +0.034 A 
ATOM      7  C   UNL     1      -5.410   2.317   0.764  0.00  0.00    +0.049 C 
ATOM      8  C   UNL     1      -4.812   3.582   1.262  0.00  0.00    -0.023 C 
ATOM      9  C   UNL     1      -5.625   4.585   0.954  0.00  0.00    -0.030 C 
ATOM     10  C   UNL     1      -6.836   4.059   0.181  0.00  0.00    +0.033 C 
ATOM     11  C   UNL     1      -6.248   2.799  -0.458  0.00  0.00    +0.029 C 
ATOM     12  C   UNL     1      -7.226   1.673  -0.747  0.00  0.00    +0.106 C 
ATOM     13  N   UNL     1      -6.397   0.523  -1.169  0.00  0.00    -0.336 N 
ATOM     14  H   UNL     1      -6.775  -0.178  -1.928  0.00  0.00    +0.147 HD
ENDROOT
BRANCH  12  15
ATOM     15  C   UNL     1      -8.165   2.073  -1.856  0.00  0.00    -0.007 A 
ATOM     16  C   UNL     1      -7.864   3.156  -2.660  0.00  0.00    +0.007 A 
ATOM     17  C   UNL     1      -8.726   3.523  -3.677  0.00  0.00    +0.002 A 
ATOM     18  C   UNL     1      -9.889   2.807  -3.891  0.00  0.00    +0.021 A 
ATOM     19  C   UNL     1     -10.192   1.723  -3.087  0.00  0.00    +0.060 A 
ATOM     20  C   UNL     1      -9.326   1.352  -2.072  0.00  0.00    +0.064 A 
ATOM     21 CL   UNL     1      -9.700  -0.013  -1.067  0.00  0.00    -0.082 Cl
ATOM     22 CL   UNL     1     -11.653   0.825  -3.354  0.00  0.00    -0.082 Cl
ENDBRANCH  12  15
BRANCH   1  23
ATOM     23  S   UNL     1      -0.960  -0.421   1.022  0.00  0.00    +0.072 S 
ATOM     24  O   UNL     1      -0.650  -1.782   0.759  0.00  0.00    -0.150 OA
ATOM     25  O   UNL     1      -0.936   0.126   2.333  0.00  0.00    -0.150 OA
BRANCH  23  26
ATOM     26  N   UNL     1       0.085   0.487   0.112  0.00  0.00    -0.216 N 
ATOM     27  H   UNL     1       0.684   1.277   0.587  0.00  0.00    +0.174 HD
BRANCH  26  31
ATOM     28  C   UNL     1       0.442  -0.224  -3.980  0.00  0.00    +0.120 A 
ATOM     29  C   UNL     1       0.309   1.074  -3.511  0.00  0.00    +0.047 A 
ATOM     30  C   UNL     1       0.190   1.311  -2.156  0.00  0.00    +0.028 A 
ATOM     31  C   UNL     1       0.204   0.248  -1.262  0.00  0.00    +0.048 A 
ATOM     32  C   UNL     1       0.344  -1.051  -1.732  0.00  0.00    +0.028 A 
ATOM     33  C   UNL     1       0.458  -1.286  -3.088  0.00  0.00    +0.047 A 
BRANCH  28  35
ATOM     34  C   UNL     1       0.694  -1.817  -5.728  0.00  0.00    +0.277 C 
ATOM     35  O   UNL     1       0.559  -0.456  -5.315  0.00  0.00    -0.495 OA
ENDBRANCH  28  35
ENDBRANCH  26  31
ENDBRANCH  23  26
ENDBRANCH   1  23
TORSDOF 5
