REMARK  Name = ZINC13001796
REMARK  11 active torsions:
REMARK  status: ('A' for Active; 'I' for Inactive)
REMARK    1  A    between atoms: C_1  and  C_2
REMARK    2  A    between atoms: C_3  and  C_32
REMARK    3  A    between atoms: C_7  and  S_18
REMARK    4  A    between atoms: C_9  and  C_11
REMARK    5  A    between atoms: C_11  and  N_64
REMARK    6  A    between atoms: C_14  and  C_17
REMARK    7  A    between atoms: S_18  and  C_19
REMARK    8  A    between atoms: C_22  and  C_29
REMARK    9  A    between atoms: N_23  and  C_24
REMARK   10  A    between atoms: C_24  and  C_25
REMARK   11  A    between atoms: C_25  and  C_26
REMARK                            x       y       z     vdW  Elec       q    Type
REMARK                         _______ _______ _______ _____ _____    ______ ____
ROOT
ATOM      1  C   UNL     1       7.978   1.877  -1.430  0.00  0.00    +0.045 C 
ATOM      2  C   UNL     1       8.197   3.260  -0.874  0.00  0.00    -0.029 A 
ATOM      3  C   UNL     1       9.348   3.909  -1.103  0.00  0.00    -0.008 A 
ATOM      4  S   UNL     1       9.125   5.464  -0.260  0.00  0.00    -0.074 S 
ATOM      5  C   UNL     1       7.491   5.200   0.377  0.00  0.00    +0.113 A 
ATOM      6  C   UNL     1       7.166   3.904  -0.080  0.00  0.00    +0.043 A 
ATOM      7  C   UNL     1       5.876   3.433   0.290  0.00  0.00    +0.116 A 
ATOM      8  N   UNL     1       5.092   4.208   1.023  0.00  0.00    -0.227 NA
ATOM      9  C   UNL     1       5.465   5.411   1.421  0.00  0.00    +0.115 A 
ATOM     10  N   UNL     1       6.647   5.904   1.105  0.00  0.00    -0.227 NA
ATOM     11  C   UNL     1      10.546   3.437  -1.887  0.00  0.00    +0.052 C 
ENDROOT
BRANCH   9  12
ATOM     12  C   UNL     1       4.520   6.238   2.253  0.00  0.00    -0.001 C 
BRANCH  12  19
ATOM     13  C   UNL     1       6.185   5.962   3.989  0.00  0.00    -0.078 C 
ATOM     14  C   UNL     1       6.393   5.527   5.442  0.00  0.00    -0.016 C 
ATOM     15  C   UNL     1       5.648   6.489   6.370  0.00  0.00    -0.018 C 
ATOM     16  C   UNL     1       4.164   6.504   5.993  0.00  0.00    -0.016 C 
ATOM     17  C   UNL     1       4.020   6.911   4.524  0.00  0.00    -0.078 C 
ATOM     18  C   UNL     1       5.802   6.024   7.819  0.00  0.00    +0.007 C 
ATOM     19  N   UNL     1       4.739   5.931   3.682  0.00  0.00    +0.384 N 
ATOM     20  H   UNL     1       4.376   4.992   3.881  0.00  0.00    -0.081 HD
ENDBRANCH  12  19
ENDBRANCH   9  12
BRANCH   7  21
ATOM     21  S   UNL     1       5.330   1.835  -0.215  0.00  0.00    -0.029 S 
BRANCH  21  22
ATOM     22  C   UNL     1       3.729   1.812   0.520  0.00  0.00    +0.198 A 
ATOM     23  N   UNL     1       3.183   2.771   1.230  0.00  0.00    -0.122 NA
ATOM     24  N   UNL     1       2.005   2.420   1.605  0.00  0.00    -0.133 NA
ATOM     25  C   UNL     1       1.736   1.221   1.168  0.00  0.00    +0.137 A 
ATOM     26  N   UNL     1       2.822   0.793   0.459  0.00  0.00    -0.305 N 
BRANCH  25  27
ATOM     27  C   UNL     1       0.460   0.453   1.397  0.00  0.00    +0.057 C 
ATOM     28  C   UNL     1      -0.547   1.036   2.390  0.00  0.00    +0.012 C 
ATOM     29  C   UNL     1      -0.842   1.077   0.889  0.00  0.00    +0.012 C 
ENDBRANCH  25  27
BRANCH  26  30
ATOM     30  C   UNL     1       2.982  -0.492  -0.226  0.00  0.00    +0.135 C 
BRANCH  30  31
ATOM     31  C   UNL     1       2.478  -0.369  -1.665  0.00  0.00    +0.117 C 
BRANCH  31  32
ATOM     32  C   UNL     1       2.642  -1.691  -2.370  0.00  0.00    +0.212 C 
ATOM     33  O   UNL     1       3.115  -2.638  -1.779  0.00  0.00    -0.276 OA
ATOM     34  N   UNL     1       2.263  -1.820  -3.657  0.00  0.00    -0.329 N 
ATOM     35  H   UNL     1       1.884  -1.062  -4.129  0.00  0.00    +0.145 HD
ATOM     36  H   UNL     1       2.368  -2.671  -4.110  0.00  0.00    +0.145 HD
ENDBRANCH  31  32
ENDBRANCH  30  31
ENDBRANCH  26  30
ENDBRANCH  21  22
ENDBRANCH   7  21
TORSDOF 8
