REMARK  Name = ZINC63281715
REMARK  7 active torsions:
REMARK  status: ('A' for Active; 'I' for Inactive)
REMARK    1  A    between atoms: C_1  and  O_2
REMARK    2  A    between atoms: O_2  and  C_3
REMARK    3  A    between atoms: C_9  and  C_12
REMARK    4  A    between atoms: C_12  and  C_13
REMARK    5  A    between atoms: C_13  and  N_14
REMARK    6  A    between atoms: C_15  and  C_17
REMARK    7  A    between atoms: C_21  and  C_24
REMARK                            x       y       z     vdW  Elec       q    Type
REMARK                         _______ _______ _______ _____ _____    ______ ____
ROOT
ATOM      1  N   UNL     1      -0.898  -6.905   1.439  0.00  0.00    -0.311 N 
ATOM      2  C   UNL     1      -0.371  -7.360   2.593  0.00  0.00    +0.238 C 
ATOM      3  O   UNL     1      -0.624  -6.796   3.642  0.00  0.00    -0.271 OA
ATOM      4  H   UNL     1      -0.697  -7.354   0.603  0.00  0.00    +0.149 HD
ENDROOT
BRANCH   2   5
ATOM      5  C   UNL     1       0.477  -8.492   2.585  0.00  0.00    +0.086 C 
ATOM      6  C   UNL     1       0.908  -9.020   3.749  0.00  0.00    +0.020 C 
ATOM      7  C   UNL     1       1.946 -10.134   3.802  0.00  0.00    +0.121 C 
ATOM      8  S   UNL     1       2.701  -9.777   5.448  0.00  0.00    -0.128 S 
ATOM      9  C   UNL     1       1.285  -8.822   6.139  0.00  0.00    +0.159 C 
ATOM     10  N   UNL     1       0.453  -8.594   4.945  0.00  0.00    -0.331 N 
ATOM     11  H   UNL     1      -0.406  -8.149   5.019  0.00  0.00    +0.147 HD
BRANCH   9  12
ATOM     12  C   UNL     1       1.754  -7.514   6.724  0.00  0.00    -0.017 A 
ATOM     13  C   UNL     1       1.834  -6.389   5.925  0.00  0.00    +0.006 A 
ATOM     14  C   UNL     1       2.264  -5.190   6.461  0.00  0.00    +0.000 A 
ATOM     15  C   UNL     1       2.615  -5.116   7.796  0.00  0.00    +0.000 A 
ATOM     16  C   UNL     1       2.534  -6.241   8.595  0.00  0.00    +0.000 A 
ATOM     17  C   UNL     1       2.100  -7.439   8.060  0.00  0.00    +0.006 A 
ENDBRANCH   9  12
ENDBRANCH   2   5
BRANCH   1  18
ATOM     18  C   UNL     1      -1.776  -5.732   1.447  0.00  0.00    +0.109 C 
BRANCH  18  19
ATOM     19  C   UNL     1      -2.234  -5.428   0.019  0.00  0.00    +0.052 C 
BRANCH  19  26
ATOM     20  C   UNL     1      -1.441  -0.960  -0.691  0.00  0.00    +0.121 A 
ATOM     21  C   UNL     1      -2.580  -0.143  -0.592  0.00  0.00    +0.047 A 
ATOM     22  C   UNL     1      -3.805  -0.635  -0.310  0.00  0.00    +0.029 A 
ATOM     23  C   UNL     1      -3.980  -2.075  -0.095  0.00  0.00    +0.043 A 
ATOM     24  N   UNL     1      -5.036  -2.797   0.186  0.00  0.00    -0.380 N 
ATOM     25  C   UNL     1      -4.626  -4.202   0.292  0.00  0.00    +0.144 C 
ATOM     26  C   UNL     1      -3.137  -4.222   0.028  0.00  0.00    -0.040 C 
ATOM     27  C   UNL     1      -2.780  -2.938  -0.200  0.00  0.00    +0.002 A 
ATOM     28  C   UNL     1      -1.496  -2.303  -0.516  0.00  0.00    +0.055 A 
ATOM     29  H   UNL     1      -5.937  -2.459   0.305  0.00  0.00    +0.160 HD
BRANCH  20  31
ATOM     30  C   UNL     1      -0.231   1.033  -1.156  0.00  0.00    +0.277 C 
ATOM     31  O   UNL     1      -0.243  -0.385  -0.979  0.00  0.00    -0.495 OA
ENDBRANCH  20  31
ENDBRANCH  19  26
ENDBRANCH  18  19
ENDBRANCH   1  18
TORSDOF 6
