REMARK  Name = ZINC27570609
REMARK  12 active torsions:
REMARK  status: ('A' for Active; 'I' for Inactive)
REMARK    1  A    between atoms: C_1  and  C_2
REMARK    2  A    between atoms: C_2  and  C_3
REMARK    3  A    between atoms: C_2  and  C_4
REMARK    4  A    between atoms: C_4  and  C_6
REMARK    5  A    between atoms: C_4  and  N_25
REMARK    6  A    between atoms: N_8  and  C_9
REMARK    7  A    between atoms: C_9  and  C_10
REMARK    8  A    between atoms: C_10  and  C_12
REMARK    9  A    between atoms: C_10  and  N_20
REMARK   10  A    between atoms: C_17  and  O_18
REMARK   11  A    between atoms: O_18  and  C_19
REMARK   12  A    between atoms: C_26  and  C_28
REMARK                            x       y       z     vdW  Elec       q    Type
REMARK                         _______ _______ _______ _____ _____    ______ ____
ROOT
ATOM      1  C   UNL     1       4.130   5.657   2.838  0.00  0.00    +0.234 C 
ATOM      2  O   UNL     1       3.504   5.309   3.817  0.00  0.00    -0.274 OA
ATOM      3  N   UNL     1       3.754   5.238   1.614  0.00  0.00    -0.315 N 
ATOM      4  H   UNL     1       4.322   5.554   0.726  0.00  0.00    +0.149 HD
ENDROOT
BRANCH   1   5
ATOM      5  C   UNL     1       5.327   6.560   2.991  0.00  0.00    +0.162 C 
BRANCH   5   6
ATOM      6  N   UNL     1       5.526   6.871   4.409  0.00  0.00    -0.300 N 
ATOM      7  C   UNL     1       6.167   8.002   4.766  0.00  0.00    +0.250 C 
ATOM      8  O   UNL     1       6.579   8.763   3.913  0.00  0.00    -0.270 OA
ATOM      9  H   UNL     1       5.153   6.183   5.181  0.00  0.00    +0.150 HD
BRANCH   7  10
ATOM     10  C   UNL     1       6.367   8.316   6.194  0.00  0.00    +0.107 A 
ATOM     11  C   UNL     1       7.514   7.869   6.859  0.00  0.00    +0.138 A 
ATOM     12  C   UNL     1       7.696   8.172   8.195  0.00  0.00    +0.039 A 
ATOM     13  C   UNL     1       6.743   8.906   8.878  0.00  0.00    +0.006 A 
ATOM     14  C   UNL     1       5.603   9.346   8.230  0.00  0.00    +0.039 A 
ATOM     15  C   UNL     1       5.408   9.057   6.893  0.00  0.00    +0.138 A 
ATOM     16  F   UNL     1       4.294   9.489   6.262  0.00  0.00    -0.205 F 
ATOM     17  F   UNL     1       8.444   7.148   6.194  0.00  0.00    -0.205 F 
ENDBRANCH   7  10
ENDBRANCH   5   6
BRANCH   5  19
ATOM     18  C   UNL     1       7.786   6.771   2.600  0.00  0.00    +0.009 C 
ATOM     19  C   UNL     1       6.570   5.855   2.445  0.00  0.00    +0.012 C 
ATOM     20  C   UNL     1       6.806   4.559   3.224  0.00  0.00    +0.009 C 
ENDBRANCH   5  19
ENDBRANCH   1   5
BRANCH   3  21
ATOM     21  C   UNL     1       2.590   4.360   1.465  0.00  0.00    +0.093 C 
BRANCH  21  22
ATOM     22  C   UNL     1       2.460   3.929   0.003  0.00  0.00    -0.017 C 
BRANCH  22  23
ATOM     23  C   UNL     1       3.648   3.084  -0.379  0.00  0.00    -0.018 A 
ATOM     24  C   UNL     1       4.741   3.666  -0.992  0.00  0.00    +0.005 A 
ATOM     25  C   UNL     1       5.831   2.891  -1.343  0.00  0.00    +0.000 A 
ATOM     26  C   UNL     1       5.828   1.532  -1.086  0.00  0.00    +0.004 A 
ATOM     27  C   UNL     1       4.740   0.947  -0.469  0.00  0.00    +0.046 A 
ATOM     28  C   UNL     1       3.645   1.722  -0.116  0.00  0.00    +0.122 A 
BRANCH  28  29
ATOM     29  O   UNL     1       2.571   1.148   0.488  0.00  0.00    -0.495 OA
ATOM     30  C   UNL     1       2.637  -0.259   0.728  0.00  0.00    +0.277 C 
ENDBRANCH  28  29
ENDBRANCH  22  23
BRANCH  22  31
ATOM     31  N   UNL     1       2.409   5.120  -0.856  0.00  0.00    +0.385 N 
ATOM     32  C   UNL     1       2.228   4.741  -2.280  0.00  0.00    -0.078 C 
ATOM     33  C   UNL     1       1.679   6.039  -2.925  0.00  0.00    -0.020 C 
ATOM     34  C   UNL     1       0.752   6.606  -1.826  0.00  0.00    -0.020 C 
ATOM     35  C   UNL     1       1.249   5.971  -0.514  0.00  0.00    -0.078 C 
ATOM     36  H   UNL     1       3.359   5.649  -0.691  0.00  0.00    -0.081 HD
ENDBRANCH  22  31
ENDBRANCH  21  22
ENDBRANCH   3  21
TORSDOF 9
