REMARK  Name = ZINC39456332
REMARK  6 active torsions:
REMARK  status: ('A' for Active; 'I' for Inactive)
REMARK    1  A    between atoms: C_1  and  C_2
REMARK    2  A    between atoms: C_2  and  C_3
REMARK    3  A    between atoms: C_2  and  S_4
REMARK    4  A    between atoms: S_4  and  C_7
REMARK    5  A    between atoms: C_18  and  C_24
REMARK    6  A    between atoms: C_24  and  C_25
REMARK                            x       y       z     vdW  Elec       q    Type
REMARK                         _______ _______ _______ _____ _____    ______ ____
ROOT
ATOM      1  C   UNL     1      -1.464  -2.425   0.157  0.00  0.00    +0.222 C 
ATOM      2  C   UNL     1      -2.827  -3.126   0.168  0.00  0.00    +0.127 C 
ATOM      3  C   UNL     1      -3.467  -2.994  -1.189  0.00  0.00    +0.187 C 
ATOM      4  O   UNL     1      -4.678  -2.968  -1.284  0.00  0.00    -0.290 OA
ATOM      5  C   UNL     1      -2.672  -2.900  -2.355  0.00  0.00    +0.144 A 
ATOM      6  C   UNL     1      -1.296  -2.868  -2.246  0.00  0.00    +0.085 A 
ATOM      7  C   UNL     1      -0.465  -2.776  -3.459  0.00  0.00    +0.100 A 
ATOM      8  C   UNL     1      -1.126  -2.713  -4.715  0.00  0.00    +0.070 A 
ATOM      9  C   UNL     1      -0.392  -2.622  -5.888  0.00  0.00    +0.025 A 
ATOM     10  C   UNL     1       1.007  -2.594  -5.784  0.00  0.00    +0.005 A 
ATOM     11  C   UNL     1       1.834  -2.500  -6.915  0.00  0.00    -0.034 A 
ATOM     12  C   UNL     1       3.186  -2.478  -6.756  0.00  0.00    +0.004 A 
ATOM     13  C   UNL     1       3.772  -2.547  -5.494  0.00  0.00    +0.002 A 
ATOM     14  C   UNL     1       3.024  -2.639  -4.361  0.00  0.00    +0.028 A 
ATOM     15  C   UNL     1       1.620  -2.666  -4.455  0.00  0.00    +0.072 A 
ATOM     16  N   UNL     1       0.852  -2.753  -3.370  0.00  0.00    -0.245 NA
ATOM     17  C   UNL     1      -2.597  -2.745  -4.744  0.00  0.00    +0.289 A 
ATOM     18  O   UNL     1      -3.185  -2.691  -5.808  0.00  0.00    -0.265 OA
ATOM     19  N   UNL     1      -3.294  -2.833  -3.597  0.00  0.00    -0.136 N 
ATOM     20  F   UNL     1      -4.592  -2.856  -3.652  0.00  0.00    -0.090 F 
ATOM     21  N   UNL     1      -0.701  -2.918  -0.999  0.00  0.00    -0.319 N 
ATOM     22  H   UNL     1       0.196  -3.271  -0.889  0.00  0.00    +0.148 HD
ENDROOT
BRANCH   1  23
ATOM     23  S   UNL     1      -1.700  -0.632   0.015  0.00  0.00    -0.010 S 
ATOM     24  O   UNL     1      -2.341  -0.168   1.195  0.00  0.00    -0.172 OA
ATOM     25  O   UNL     1      -2.291  -0.355  -1.247  0.00  0.00    -0.172 OA
BRANCH  23  27
ATOM     26  C   UNL     1      -0.019   1.526   0.010  0.00  0.00    +0.031 C 
ATOM     27  C   UNL     1       0.002  -0.004   0.002  0.00  0.00    +0.126 C 
ATOM     28  C   UNL     1       0.742  -0.511   1.242  0.00  0.00    +0.031 C 
ENDBRANCH  23  27
ENDBRANCH   1  23
BRANCH  11  29
ATOM     29  C   UNL     1       1.230  -2.425  -8.294  0.00  0.00    +0.071 C 
BRANCH  29  30
ATOM     30  C   UNL     1       0.881  -0.993  -8.612  0.00  0.00    -0.043 A 
ATOM     31  C   UNL     1      -0.366  -0.497  -8.284  0.00  0.00    +0.004 A 
ATOM     32  C   UNL     1      -0.686   0.816  -8.575  0.00  0.00    +0.000 A 
ATOM     33  C   UNL     1       0.242   1.633  -9.194  0.00  0.00    +0.000 A 
ATOM     34  C   UNL     1       1.490   1.136  -9.521  0.00  0.00    +0.000 A 
ATOM     35  C   UNL     1       1.811  -0.175  -9.226  0.00  0.00    +0.004 A 
ENDBRANCH  29  30
ENDBRANCH  11  29
TORSDOF 4
