REMARK  Name = ZINC12283715
REMARK  10 active torsions:
REMARK  status: ('A' for Active; 'I' for Inactive)
REMARK    1  A    between atoms: C_1  and  C_2
REMARK    2  A    between atoms: C_2  and  C_3
REMARK    3  A    between atoms: C_2  and  C_4
REMARK    4  A    between atoms: C_4  and  C_6
REMARK    5  A    between atoms: C_4  and  N_25
REMARK    6  A    between atoms: C_15  and  C_16
REMARK    7  A    between atoms: C_15  and  N_67
REMARK    8  A    between atoms: C_16  and  C_24
REMARK    9  A    between atoms: C_17  and  C_18
REMARK   10  A    between atoms: C_26  and  C_28
REMARK                            x       y       z     vdW  Elec       q    Type
REMARK                         _______ _______ _______ _____ _____    ______ ____
ROOT
ATOM      1  C   UNL     1      -3.669  -5.853   2.929  0.00  0.00    +0.154 A 
ATOM      2  N   UNL     1      -4.428  -5.542   3.947  0.00  0.00    -0.132 NA
ATOM      3  N   UNL     1      -4.098  -4.381   4.397  0.00  0.00    -0.134 NA
ATOM      4  C   UNL     1      -3.113  -3.906   3.692  0.00  0.00    +0.132 A 
ATOM      5  N   UNL     1      -2.826  -4.818   2.731  0.00  0.00    -0.315 N 
ATOM      6  C   UNL     1      -1.813  -4.675   1.684  0.00  0.00    +0.106 C 
ATOM      7  C   UNL     1      -0.696  -3.755   2.186  0.00  0.00    -0.056 C 
ATOM      8  C   UNL     1      -2.251  -1.912   2.513  0.00  0.00    -0.071 C 
ATOM      9  C   UNL     1      -2.394  -2.594   3.877  0.00  0.00    +0.058 C 
ATOM     10  N   UNL     1      -0.989  -2.338   1.870  0.00  0.00    +0.384 N 
ATOM     11  H   UNL     1      -0.223  -1.754   2.227  0.00  0.00    -0.081 HD
ENDROOT
BRANCH   1  12
ATOM     12  C   UNL     1      -3.725  -7.128   2.128  0.00  0.00    +0.144 C 
BRANCH  12  13
ATOM     13  N   UNL     1      -5.121  -7.452   1.823  0.00  0.00    -0.305 N 
ATOM     14  C   UNL     1      -5.418  -8.207   0.746  0.00  0.00    +0.219 C 
ATOM     15  O   UNL     1      -4.529  -8.617   0.030  0.00  0.00    -0.275 OA
ATOM     16  H   UNL     1      -5.831  -7.124   2.396  0.00  0.00    +0.149 HD
BRANCH  14  17
ATOM     17  C   UNL     1      -6.853  -8.540   0.432  0.00  0.00    +0.103 C 
ATOM     18  C   UNL     1      -6.941  -9.411  -0.841  0.00  0.00    +0.043 C 
ATOM     19  C   UNL     1      -7.769  -8.555  -1.825  0.00  0.00    +0.160 C 
ATOM     20  O   UNL     1      -7.587  -7.194  -1.374  0.00  0.00    -0.379 OA
ATOM     21  C   UNL     1      -7.639  -7.261   0.068  0.00  0.00    +0.172 C 
ENDBRANCH  14  17
ENDBRANCH  12  13
BRANCH  12  23
ATOM     22  C   UNL     1      -3.952  -8.533   4.181  0.00  0.00    +0.009 C 
ATOM     23  C   UNL     1      -3.102  -8.267   2.937  0.00  0.00    +0.011 C 
ATOM     24  C   UNL     1      -3.046  -9.532   2.078  0.00  0.00    +0.009 C 
ENDBRANCH  12  23
ENDBRANCH   1  12
BRANCH  10  25
ATOM     25  C   UNL     1      -1.085  -2.159   0.410  0.00  0.00    -0.048 C 
BRANCH  25  26
ATOM     26  C   UNL     1      -1.131  -0.683   0.109  0.00  0.00    -0.089 C 
ATOM     27  C   UNL     1      -0.013  -0.028  -0.170  0.00  0.00    +0.005 C 
ATOM     28  C   UNL     1      -2.449   0.048   0.126  0.00  0.00    +0.037 C 
BRANCH  27  29
ATOM     29  C   UNL     1      -0.073   1.380  -0.616  0.00  0.00    -0.025 A 
ATOM     30  C   UNL     1      -1.103   1.806  -1.455  0.00  0.00    +0.008 A 
ATOM     31  C   UNL     1      -1.156   3.123  -1.863  0.00  0.00    +0.001 A 
ATOM     32  C   UNL     1      -0.185   4.018  -1.451  0.00  0.00    +0.000 A 
ATOM     33  C   UNL     1       0.842   3.601  -0.623  0.00  0.00    +0.001 A 
ATOM     34  C   UNL     1       0.903   2.288  -0.203  0.00  0.00    +0.008 A 
ENDBRANCH  27  29
ENDBRANCH  25  26
ENDBRANCH  10  25
TORSDOF 7
