REMARK  Name = ZINC11911850
REMARK  11 active torsions:
REMARK  status: ('A' for Active; 'I' for Inactive)
REMARK    1  A    between atoms: C_1  and  C_2
REMARK    2  A    between atoms: C_9  and  C_20
REMARK    3  A    between atoms: N_11  and  C_12
REMARK    4  A    between atoms: N_11  and  C_13
REMARK    5  A    between atoms: C_13  and  C_14
REMARK    6  A    between atoms: C_20  and  N_21
REMARK    7  A    between atoms: N_21  and  C_22
REMARK    8  A    between atoms: C_22  and  C_23
REMARK    9  A    between atoms: C_29  and  C_31
REMARK   10  A    between atoms: C_34  and  O_37
REMARK   11  A    between atoms: O_37  and  C_38
REMARK                            x       y       z     vdW  Elec       q    Type
REMARK                         _______ _______ _______ _____ _____    ______ ____
ROOT
ATOM      1  C   UNL     1      -6.196  -6.935   5.984  0.00  0.00    +0.044 C 
ATOM      2  C   UNL     1      -6.460  -5.574   5.395  0.00  0.00    -0.050 A 
ATOM      3  C   UNL     1      -6.458  -4.454   6.223  0.00  0.00    +0.005 A 
ATOM      4  C   UNL     1      -6.693  -3.210   5.722  0.00  0.00    +0.026 A 
ATOM      5  C   UNL     1      -6.940  -3.046   4.348  0.00  0.00    +0.048 A 
ATOM      6  C   UNL     1      -6.940  -4.186   3.508  0.00  0.00    -0.001 A 
ATOM      7  C   UNL     1      -6.695  -5.454   4.059  0.00  0.00    +0.013 A 
ATOM      8  C   UNL     1      -7.187  -4.023   2.130  0.00  0.00    +0.018 A 
ATOM      9  C   UNL     1      -7.417  -2.765   1.660  0.00  0.00    +0.008 A 
ATOM     10  C   UNL     1      -7.399  -1.675   2.542  0.00  0.00    +0.104 A 
ATOM     11  N   UNL     1      -7.629  -0.400   2.048  0.00  0.00    -0.314 N 
ATOM     12  C   UNL     1      -9.068  -0.115   1.977  0.00  0.00    +0.131 C 
ATOM     13  N   UNL     1      -7.172  -1.774   3.876  0.00  0.00    -0.343 N 
ATOM     14  H   UNL     1      -7.173  -0.953   4.493  0.00  0.00    +0.167 HD
ENDROOT
BRANCH  11  15
ATOM     15  C   UNL     1      -6.932   0.611   2.854  0.00  0.00    +0.160 C 
BRANCH  15  16
ATOM     16  C   UNL     1      -6.999   1.944   2.156  0.00  0.00    +0.053 A 
ATOM     17  C   UNL     1      -7.914   2.916   2.378  0.00  0.00    +0.045 A 
ATOM     18  C   UNL     1      -7.621   3.986   1.526  0.00  0.00    +0.134 A 
ATOM     19  N   UNL     1      -6.568   3.668   0.819  0.00  0.00    -0.182 NA
ATOM     20  N   UNL     1      -6.153   2.386   1.202  0.00  0.00    -0.280 N 
ATOM     21  H   UNL     1      -5.370   1.887   0.833  0.00  0.00    +0.189 HD
ENDBRANCH  15  16
ENDBRANCH  11  15
BRANCH   9  22
ATOM     22  C   UNL     1      -7.685  -2.544   0.193  0.00  0.00    +0.146 C 
BRANCH  22  23
ATOM     23  N   UNL     1      -6.457  -2.094  -0.465  0.00  0.00    -0.291 N 
ATOM     24  C   UNL     1      -5.603  -2.996  -0.988  0.00  0.00    +0.247 C 
ATOM     25  O   UNL     1      -5.900  -4.175  -1.006  0.00  0.00    -0.270 OA
BRANCH  24  26
ATOM     26  C   UNL     1      -4.307  -2.553  -1.538  0.00  0.00    +0.037 A 
ATOM     27  C   UNL     1      -3.846  -3.072  -2.751  0.00  0.00    +0.016 A 
ATOM     28  C   UNL     1      -2.637  -2.656  -3.261  0.00  0.00    +0.046 A 
ATOM     29  C   UNL     1      -1.874  -1.721  -2.571  0.00  0.00    +0.120 A 
ATOM     30  C   UNL     1      -2.326  -1.206  -1.362  0.00  0.00    +0.046 A 
ATOM     31  C   UNL     1      -3.537  -1.613  -0.848  0.00  0.00    +0.016 A 
BRANCH  29  32
ATOM     32  O   UNL     1      -0.683  -1.313  -3.077  0.00  0.00    -0.495 OA
ATOM     33  C   UNL     1       0.050  -0.350  -2.317  0.00  0.00    +0.277 C 
ENDBRANCH  29  32
ENDBRANCH  24  26
BRANCH  23  34
ATOM     34  C   UNL     1      -6.156  -0.663  -0.556  0.00  0.00    +0.140 C 
BRANCH  34  35
ATOM     35  C   UNL     1      -6.609  -0.132  -1.917  0.00  0.00    +0.136 C 
ATOM     36  C   UNL     1      -6.297   1.374  -2.023  0.00  0.00    +0.035 C 
ATOM     37  C   UNL     1      -5.373   1.484  -3.260  0.00  0.00    +0.031 C 
ATOM     38  C   UNL     1      -5.693   0.173  -4.022  0.00  0.00    +0.160 C 
ATOM     39  O   UNL     1      -5.882  -0.793  -2.966  0.00  0.00    -0.375 OA
ENDBRANCH  34  35
ENDBRANCH  23  34
ENDBRANCH  22  23
ENDBRANCH   9  22
TORSDOF 8
