REMARK  Name = ZINC39664265
REMARK  6 active torsions:
REMARK  status: ('A' for Active; 'I' for Inactive)
REMARK    1  A    between atoms: C_4  and  C_7
REMARK    2  A    between atoms: C_7  and  C_9
REMARK    3  A    between atoms: C_7  and  N_34
REMARK    4  A    between atoms: C_9  and  N_10
REMARK    5  A    between atoms: C_11  and  C_13
REMARK    6  A    between atoms: C_24  and  C_26
REMARK                            x       y       z     vdW  Elec       q    Type
REMARK                         _______ _______ _______ _____ _____    ______ ____
ROOT
ATOM      1  C   UNL     1       7.102  -3.215   2.613  0.00  0.00    +0.100 C 
ATOM      2  C   UNL     1       8.309  -2.462   2.011  0.00  0.00    +0.121 C 
ATOM      3  N   UNL     1       8.964  -1.815   3.172  0.00  0.00    -0.296 N 
ATOM      4  C   UNL     1       8.877  -2.824   4.255  0.00  0.00    +0.115 C 
ATOM      5  C   UNL     1       7.480  -3.454   4.085  0.00  0.00    -0.004 C 
ATOM      6  C   UNL     1       6.476  -2.767   5.006  0.00  0.00    -0.010 C 
ATOM      7  C   UNL     1       6.841  -3.065   6.463  0.00  0.00    -0.082 C 
ATOM      8  N   UNL     1       6.825  -4.516   6.686  0.00  0.00    +0.379 N 
ATOM      9  C   UNL     1       7.857  -5.160   5.863  0.00  0.00    -0.082 C 
ATOM     10  C   UNL     1       7.536  -4.950   4.381  0.00  0.00    -0.010 C 
ATOM     11  C   UNL     1       9.514  -0.586   3.231  0.00  0.00    +0.252 C 
ATOM     12  O   UNL     1      10.018  -0.194   4.266  0.00  0.00    -0.270 OA
ATOM     13  H   UNL     1       7.005  -4.708   7.660  0.00  0.00    -0.086 HD
ATOM     14  H   UNL     1       5.920  -4.884   6.435  0.00  0.00    -0.086 HD
ENDROOT
BRANCH  11  15
ATOM     15  C   UNL     1       9.505   0.284   2.039  0.00  0.00    +0.107 A 
ATOM     16  C   UNL     1       8.440   1.163   1.818  0.00  0.00    +0.138 A 
ATOM     17  C   UNL     1       8.440   1.975   0.699  0.00  0.00    +0.039 A 
ATOM     18  C   UNL     1       9.489   1.920  -0.200  0.00  0.00    +0.006 A 
ATOM     19  C   UNL     1      10.546   1.053   0.011  0.00  0.00    +0.039 A 
ATOM     20  C   UNL     1      10.565   0.239   1.127  0.00  0.00    +0.138 A 
ATOM     21  F   UNL     1      11.601  -0.603   1.334  0.00  0.00    -0.205 F 
ATOM     22  F   UNL     1       7.414   1.218   2.695  0.00  0.00    -0.205 F 
ENDBRANCH  11  15
BRANCH   1  24
ATOM     23  N   UNL     1       4.647  -2.960   2.447  0.00  0.00    -0.313 N 
ATOM     24  C   UNL     1       5.857  -2.371   2.521  0.00  0.00    +0.218 C 
ATOM     25  O   UNL     1       5.944  -1.161   2.515  0.00  0.00    -0.275 OA
ATOM     26  H   UNL     1       4.578  -3.927   2.452  0.00  0.00    +0.149 HD
BRANCH  23  27
ATOM     27  C   UNL     1       3.437  -2.139   2.357  0.00  0.00    +0.127 C 
BRANCH  27  28
ATOM     28  C   UNL     1       2.204  -3.043   2.385  0.00  0.00    +0.104 C 
BRANCH  28  32
ATOM     29  C   UNL     1       2.221  -5.584  -1.049  0.00  0.00    +0.000 A 
ATOM     30  C   UNL     1       2.649  -6.070   0.172  0.00  0.00    +0.000 A 
ATOM     31  C   UNL     1       2.644  -5.248   1.284  0.00  0.00    +0.005 A 
ATOM     32  C   UNL     1       2.211  -3.939   1.174  0.00  0.00    -0.029 A 
ATOM     33  C   UNL     1       1.783  -3.453  -0.048  0.00  0.00    +0.005 A 
ATOM     34  C   UNL     1       1.787  -4.276  -1.159  0.00  0.00    +0.000 A 
ENDBRANCH  28  32
BRANCH  28  35
ATOM     35  N   UNL     1       0.990  -2.217   2.376  0.00  0.00    -0.290 NA
ATOM     36  C   UNL     1       0.983  -1.278   3.508  0.00  0.00    +0.113 C 
ATOM     37  C   UNL     1      -0.267  -0.398   3.426  0.00  0.00    +0.175 C 
ATOM     38  O   UNL     1      -1.430  -1.230   3.406  0.00  0.00    -0.377 OA
ATOM     39  C   UNL     1      -1.456  -2.156   2.316  0.00  0.00    +0.175 C 
ATOM     40  C   UNL     1      -0.218  -3.054   2.386  0.00  0.00    +0.113 C 
ENDBRANCH  28  35
ENDBRANCH  27  28
ENDBRANCH  23  27
ENDBRANCH   1  24
TORSDOF 6
