REMARK  Name = ZINC63182708
REMARK  10 active torsions:
REMARK  status: ('A' for Active; 'I' for Inactive)
REMARK    1  A    between atoms: C_1  and  C_2
REMARK    2  A    between atoms: C_5  and  N_9
REMARK    3  A    between atoms: C_7  and  C_8
REMARK    4  A    between atoms: C_10  and  C_37
REMARK    5  A    between atoms: C_13  and  C_16
REMARK    6  A    between atoms: C_14  and  C_15
REMARK    7  A    between atoms: C_16  and  C_18
REMARK    8  A    between atoms: C_18  and  N_19
REMARK    9  A    between atoms: C_22  and  C_27
REMARK   10  A    between atoms: C_27  and  C_28
REMARK                            x       y       z     vdW  Elec       q    Type
REMARK                         _______ _______ _______ _____ _____    ______ ____
ROOT
ATOM      1  N   UNL     1       0.368  -9.620   2.466  0.00  0.00    -0.217 N 
ATOM      2  C   UNL     1       1.540 -10.052   2.972  0.00  0.00    +0.244 C 
ATOM      3  O   UNL     1       2.653  -9.795   2.564  0.00  0.00    -0.273 OA
ATOM      4  C   UNL     1       1.178 -10.923   4.158  0.00  0.00    +0.165 C 
ATOM      5  N   UNL     1      -0.294 -10.878   4.184  0.00  0.00    -0.287 N 
ATOM      6  C   UNL     1      -0.673 -10.089   3.163  0.00  0.00    +0.310 C 
ATOM      7  O   UNL     1      -1.832  -9.835   2.900  0.00  0.00    -0.252 OA
ATOM      8  H   UNL     1      -0.876 -11.326   4.817  0.00  0.00    +0.151 HD
ENDROOT
BRANCH   1   9
ATOM      9  C   UNL     1       0.249  -8.741   1.300  0.00  0.00    +0.197 C 
BRANCH   9  10
ATOM     10  C   UNL     1       0.265  -7.303   1.751  0.00  0.00    +0.178 C 
ATOM     11  O   UNL     1       0.366  -7.038   2.933  0.00  0.00    -0.291 OA
BRANCH  10  15
ATOM     12  N   UNL     1       0.053  -4.168  -0.021  0.00  0.00    -0.300 N 
ATOM     13  C   UNL     1      -0.040  -5.006  -1.224  0.00  0.00    +0.080 C 
ATOM     14  C   UNL     1       0.033  -6.449  -0.690  0.00  0.00    +0.062 C 
ATOM     15  C   UNL     1       0.163  -6.271   0.808  0.00  0.00    +0.015 C 
ATOM     16  C   UNL     1       0.170  -4.950   1.079  0.00  0.00    +0.015 C 
ATOM     17  C   UNL     1       0.292  -4.396   2.475  0.00  0.00    +0.061 C 
ATOM     18  C   UNL     1       1.132  -4.722  -2.166  0.00  0.00    +0.029 C 
BRANCH  12  23
ATOM     19  C   UNL     1      -0.039   1.502   0.015  0.00  0.00    +0.044 C 
ATOM     20  C   UNL     1      -0.015  -0.004   0.005  0.00  0.00    -0.047 A 
ATOM     21  C   UNL     1      -1.155  -0.711  -0.333  0.00  0.00    +0.005 A 
ATOM     22  C   UNL     1      -1.136  -2.091  -0.343  0.00  0.00    +0.024 A 
ATOM     23  C   UNL     1       0.031  -2.771  -0.012  0.00  0.00    +0.034 A 
ATOM     24  C   UNL     1       1.174  -2.058   0.326  0.00  0.00    +0.027 A 
ATOM     25  C   UNL     1       1.149  -0.677   0.329  0.00  0.00    -0.046 A 
ATOM     26  C   UNL     1       2.391   0.097   0.690  0.00  0.00    +0.044 C 
ENDBRANCH  12  23
ENDBRANCH  10  15
ENDBRANCH   9  10
ENDBRANCH   1   9
BRANCH   4  27
ATOM     27  C   UNL     1       1.761 -10.345   5.449  0.00  0.00    +0.065 C 
BRANCH  27  28
ATOM     28  C   UNL     1       1.492 -11.292   6.590  0.00  0.00    -0.039 C 
ATOM     29  C   UNL     1       2.325 -12.243   7.072  0.00  0.00    -0.001 A 
ATOM     30  C   UNL     1       3.679 -12.664   6.692  0.00  0.00    +0.010 A 
ATOM     31  C   UNL     1       4.269 -13.670   7.376  0.00  0.00    +0.001 A 
ATOM     32  C   UNL     1       3.622 -14.319   8.436  0.00  0.00    +0.002 A 
ATOM     33  C   UNL     1       2.379 -13.989   8.844  0.00  0.00    +0.026 A 
ATOM     34  C   UNL     1       1.664 -12.944   8.195  0.00  0.00    +0.043 A 
ATOM     35  N   UNL     1       0.468 -12.447   8.400  0.00  0.00    -0.380 N 
ATOM     36  C   UNL     1       0.238 -11.368   7.432  0.00  0.00    +0.144 C 
ATOM     37  H   UNL     1      -0.158 -12.740   9.080  0.00  0.00    +0.160 HD
ENDBRANCH  27  28
ENDBRANCH   4  27
TORSDOF 6
