REMARK  Name = ZINC18199593
REMARK  6 active torsions:
REMARK  status: ('A' for Active; 'I' for Inactive)
REMARK    1  A    between atoms: C_1  and  C_2
REMARK    2  A    between atoms: C_2  and  C_4
REMARK    3  A    between atoms: C_2  and  C_14
REMARK    4  A    between atoms: C_4  and  C_5
REMARK    5  A    between atoms: C_28  and  N_32
REMARK    6  A    between atoms: C_29  and  C_30
REMARK                            x       y       z     vdW  Elec       q    Type
REMARK                         _______ _______ _______ _____ _____    ______ ____
ROOT
ATOM      1  C   UNL     1      -5.002   1.081   0.031  0.00  0.00    +0.078 C 
ATOM      2  C   UNL     1      -3.662   1.766   0.029  0.00  0.00    +0.088 A 
ATOM      3  C   UNL     1      -2.510   1.037   0.018  0.00  0.00    +0.151 A 
ATOM      4  C   UNL     1      -1.229   1.762   0.017  0.00  0.00    +0.060 A 
ATOM      5  C   UNL     1      -0.013   1.076   0.008  0.00  0.00    +0.015 A 
ATOM      6  C   UNL     1       1.168   1.785   0.001  0.00  0.00    +0.001 A 
ATOM      7  C   UNL     1       1.152   3.172   0.008  0.00  0.00    +0.004 A 
ATOM      8  C   UNL     1      -0.042   3.861   0.024  0.00  0.00    +0.047 A 
ATOM      9  C   UNL     1      -1.244   3.166   0.032  0.00  0.00    +0.143 A 
ATOM     10  O   UNL     1      -2.423   3.824   0.048  0.00  0.00    -0.422 OA
ATOM     11  C   UNL     1      -3.596   3.170   0.040  0.00  0.00    +0.345 A 
ATOM     12  O   UNL     1      -4.632   3.812   0.051  0.00  0.00    -0.245 OA
ATOM     13  O   UNL     1      -2.527  -0.309   0.007  0.00  0.00    -0.440 OA
ATOM     14  C   UNL     1      -3.635  -0.970   0.385  0.00  0.00    +0.198 C 
ATOM     15  C   UNL     1      -4.846  -0.364   0.418  0.00  0.00    +0.094 C 
ENDROOT
BRANCH  14  16
ATOM     16  N   UNL     1      -3.537  -2.291   0.747  0.00  0.00    -0.328 N 
ATOM     17  H   UNL     1      -2.676  -2.736   0.727  0.00  0.00    +0.145 HD
ATOM     18  H   UNL     1      -4.329  -2.778   1.022  0.00  0.00    +0.145 HD
ENDBRANCH  14  16
BRANCH   1  20
ATOM     19  C   UNL     1      -5.775   2.635  -1.766  0.00  0.00    +0.009 C 
ATOM     20  C   UNL     1      -5.616   1.166  -1.368  0.00  0.00    +0.003 C 
BRANCH  20  21
ATOM     21  C   UNL     1      -6.986   0.487  -1.366  0.00  0.00    +0.039 C 
BRANCH  21  22
ATOM     22  C   UNL     1      -7.537   0.462  -2.768  0.00  0.00    -0.043 A 
ATOM     23  C   UNL     1      -8.319   1.509  -3.221  0.00  0.00    +0.007 A 
ATOM     24  C   UNL     1      -8.822   1.494  -4.508  0.00  0.00    +0.050 A 
ATOM     25  C   UNL     1      -8.553   0.423  -5.345  0.00  0.00    +0.166 A 
ATOM     26  C   UNL     1      -7.770  -0.634  -4.888  0.00  0.00    +0.166 A 
ATOM     27  C   UNL     1      -7.264  -0.609  -3.598  0.00  0.00    +0.053 A 
ATOM     28  O   UNL     1      -7.651  -1.554  -5.889  0.00  0.00    -0.453 OA
ATOM     29  C   UNL     1      -8.704  -1.246  -6.821  0.00  0.00    +0.466 C 
ATOM     30  O   UNL     1      -8.926   0.164  -6.633  0.00  0.00    -0.453 OA
ENDBRANCH  21  22
ENDBRANCH  20  21
ENDBRANCH   1  20
BRANCH  15  31
ATOM     31  C   UNL     1      -5.997  -1.110   0.830  0.00  0.00    +0.100 C 
ATOM     32  N   UNL     1      -6.909  -1.703   1.157  0.00  0.00    -0.191 NA
ENDBRANCH  15  31
TORSDOF 5
