REMARK  Name = ZINC48260308
REMARK  12 active torsions:
REMARK  status: ('A' for Active; 'I' for Inactive)
REMARK    1  A    between atoms: C_1  and  C_2
REMARK    2  A    between atoms: C_2  and  C_4
REMARK    3  A    between atoms: C_2  and  N_16
REMARK    4  A    between atoms: N_9  and  C_10
REMARK    5  A    between atoms: N_16  and  C_17
REMARK    6  A    between atoms: N_16  and  C_18
REMARK    7  A    between atoms: C_18  and  C_19
REMARK    8  A    between atoms: C_27  and  O_29
REMARK    9  A    between atoms: O_29  and  C_30
REMARK   10  A    between atoms: C_30  and  C_31
REMARK   11  A    between atoms: C_30  and  C_32
REMARK   12  A    between atoms: C_30  and  C_33
REMARK                            x       y       z     vdW  Elec       q    Type
REMARK                         _______ _______ _______ _____ _____    ______ ____
ROOT
ATOM      1  N   UNL     1      -1.147  -0.910  -0.285  0.00  0.00    +0.391 N 
ATOM      2  C   UNL     1      -0.669  -2.293  -0.413  0.00  0.00    -0.094 C 
ATOM      3  H   UNL     1      -1.936  -0.884   0.343  0.00  0.00    -0.080 HD
ENDROOT
BRANCH   1   5
ATOM      4  C   UNL     1      -0.547   1.385   0.325  0.00  0.00    -0.004 C 
ATOM      5  C   UNL     1      -0.068  -0.067   0.246  0.00  0.00    +0.017 C 
BRANCH   5   6
ATOM      6  C   UNL     1       0.311  -0.545   1.624  0.00  0.00    +0.207 C 
ATOM      7  O   UNL     1      -0.503  -1.125   2.310  0.00  0.00    -0.277 OA
ATOM      8  N   UNL     1       1.556  -0.329   2.094  0.00  0.00    -0.242 N 
ATOM      9  C   UNL     1       1.895  -0.757   3.326  0.00  0.00    +0.306 C 
ATOM     10  O   UNL     1       1.079  -1.339   4.013  0.00  0.00    -0.252 OA
ATOM     11  N   UNL     1       3.140  -0.541   3.795  0.00  0.00    -0.296 N 
ATOM     12  H   UNL     1       2.207   0.135   1.545  0.00  0.00    +0.159 HD
ATOM     13  H   UNL     1       3.791  -0.077   3.247  0.00  0.00    +0.151 HD
BRANCH  11  14
ATOM     14  C   UNL     1       3.508  -1.007   5.134  0.00  0.00    +0.074 C 
ATOM     15  C   UNL     1       3.948  -2.470   5.062  0.00  0.00    +0.022 C 
ATOM     16  C   UNL     1       4.333  -2.957   6.461  0.00  0.00    +0.002 C 
ATOM     17  C   UNL     1       5.485  -2.104   6.998  0.00  0.00    +0.000 C 
ATOM     18  C   UNL     1       5.045  -0.640   7.070  0.00  0.00    +0.002 C 
ATOM     19  C   UNL     1       4.660  -0.154   5.672  0.00  0.00    +0.022 C 
ENDBRANCH  11  14
ENDBRANCH   5   6
ENDBRANCH   1   5
BRANCH   1  20
ATOM     20  C   UNL     1      -1.555  -0.409  -1.605  0.00  0.00    +0.019 C 
BRANCH  20  21
ATOM     21  C   UNL     1      -2.742  -1.197  -2.096  0.00  0.00    +0.199 C 
ATOM     22  O   UNL     1      -3.202  -2.089  -1.414  0.00  0.00    -0.278 OA
ATOM     23  N   UNL     1      -3.292  -0.912  -3.293  0.00  0.00    -0.300 N 
ATOM     24  C   UNL     1      -2.741   0.162  -4.132  0.00  0.00    +0.127 C 
ATOM     25  C   UNL     1      -2.401  -0.419  -5.511  0.00  0.00    +0.130 C 
ATOM     26  N   UNL     1      -3.563  -1.176  -6.000  0.00  0.00    -0.264 N 
ATOM     27  C   UNL     1      -4.114  -2.249  -5.161  0.00  0.00    +0.130 C 
ATOM     28  C   UNL     1      -4.449  -1.672  -3.785  0.00  0.00    +0.127 C 
ATOM     29  C   UNL     1      -4.112  -0.890  -7.197  0.00  0.00    +0.403 C 
ATOM     30  O   UNL     1      -3.648  -0.000  -7.882  0.00  0.00    -0.226 OA
BRANCH  29  31
ATOM     31  O   UNL     1      -5.176  -1.591  -7.634  0.00  0.00    -0.445 OA
BRANCH  31  32
ATOM     32  C   UNL     1      -5.707  -1.234  -8.911  0.00  0.00    +0.107 C 
ATOM     33  C   UNL     1      -4.628  -1.415  -9.981  0.00  0.00    +0.055 C 
ATOM     34  C   UNL     1      -6.902  -2.133  -9.235  0.00  0.00    +0.055 C 
ATOM     35  C   UNL     1      -6.160   0.227  -8.886  0.00  0.00    +0.055 C 
ENDBRANCH  31  32
ENDBRANCH  29  31
ENDBRANCH  20  21
ENDBRANCH   1  20
TORSDOF 7
