REMARK  Name = ZINC40344014
REMARK  7 active torsions:
REMARK  status: ('A' for Active; 'I' for Inactive)
REMARK    1  A    between atoms: C_1  and  O_2
REMARK    2  A    between atoms: O_2  and  C_3
REMARK    3  A    between atoms: C_6  and  C_9
REMARK    4  A    between atoms: N_17  and  C_29
REMARK    5  A    between atoms: C_18  and  C_20
REMARK    6  A    between atoms: C_23  and  N_26
REMARK    7  A    between atoms: C_29  and  C_30
REMARK                            x       y       z     vdW  Elec       q    Type
REMARK                         _______ _______ _______ _____ _____    ______ ____
ROOT
ATOM      1  C   UNL     1       2.496  -2.495  -4.367  0.00  0.00    +0.099 A 
ATOM      2  C   UNL     1       3.223  -3.689  -4.335  0.00  0.00    +0.035 A 
ATOM      3  C   UNL     1       3.643  -3.909  -5.633  0.00  0.00    +0.126 A 
ATOM      4  N   UNL     1       3.163  -2.864  -6.369  0.00  0.00    -0.272 N 
ATOM      5  H   UNL     1       3.300  -2.745  -7.322  0.00  0.00    +0.189 HD
ATOM      6  N   UNL     1       2.498  -2.064  -5.613  0.00  0.00    -0.173 NA
ATOM      7  C   UNL     1       4.416  -5.156  -5.668  0.00  0.00    +0.266 C 
ATOM      8  O   UNL     1       4.927  -5.628  -6.666  0.00  0.00    -0.268 OA
ATOM      9  N   UNL     1       4.481  -5.701  -4.440  0.00  0.00    -0.281 N 
ATOM     10  C   UNL     1       3.745  -4.835  -3.511  0.00  0.00    +0.142 C 
ENDROOT
BRANCH   1  14
ATOM     11  C   UNL     1       0.606  -0.607  -1.056  0.00  0.00    +0.120 A 
ATOM     12  C   UNL     1       1.173   0.164  -2.062  0.00  0.00    +0.046 A 
ATOM     13  C   UNL     1       1.786  -0.446  -3.136  0.00  0.00    +0.013 A 
ATOM     14  C   UNL     1       1.837  -1.836  -3.211  0.00  0.00    +0.003 A 
ATOM     15  C   UNL     1       1.267  -2.607  -2.200  0.00  0.00    +0.013 A 
ATOM     16  C   UNL     1       0.659  -1.992  -1.125  0.00  0.00    +0.046 A 
BRANCH  11  18
ATOM     17  C   UNL     1      -0.017   1.425   0.010  0.00  0.00    +0.277 C 
ATOM     18  O   UNL     1       0.002  -0.004   0.002  0.00  0.00    -0.495 OA
ENDBRANCH  11  18
ENDBRANCH   1  14
BRANCH  10  19
ATOM     19  C   UNL     1       4.669  -4.321  -2.437  0.00  0.00    -0.022 A 
ATOM     20  C   UNL     1       5.976  -3.997  -2.747  0.00  0.00    +0.008 A 
ATOM     21  C   UNL     1       6.824  -3.526  -1.761  0.00  0.00    +0.033 A 
ATOM     22  C   UNL     1       6.364  -3.380  -0.466  0.00  0.00    +0.126 A 
ATOM     23  C   UNL     1       5.056  -3.703  -0.156  0.00  0.00    +0.033 A 
ATOM     24  C   UNL     1       4.207  -4.170  -1.143  0.00  0.00    +0.008 A 
BRANCH  22  25
ATOM     25  N   UNL     1       7.272  -2.877   0.589  0.00  0.00    +0.056 N 
ATOM     26  O   UNL     1       8.416  -2.594   0.319  0.00  0.00    -0.126 OA
ATOM     27  O   UNL     1       6.869  -2.748   1.722  0.00  0.00    -0.126 OA
ENDBRANCH  22  25
ENDBRANCH  10  19
BRANCH   9  28
ATOM     28  C   UNL     1       5.169  -6.947  -4.090  0.00  0.00    +0.144 C 
BRANCH  28  29
ATOM     29  C   UNL     1       6.595  -6.643  -3.707  0.00  0.00    -0.030 A 
ATOM     30  C   UNL     1       7.583  -6.634  -4.674  0.00  0.00    +0.006 A 
ATOM     31  C   UNL     1       8.890  -6.355  -4.324  0.00  0.00    +0.020 A 
ATOM     32  C   UNL     1       9.210  -6.085  -3.005  0.00  0.00    +0.041 A 
ATOM     33  C   UNL     1       8.221  -6.094  -2.038  0.00  0.00    +0.020 A 
ATOM     34  C   UNL     1       6.913  -6.368  -2.390  0.00  0.00    +0.006 A 
ATOM     35 CL   UNL     1      10.853  -5.736  -2.564  0.00  0.00    -0.084 Cl
ENDBRANCH  28  29
ENDBRANCH   9  28
TORSDOF 6
