REMARK  Name = ZINC07660085
REMARK  12 active torsions:
REMARK  status: ('A' for Active; 'I' for Inactive)
REMARK    1  A    between atoms: C_1  and  C_2
REMARK    2  A    between atoms: C_5  and  C_8
REMARK    3  A    between atoms: C_11  and  C_14
REMARK    4  A    between atoms: C_19  and  C_21
REMARK    5  A    between atoms: C_21  and  N_60
REMARK    6  A    between atoms: C_22  and  N_60
REMARK    7  A    between atoms: C_23  and  C_24
REMARK    8  A    between atoms: C_23  and  N_60
REMARK    9  A    between atoms: N_26  and  C_27
REMARK   10  A    between atoms: C_27  and  C_28
REMARK   11  A    between atoms: C_27  and  C_29
REMARK   12  A    between atoms: C_27  and  C_30
REMARK                            x       y       z     vdW  Elec       q    Type
REMARK                         _______ _______ _______ _____ _____    ______ ____
ROOT
ATOM      1  C   UNL     1       6.776   1.149   8.332  0.00  0.00    +0.069 C 
ATOM      2  N   UNL     1       5.863   1.086   7.426  0.00  0.00    -0.181 NA
ATOM      3  N   UNL     1       6.144   1.828   6.281  0.00  0.00    -0.184 N 
ATOM      4  C   UNL     1       7.444   2.497   6.455  0.00  0.00    +0.172 C 
ATOM      5  C   UNL     1       7.897   2.046   7.858  0.00  0.00    +0.090 C 
ATOM      6  C   UNL     1       5.354   1.923   5.193  0.00  0.00    +0.219 C 
ATOM      7  O   UNL     1       5.697   2.605   4.251  0.00  0.00    -0.276 OA
ENDROOT
BRANCH   1  12
ATOM      8  C   UNL     1       6.603  -1.546  13.410  0.00  0.00    +0.044 C 
ATOM      9  C   UNL     1       6.648  -0.839  12.080  0.00  0.00    -0.050 A 
ATOM     10  C   UNL     1       5.604  -0.991  11.184  0.00  0.00    +0.004 A 
ATOM     11  C   UNL     1       5.639  -0.347   9.964  0.00  0.00    +0.010 A 
ATOM     12  C   UNL     1       6.731   0.458   9.634  0.00  0.00    -0.002 A 
ATOM     13  C   UNL     1       7.784   0.602  10.541  0.00  0.00    +0.010 A 
ATOM     14  C   UNL     1       7.733  -0.043  11.759  0.00  0.00    +0.004 A 
ENDBRANCH   1  12
BRANCH   4  15
ATOM     15  C   UNL     1       7.280   3.994   6.407  0.00  0.00    +0.128 A 
ATOM     16  C   UNL     1       8.130   4.861   5.828  0.00  0.00    +0.046 A 
ATOM     17  C   UNL     1       7.591   6.154   6.018  0.00  0.00    +0.041 A 
ATOM     18  C   UNL     1       6.443   6.000   6.703  0.00  0.00    +0.195 A 
ATOM     19  O   UNL     1       6.257   4.690   6.931  0.00  0.00    -0.466 OA
ENDBRANCH   4  15
BRANCH   6  20
ATOM     20  C   UNL     1       4.043   1.180   5.148  0.00  0.00    +0.021 C 
BRANCH  20  22
ATOM     21  C   UNL     1       4.137   0.876   2.748  0.00  0.00    -0.095 C 
ATOM     22  N   UNL     1       3.373   1.474   3.863  0.00  0.00    +0.389 N 
ATOM     23  H   UNL     1       3.333   2.491   3.733  0.00  0.00    -0.081 HD
BRANCH  22  24
ATOM     24  C   UNL     1       1.996   0.937   3.877  0.00  0.00    +0.019 C 
BRANCH  24  25
ATOM     25  C   UNL     1       1.268   1.436   2.656  0.00  0.00    +0.197 C 
ATOM     26  O   UNL     1       1.840   2.145   1.857  0.00  0.00    -0.278 OA
ATOM     27  N   UNL     1      -0.020   1.094   2.454  0.00  0.00    -0.312 N 
ATOM     28  H   UNL     1      -0.478   0.526   3.094  0.00  0.00    +0.149 HD
BRANCH  27  29
ATOM     29  C   UNL     1      -0.729   1.579   1.267  0.00  0.00    +0.026 C 
ATOM     30  C   UNL     1      -0.013   1.086   0.008  0.00  0.00    +0.031 C 
ATOM     31  C   UNL     1      -0.750   3.109   1.275  0.00  0.00    +0.031 C 
ATOM     32  C   UNL     1      -2.164   1.050   1.278  0.00  0.00    +0.031 C 
ENDBRANCH  27  29
ENDBRANCH  24  25
ENDBRANCH  22  24
ENDBRANCH  20  22
ENDBRANCH   6  20
TORSDOF 7
