REMARK  Name = ZINC21218578
REMARK  8 active torsions:
REMARK  status: ('A' for Active; 'I' for Inactive)
REMARK    1  A    between atoms: C_1  and  C_2
REMARK    2  A    between atoms: C_2  and  C_3
REMARK    3  A    between atoms: C_2  and  O_4
REMARK    4  A    between atoms: O_4  and  C_5
REMARK    5  A    between atoms: C_8  and  C_13
REMARK    6  A    between atoms: C_10  and  O_11
REMARK    7  A    between atoms: O_11  and  C_12
REMARK    8  A    between atoms: C_18  and  C_28
REMARK                            x       y       z     vdW  Elec       q    Type
REMARK                         _______ _______ _______ _____ _____    ______ ____
ROOT
ATOM      1  C   UNL     1       3.465  -1.600  -3.034  0.00  0.00    +0.032 C 
ATOM      2  C   UNL     1       2.855  -2.280  -1.809  0.00  0.00    +0.059 C 
ATOM      3  C   UNL     1       1.908  -1.323  -1.103  0.00  0.00    +0.017 C 
ATOM      4  C   UNL     1       2.145  -0.001  -1.112  0.00  0.00    +0.036 C 
ATOM      5  C   UNL     1       1.291   1.057  -0.455  0.00  0.00    +0.136 C 
ATOM      6  N   UNL     1       0.282   0.538   0.445  0.00  0.00    -0.331 N 
ATOM      7  C   UNL     1      -0.761  -0.254  -0.030  0.00  0.00    +0.049 A 
ATOM      8  C   UNL     1      -2.074   0.189  -0.002  0.00  0.00    +0.025 A 
ATOM      9  C   UNL     1      -3.072  -0.603  -0.543  0.00  0.00    +0.002 A 
ATOM     10  C   UNL     1      -2.765  -1.827  -1.109  0.00  0.00    +0.002 A 
ATOM     11  C   UNL     1      -1.457  -2.281  -1.122  0.00  0.00    +0.025 A 
ATOM     12  C   UNL     1      -0.462  -1.498  -0.564  0.00  0.00    +0.052 A 
ATOM     13  N   UNL     1       0.860  -1.922  -0.481  0.00  0.00    -0.316 N 
ATOM     14  C   UNL     1       3.273   0.517  -1.792  0.00  0.00    +0.163 C 
ATOM     15  O   UNL     1       3.477   1.715  -1.761  0.00  0.00    -0.292 OA
ATOM     16  C   UNL     1       4.225  -0.360  -2.549  0.00  0.00    +0.088 C 
ATOM     17  H   UNL     1       0.332   0.768   1.519  0.00  0.00    +0.147 HD
ATOM     18  H   UNL     1       1.027  -2.811   0.145  0.00  0.00    +0.152 HD
ENDROOT
BRANCH   1  22
ATOM     19  C   UNL     1       6.168  -4.283  -4.980  0.00  0.00    +0.162 A 
ATOM     20  C   UNL     1       6.387  -3.907  -3.665  0.00  0.00    +0.050 A 
ATOM     21  C   UNL     1       5.515  -3.035  -3.040  0.00  0.00    +0.008 A 
ATOM     22  C   UNL     1       4.416  -2.545  -3.721  0.00  0.00    -0.040 A 
ATOM     23  C   UNL     1       4.192  -2.916  -5.034  0.00  0.00    +0.053 A 
ATOM     24  C   UNL     1       5.065  -3.785  -5.668  0.00  0.00    +0.162 A 
BRANCH  24  25
ATOM     25  O   UNL     1       4.846  -4.151  -6.959  0.00  0.00    -0.491 OA
ATOM     26  C   UNL     1       3.694  -3.600  -7.603  0.00  0.00    +0.277 C 
ENDBRANCH  24  25
BRANCH  19  27
ATOM     27  O   UNL     1       7.028  -5.136  -5.598  0.00  0.00    -0.486 OA
BRANCH  27  29
ATOM     28  C   UNL     1       7.880  -6.722  -3.986  0.00  0.00    +0.051 C 
ATOM     29  C   UNL     1       8.199  -5.516  -4.872  0.00  0.00    +0.167 C 
ATOM     30  C   UNL     1       9.312  -5.884  -5.854  0.00  0.00    +0.051 C 
ENDBRANCH  27  29
ENDBRANCH  19  27
ENDBRANCH   1  22
BRANCH   5  31
ATOM     31  C   UNL     1       0.605   1.855  -1.533  0.00  0.00    -0.020 A 
ATOM     32  C   UNL     1      -0.347   1.269  -2.353  0.00  0.00    +0.025 A 
ATOM     33  C   UNL     1      -0.958   2.033  -3.329  0.00  0.00    +0.111 A 
ATOM     34  N   UNL     1      -0.639   3.303  -3.490  0.00  0.00    -0.263 NA
ATOM     35  C   UNL     1       0.265   3.892  -2.731  0.00  0.00    +0.111 A 
ATOM     36  C   UNL     1       0.914   3.192  -1.732  0.00  0.00    +0.025 A 
ENDBRANCH   5  31
TORSDOF 5
