REMARK  Name = ZINC09112781
REMARK  3 active torsions:
REMARK  status: ('A' for Active; 'I' for Inactive)
REMARK    1  A    between atoms: C_9  and  N_14
REMARK    2  A    between atoms: C_15  and  C_17
REMARK    3  A    between atoms: C_17  and  N_18
REMARK                            x       y       z     vdW  Elec       q    Type
REMARK                         _______ _______ _______ _____ _____    ______ ____
ROOT
ATOM      1  C   UNL     1      -0.435  -5.133  -9.696  0.00  0.00    +0.001 A 
ATOM      2  C   UNL     1      -1.362  -6.158  -9.593  0.00  0.00    +0.004 A 
ATOM      3  C   UNL     1      -2.184  -6.253  -8.489  0.00  0.00    +0.047 A 
ATOM      4  C   UNL     1      -2.088  -5.316  -7.467  0.00  0.00    +0.136 A 
ATOM      5  C   UNL     1      -1.150  -4.280  -7.574  0.00  0.00    +0.028 A 
ATOM      6  C   UNL     1      -0.326  -4.194  -8.691  0.00  0.00    +0.012 A 
ATOM      7  C   UNL     1      -1.301  -3.475  -6.347  0.00  0.00    +0.030 A 
ATOM      8  C   UNL     1      -0.679  -2.330  -5.861  0.00  0.00    +0.035 A 
ATOM      9  C   UNL     1      -1.061  -1.811  -4.635  0.00  0.00    +0.034 A 
ATOM     10  C   UNL     1      -2.070  -2.428  -3.902  0.00  0.00    +0.027 A 
ATOM     11  C   UNL     1      -2.693  -3.559  -4.383  0.00  0.00    +0.049 A 
ATOM     12  C   UNL     1      -2.318  -4.096  -5.609  0.00  0.00    +0.136 A 
ATOM     13  O   UNL     1      -2.754  -5.173  -6.300  0.00  0.00    -0.455 OA
ENDROOT
BRANCH   9  14
ATOM     14  N   UNL     1      -0.435  -0.661  -4.136  0.00  0.00    -0.284 N 
ATOM     15  C   UNL     1       0.868  -0.435  -4.398  0.00  0.00    +0.235 C 
ATOM     16  O   UNL     1       1.522  -1.272  -4.983  0.00  0.00    -0.274 OA
ATOM     17  H   UNL     1      -0.939  -0.027  -3.601  0.00  0.00    +0.155 HD
BRANCH  15  18
ATOM     18  C   UNL     1       1.511   0.857  -3.963  0.00  0.00    +0.204 C 
BRANCH  18  19
ATOM     19  N   UNL     1       2.920   0.859  -4.362  0.00  0.00    -0.283 N 
ATOM     20  C   UNL     1       3.294   1.385  -5.655  0.00  0.00    +0.120 C 
ATOM     21  C   UNL     1       4.811   1.314  -5.922  0.00  0.00    +0.098 C 
ATOM     22  S   UNL     1       5.405   0.554  -4.367  0.00  0.00    -0.066 S 
ATOM     23  C   UNL     1       3.846   0.373  -3.523  0.00  0.00    +0.275 C 
ATOM     24  O   UNL     1       3.660  -0.095  -2.416  0.00  0.00    -0.263 OA
ENDBRANCH  18  19
ENDBRANCH  15  18
ENDBRANCH   9  14
TORSDOF 3
