REMARK  Name = ZINC24034335
REMARK  4 active torsions:
REMARK  status: ('A' for Active; 'I' for Inactive)
REMARK    1  A    between atoms: N_9  and  C_22
REMARK    2  A    between atoms: C_10  and  C_13
REMARK    3  A    between atoms: C_18  and  O_19
REMARK    4  A    between atoms: C_22  and  C_23
REMARK                            x       y       z     vdW  Elec       q    Type
REMARK                         _______ _______ _______ _____ _____    ______ ____
ROOT
ATOM      1  C   UNL     1       2.668  -4.334  -5.767  0.00  0.00    +0.001 A 
ATOM      2  C   UNL     1       1.385  -4.766  -6.066  0.00  0.00    +0.002 A 
ATOM      3  C   UNL     1       0.368  -4.644  -5.138  0.00  0.00    +0.024 A 
ATOM      4  C   UNL     1       0.635  -4.087  -3.900  0.00  0.00    +0.041 A 
ATOM      5  C   UNL     1       1.936  -3.651  -3.592  0.00  0.00    +0.058 A 
ATOM      6  C   UNL     1       2.950  -3.777  -4.537  0.00  0.00    +0.015 A 
ATOM      7  C   UNL     1       2.183  -3.067  -2.261  0.00  0.00    +0.250 C 
ATOM      8  O   UNL     1       3.321  -2.909  -1.860  0.00  0.00    -0.270 OA
ATOM      9  N   UNL     1       1.134  -2.710  -1.492  0.00  0.00    -0.270 N 
ATOM     10  C   UNL     1      -0.239  -2.822  -1.984  0.00  0.00    +0.196 C 
ATOM     11  N   UNL     1      -0.353  -3.932  -2.934  0.00  0.00    -0.321 N 
ATOM     12  H   UNL     1      -1.207  -4.622  -2.873  0.00  0.00    +0.148 HD
ENDROOT
BRANCH  10  13
ATOM     13  C   UNL     1      -0.628  -1.540  -2.675  0.00  0.00    +0.035 A 
ATOM     14  C   UNL     1       0.345  -0.728  -3.225  0.00  0.00    +0.030 A 
ATOM     15  C   UNL     1      -0.011   0.449  -3.858  0.00  0.00    +0.043 A 
ATOM     16  C   UNL     1      -1.342   0.817  -3.942  0.00  0.00    +0.043 A 
ATOM     17  C   UNL     1      -2.319   0.007  -3.393  0.00  0.00    +0.084 A 
ATOM     18  C   UNL     1      -1.964  -1.177  -2.762  0.00  0.00    +0.142 A 
ATOM     19 CL   UNL     1      -3.989   0.469  -3.498  0.00  0.00    -0.080 Cl
ATOM     20 CL   UNL     1       1.215   1.466  -4.549  0.00  0.00    -0.083 Cl
BRANCH  18  21
ATOM     21  O   UNL     1      -2.923  -1.977  -2.226  0.00  0.00    -0.505 OA
ATOM     22  H   UNL     1      -3.982  -1.689  -2.296  0.00  0.00    +0.292 HD
ENDBRANCH  18  21
ENDBRANCH  10  13
BRANCH   9  23
ATOM     23  C   UNL     1       1.373  -2.206  -0.137  0.00  0.00    +0.145 C 
BRANCH  23  24
ATOM     24  C   UNL     1       1.476  -0.703  -0.172  0.00  0.00    -0.026 A 
ATOM     25  C   UNL     1       0.365   0.072   0.106  0.00  0.00    +0.009 A 
ATOM     26  C   UNL     1       0.455   1.451   0.076  0.00  0.00    +0.050 A 
ATOM     27  C   UNL     1       1.660   2.061  -0.232  0.00  0.00    +0.166 A 
ATOM     28  C   UNL     1       2.780   1.281  -0.511  0.00  0.00    +0.167 A 
ATOM     29  C   UNL     1       2.682  -0.101  -0.480  0.00  0.00    +0.054 A 
ATOM     30  O   UNL     1       3.831   2.108  -0.780  0.00  0.00    -0.453 OA
ATOM     31  C   UNL     1       3.246   3.393  -1.065  0.00  0.00    +0.466 C 
ATOM     32  O   UNL     1       2.010   3.377  -0.327  0.00  0.00    -0.453 OA
ENDBRANCH  23  24
ENDBRANCH   9  23
TORSDOF 4
