REMARK  Name = ZINC35497799
REMARK  14 active torsions:
REMARK  status: ('A' for Active; 'I' for Inactive)
REMARK    1  A    between atoms: C_1  and  C_2
REMARK    2  A    between atoms: C_2  and  C_3
REMARK    3  A    between atoms: C_3  and  C_5
REMARK    4  A    between atoms: C_3  and  N_15
REMARK    5  A    between atoms: N_7  and  C_8
REMARK    6  A    between atoms: C_8  and  C_9
REMARK    7  A    between atoms: C_9  and  C_10
REMARK    8  A    between atoms: C_10  and  C_11
REMARK    9  A    between atoms: C_11  and  C_12
REMARK   10  A    between atoms: C_12  and  C_13
REMARK   11  A    between atoms: C_13  and  N_14
REMARK   12  A    between atoms: N_24  and  C_27
REMARK   13  A    between atoms: C_30  and  C_34
REMARK   14  A    between atoms: C_31  and  C_33
REMARK                            x       y       z     vdW  Elec       q    Type
REMARK                         _______ _______ _______ _____ _____    ______ ____
ROOT
ATOM      1  N   UNL     1       0.141  -0.457  -2.808  0.00  0.00    -0.281 N 
ATOM      2  C   UNL     1       0.500   0.754  -3.383  0.00  0.00    +0.059 A 
ATOM      3  C   UNL     1       1.771   1.285  -3.222  0.00  0.00    +0.027 A 
ATOM      4  C   UNL     1       2.088   2.493  -3.809  0.00  0.00    +0.002 A 
ATOM      5  C   UNL     1       1.148   3.182  -4.561  0.00  0.00    +0.001 A 
ATOM      6  C   UNL     1      -0.121   2.670  -4.732  0.00  0.00    +0.015 A 
ATOM      7  C   UNL     1      -0.454   1.451  -4.144  0.00  0.00    +0.064 A 
ATOM      8  C   UNL     1      -1.794   0.858  -4.295  0.00  0.00    +0.269 A 
ATOM      9  O   UNL     1      -2.656   1.421  -4.943  0.00  0.00    -0.266 OA
ATOM     10  N   UNL     1      -2.042  -0.326  -3.694  0.00  0.00    -0.228 N 
ATOM     11  C   UNL     1      -1.095  -0.957  -2.981  0.00  0.00    +0.338 A 
ATOM     12  O   UNL     1      -1.369  -2.023  -2.465  0.00  0.00    -0.246 OA
ENDROOT
BRANCH  10  13
ATOM     13  C   UNL     1      -3.309  -0.910  -3.822  0.00  0.00    +0.055 A 
ATOM     14  C   UNL     1      -3.570  -1.781  -4.872  0.00  0.00    +0.027 A 
ATOM     15  C   UNL     1      -4.820  -2.355  -4.996  0.00  0.00    +0.005 A 
ATOM     16  C   UNL     1      -5.811  -2.064  -4.076  0.00  0.00    -0.047 A 
ATOM     17  C   UNL     1      -5.554  -1.197  -3.030  0.00  0.00    -0.046 A 
ATOM     18  C   UNL     1      -4.304  -0.624  -2.897  0.00  0.00    +0.030 A 
ATOM     19  C   UNL     1      -6.636  -0.882  -2.030  0.00  0.00    +0.044 C 
ATOM     20  C   UNL     1      -7.174  -2.692  -4.214  0.00  0.00    +0.044 C 
ENDBRANCH  10  13
BRANCH   1  21
ATOM     21  C   UNL     1       1.119  -1.201  -2.012  0.00  0.00    +0.177 C 
BRANCH  21  22
ATOM     22  C   UNL     1       1.375  -2.540  -2.653  0.00  0.00    +0.236 C 
ATOM     23  O   UNL     1       0.797  -2.844  -3.675  0.00  0.00    -0.274 OA
ATOM     24  N   UNL     1       2.246  -3.401  -2.091  0.00  0.00    -0.314 N 
ATOM     25  H   UNL     1       2.709  -3.159  -1.273  0.00  0.00    +0.149 HD
BRANCH  24  26
ATOM     26  C   UNL     1       2.495  -4.704  -2.715  0.00  0.00    +0.104 C 
BRANCH  26  27
ATOM     27  C   UNL     1       3.517  -5.481  -1.882  0.00  0.00    +0.019 C 
BRANCH  27  28
ATOM     28  C   UNL     1       3.777  -6.840  -2.534  0.00  0.00    +0.001 C 
BRANCH  28  29
ATOM     29  C   UNL     1       4.799  -7.617  -1.701  0.00  0.00    -0.002 C 
BRANCH  29  30
ATOM     30  C   UNL     1       5.059  -8.977  -2.352  0.00  0.00    -0.020 C 
BRANCH  30  31
ATOM     31  C   UNL     1       6.081  -9.754  -1.520  0.00  0.00    -0.086 C 
BRANCH  31  32
ATOM     32  N   UNL     1       6.331 -11.060  -2.146  0.00  0.00    +0.378 N 
ATOM     33  H   UNL     1       5.468 -11.581  -2.191  0.00  0.00    -0.090 HD
ATOM     34  H   UNL     1       6.691 -10.923  -3.078  0.00  0.00    -0.090 HD
ATOM     35  H   UNL     1       7.005 -11.572  -1.597  0.00  0.00    -0.090 HD
ENDBRANCH  31  32
ENDBRANCH  30  31
ENDBRANCH  29  30
ENDBRANCH  28  29
ENDBRANCH  27  28
ENDBRANCH  26  27
ENDBRANCH  24  26
ENDBRANCH  21  22
BRANCH  21  37
ATOM     36  C   UNL     1       0.431  -0.054   0.098  0.00  0.00    +0.006 C 
ATOM     37  C   UNL     1       0.573  -1.409  -0.598  0.00  0.00    +0.031 C 
ENDBRANCH  21  37
ENDBRANCH   1  21
TORSDOF 11
