REMARK  Name = ZINC39684524
REMARK  10 active torsions:
REMARK  status: ('A' for Active; 'I' for Inactive)
REMARK    1  A    between atoms: C_1  and  C_2
REMARK    2  A    between atoms: C_2  and  C_4
REMARK    3  A    between atoms: C_2  and  N_8
REMARK    4  A    between atoms: C_4  and  C_5
REMARK    5  A    between atoms: C_4  and  C_6
REMARK    6  A    between atoms: C_4  and  C_7
REMARK    7  A    between atoms: C_9  and  C_11
REMARK    8  A    between atoms: C_22  and  C_24
REMARK    9  A    between atoms: C_24  and  O_25
REMARK   10  A    between atoms: O_25  and  C_26
REMARK                            x       y       z     vdW  Elec       q    Type
REMARK                         _______ _______ _______ _____ _____    ______ ____
ROOT
ATOM      1  C   UNL     1       0.712  -1.094  -3.598  0.00  0.00    +0.100 C 
ATOM      2  C   UNL     1       1.732  -0.041  -4.085  0.00  0.00    +0.121 C 
ATOM      3  N   UNL     1       1.653  -0.098  -5.564  0.00  0.00    -0.297 N 
ATOM      4  C   UNL     1       0.208  -0.272  -5.849  0.00  0.00    +0.115 C 
ATOM      5  C   UNL     1      -0.287  -1.243  -4.759  0.00  0.00    -0.004 C 
ATOM      6  C   UNL     1      -0.277  -2.675  -5.284  0.00  0.00    -0.010 C 
ATOM      7  C   UNL     1      -1.318  -2.812  -6.399  0.00  0.00    -0.082 C 
ATOM      8  N   UNL     1      -2.646  -2.470  -5.875  0.00  0.00    +0.379 N 
ATOM      9  C   UNL     1      -2.673  -1.063  -5.458  0.00  0.00    -0.082 C 
ATOM     10  C   UNL     1      -1.689  -0.852  -4.303  0.00  0.00    -0.010 C 
ATOM     11  C   UNL     1       2.665  -0.011  -6.449  0.00  0.00    +0.253 C 
ATOM     12  O   UNL     1       2.438  -0.076  -7.638  0.00  0.00    -0.272 OA
ATOM     13  H   UNL     1      -3.338  -2.620  -6.594  0.00  0.00    -0.086 HD
ATOM     14  H   UNL     1      -2.856  -3.059  -5.083  0.00  0.00    -0.086 HD
ENDROOT
BRANCH   1  16
ATOM     15  N   UNL     1      -0.447  -1.494  -1.450  0.00  0.00    -0.312 N 
ATOM     16  C   UNL     1       0.006  -0.608  -2.358  0.00  0.00    +0.218 C 
ATOM     17  O   UNL     1      -0.154   0.581  -2.179  0.00  0.00    -0.275 OA
ATOM     18  H   UNL     1      -0.319  -2.445  -1.594  0.00  0.00    +0.149 HD
BRANCH  15  20
ATOM     19  C   UNL     1      -0.098  -0.674   0.828  0.00  0.00    +0.028 C 
ATOM     20  C   UNL     1      -1.133  -1.022  -0.244  0.00  0.00    +0.075 C 
BRANCH  20  21
ATOM     21  C   UNL     1      -2.059  -2.121   0.279  0.00  0.00    -0.020 C 
ATOM     22  C   UNL     1      -2.775  -1.628   1.538  0.00  0.00    +0.012 C 
ATOM     23  C   UNL     1      -3.094  -2.469  -0.793  0.00  0.00    +0.012 C 
ATOM     24  C   UNL     1      -1.235  -3.365   0.616  0.00  0.00    +0.012 C 
ENDBRANCH  20  21
ENDBRANCH  15  20
ENDBRANCH   1  16
BRANCH  11  25
ATOM     25  C   UNL     1       4.080   0.166  -5.961  0.00  0.00    +0.324 C 
BRANCH  25  26
ATOM     26  O   UNL     1       4.966   0.230  -7.080  0.00  0.00    -0.483 OA
BRANCH  26  27
ATOM     27  C   UNL     1       6.288   0.389  -6.812  0.00  0.00    +0.123 A 
ATOM     28  C   UNL     1       6.726   0.476  -5.498  0.00  0.00    +0.046 A 
ATOM     29  C   UNL     1       8.070   0.637  -5.227  0.00  0.00    +0.005 A 
ATOM     30  C   UNL     1       8.982   0.713  -6.264  0.00  0.00    +0.020 A 
ATOM     31  C   UNL     1       8.549   0.627  -7.576  0.00  0.00    +0.044 A 
ATOM     32  C   UNL     1       7.204   0.460  -7.851  0.00  0.00    +0.065 A 
ATOM     33 CL   UNL     1       9.695   0.723  -8.876  0.00  0.00    -0.083 Cl
ENDBRANCH  26  27
ENDBRANCH  25  26
ENDBRANCH  11  25
TORSDOF 6
