REMARK  Name = ZINC15676288
REMARK  4 active torsions:
REMARK  status: ('A' for Active; 'I' for Inactive)
REMARK    1  A    between atoms: C_8  and  C_10
REMARK    2  A    between atoms: C_10  and  N_11
REMARK    3  A    between atoms: C_20  and  C_22
REMARK    4  A    between atoms: N_24  and  C_25
REMARK                            x       y       z     vdW  Elec       q    Type
REMARK                         _______ _______ _______ _____ _____    ______ ____
ROOT
ATOM      1  N   UNL     1       3.908  -4.076  -1.095  0.00  0.00    -0.278 NA
ATOM      2  C   UNL     1       2.735  -4.668  -1.760  0.00  0.00    +0.140 C 
ATOM      3  C   UNL     1       2.996  -4.698  -3.245  0.00  0.00    +0.051 A 
ATOM      4  C   UNL     1       4.228  -4.552  -3.784  0.00  0.00    +0.040 A 
ATOM      5  N   UNL     1       4.086  -4.628  -5.133  0.00  0.00    -0.349 N 
ATOM      6  H   UNL     1       4.794  -4.558  -5.793  0.00  0.00    +0.166 HD
ATOM      7  C   UNL     1       2.769  -4.821  -5.382  0.00  0.00    +0.171 A 
ATOM      8  N   UNL     1       2.127  -4.861  -4.243  0.00  0.00    -0.349 N 
ATOM      9  C   UNL     1       5.476  -4.350  -2.965  0.00  0.00    +0.083 C 
ATOM     10  C   UNL     1       5.153  -4.735  -1.514  0.00  0.00    +0.150 C 
ATOM     11  H   UNL     1       1.171  -4.989  -4.141  0.00  0.00    +0.166 HD
ENDROOT
BRANCH  10  12
ATOM     12  C   UNL     1       6.280  -4.295  -0.615  0.00  0.00    +0.231 C 
ATOM     13  O   UNL     1       6.312  -3.158  -0.195  0.00  0.00    -0.274 OA
ATOM     14  N   UNL     1       7.253  -5.164  -0.279  0.00  0.00    -0.311 N 
ATOM     15  H   UNL     1       7.228  -6.074  -0.616  0.00  0.00    +0.149 HD
BRANCH  14  16
ATOM     16  C   UNL     1       8.349  -4.736   0.594  0.00  0.00    +0.073 C 
ATOM     17  C   UNL     1       9.439  -4.068  -0.245  0.00  0.00    +0.022 C 
ATOM     18  C   UNL     1      10.583  -3.621   0.667  0.00  0.00    +0.002 C 
ATOM     19  C   UNL     1      11.168  -4.838   1.385  0.00  0.00    +0.000 C 
ATOM     20  C   UNL     1      10.078  -5.507   2.225  0.00  0.00    +0.002 C 
ATOM     21  C   UNL     1       8.934  -5.954   1.313  0.00  0.00    +0.022 C 
ENDBRANCH  14  16
ENDBRANCH  10  12
BRANCH   1  22
ATOM     22  C   UNL     1       3.759  -4.112   0.366  0.00  0.00    +0.160 C 
BRANCH  22  30
ATOM     23  C   UNL     1      -0.838  -0.505   2.012  0.00  0.00    +0.001 A 
ATOM     24  C   UNL     1       0.180   0.431   2.114  0.00  0.00    +0.004 A 
ATOM     25  C   UNL     1       1.484   0.086   1.830  0.00  0.00    +0.047 A 
ATOM     26  C   UNL     1       1.786  -1.212   1.436  0.00  0.00    +0.135 A 
ATOM     27  C   UNL     1       0.750  -2.155   1.335  0.00  0.00    +0.020 A 
ATOM     28  C   UNL     1      -0.563  -1.788   1.626  0.00  0.00    +0.011 A 
ATOM     29  C   UNL     1       1.396  -3.401   0.904  0.00  0.00    +0.054 A 
ATOM     30  C   UNL     1       2.702  -3.124   0.787  0.00  0.00    +0.120 A 
ATOM     31  O   UNL     1       2.932  -1.837   1.100  0.00  0.00    -0.458 OA
ENDBRANCH  22  30
ENDBRANCH   1  22
TORSDOF 4
