REMARK  Name = ZINC22204832
REMARK  6 active torsions:
REMARK  status: ('A' for Active; 'I' for Inactive)
REMARK    1  A    between atoms: C_1  and  C_2
REMARK    2  A    between atoms: C_2  and  C_3
REMARK    3  A    between atoms: C_3  and  C_4
REMARK    4  A    between atoms: C_4  and  N_5
REMARK    5  A    between atoms: C_21  and  C_26
REMARK    6  A    between atoms: C_29  and  O_32
REMARK                            x       y       z     vdW  Elec       q    Type
REMARK                         _______ _______ _______ _____ _____    ______ ____
ROOT
ATOM      1  N   UNL     1      -2.132   0.809   0.124  0.00  0.00    -0.224 N 
ATOM      2  C   UNL     1      -1.466  -0.363   0.119  0.00  0.00    +0.244 C 
ATOM      3  O   UNL     1      -1.942  -1.475   0.194  0.00  0.00    -0.273 OA
ATOM      4  C   UNL     1       0.002  -0.004   0.002  0.00  0.00    +0.169 C 
ATOM      5  C   UNL     1       0.770  -0.473   1.243  0.00  0.00    +0.069 C 
ATOM      6  C   UNL     1       1.999   0.382   1.425  0.00  0.00    -0.015 A 
ATOM      7  C   UNL     1       3.183   0.070   2.203  0.00  0.00    +0.003 A 
ATOM      8  C   UNL     1       3.543  -1.042   2.971  0.00  0.00    +0.010 A 
ATOM      9  C   UNL     1       4.769  -0.998   3.589  0.00  0.00    +0.001 A 
ATOM     10  C   UNL     1       5.618   0.089   3.462  0.00  0.00    +0.002 A 
ATOM     11  C   UNL     1       5.287   1.201   2.708  0.00  0.00    +0.026 A 
ATOM     12  C   UNL     1       4.049   1.185   2.070  0.00  0.00    +0.047 A 
ATOM     13  N   UNL     1       3.420   2.092   1.266  0.00  0.00    -0.356 N 
ATOM     14  H   UNL     1       3.912   3.046   1.024  0.00  0.00    +0.166 HD
ATOM     15  C   UNL     1       2.200   1.603   0.884  0.00  0.00    +0.046 A 
ATOM     16  C   UNL     1       1.200   2.296   0.003  0.00  0.00    +0.155 C 
ATOM     17  N   UNL     1      -0.018   1.475   0.010  0.00  0.00    -0.261 N 
ATOM     18  C   UNL     1      -1.297   1.855   0.045  0.00  0.00    +0.313 C 
ATOM     19  O   UNL     1      -1.661   3.014   0.011  0.00  0.00    -0.252 OA
ENDROOT
BRANCH  16  20
ATOM     20  C   UNL     1       0.895   3.679   0.518  0.00  0.00    -0.021 A 
ATOM     21  C   UNL     1       0.033   3.843   1.587  0.00  0.00    +0.009 A 
ATOM     22  C   UNL     1      -0.244   5.109   2.064  0.00  0.00    +0.046 A 
ATOM     23  C   UNL     1       0.335   6.218   1.463  0.00  0.00    +0.117 A 
ATOM     24  C   UNL     1       1.195   6.051   0.387  0.00  0.00    +0.046 A 
ATOM     25  C   UNL     1       1.473   4.782  -0.083  0.00  0.00    +0.009 A 
BRANCH  23  26
ATOM     26  O   UNL     1       0.059   7.465   1.927  0.00  0.00    -0.507 OA
ATOM     27  H   UNL     1       0.518   8.343   1.450  0.00  0.00    +0.292 HD
ENDBRANCH  23  26
ENDBRANCH  16  20
BRANCH   1  28
ATOM     28  C   UNL     1      -3.590   0.926   0.205  0.00  0.00    +0.118 C 
BRANCH  28  29
ATOM     29  C   UNL     1      -4.015   1.008   1.673  0.00  0.00    +0.019 C 
BRANCH  29  31
ATOM     30  C   UNL     1      -5.962   1.213   3.225  0.00  0.00    +0.004 C 
ATOM     31  C   UNL     1      -5.537   1.130   1.757  0.00  0.00    -0.002 C 
ENDBRANCH  29  31
ENDBRANCH  28  29
ENDBRANCH   1  28
TORSDOF 5
