REMARK  Name = ZINC39380186
REMARK  14 active torsions:
REMARK  status: ('A' for Active; 'I' for Inactive)
REMARK    1  A    between atoms: C_1  and  C_2
REMARK    2  A    between atoms: C_4  and  C_9
REMARK    3  A    between atoms: N_6  and  C_8
REMARK    4  A    between atoms: C_9  and  N_10
REMARK    5  A    between atoms: N_10  and  C_11
REMARK    6  A    between atoms: N_10  and  C_12
REMARK    7  A    between atoms: C_12  and  C_14
REMARK    8  A    between atoms: C_12  and  C_22
REMARK    9  A    between atoms: C_14  and  C_15
REMARK   10  A    between atoms: C_28  and  C_30
REMARK   11  A    between atoms: C_33  and  C_36
REMARK   12  A    between atoms: C_36  and  C_37
REMARK   13  A    between atoms: C_37  and  C_38
REMARK   14  A    between atoms: C_37  and  C_39
REMARK                            x       y       z     vdW  Elec       q    Type
REMARK                         _______ _______ _______ _____ _____    ______ ____
ROOT
ATOM      1  C   UNL     1      -0.677  -0.612  -5.192  0.00  0.00    -0.061 C 
ENDROOT
BRANCH   1   2
ATOM      2  C   UNL     1      -1.062   0.830  -5.528  0.00  0.00    -0.021 C 
ATOM      3  C   UNL     1      -1.840   1.437  -4.358  0.00  0.00    +0.021 C 
ATOM      4  C   UNL     1      -2.194   2.891  -4.684  0.00  0.00    +0.108 C 
ATOM      5  N   UNL     1      -2.908   2.928  -5.967  0.00  0.00    -0.299 N 
ATOM      6  C   UNL     1      -2.290   2.293  -7.139  0.00  0.00    +0.108 C 
ATOM      7  C   UNL     1      -1.935   0.845  -6.785  0.00  0.00    +0.021 C 
ATOM      8  C   UNL     1      -4.109   3.532  -6.068  0.00  0.00    +0.246 C 
ATOM      9  O   UNL     1      -4.609   4.052  -5.093  0.00  0.00    -0.273 OA
BRANCH   8  10
ATOM     10  C   UNL     1      -4.830   3.561  -7.391  0.00  0.00    +0.238 C 
ATOM     11  C   UNL     1      -4.308   4.690  -8.262  0.00  0.00    +0.035 C 
ATOM     12  C   UNL     1      -5.375   5.471  -8.449  0.00  0.00    +0.062 C 
ATOM     13  N   UNL     1      -6.456   4.967  -7.814  0.00  0.00    -0.158 NA
ATOM     14  N   UNL     1      -6.248   3.910  -7.204  0.00  0.00    -0.170 NA
BRANCH  12  15
ATOM     15  C   UNL     1      -5.373   6.741  -9.259  0.00  0.00    +0.060 C 
BRANCH  15  16
ATOM     16  C   UNL     1      -5.837   6.438 -10.685  0.00  0.00    -0.011 C 
ATOM     17  C   UNL     1      -5.956   7.744 -11.472  0.00  0.00    +0.007 C 
ATOM     18  C   UNL     1      -4.820   5.521 -11.368  0.00  0.00    +0.007 C 
ENDBRANCH  15  16
ENDBRANCH  12  15
ENDBRANCH   8  10
ENDBRANCH   1   2
BRANCH   1  19
ATOM     19  N   UNL     1       0.161  -0.626  -3.985  0.00  0.00    +0.383 N 
ATOM     20  C   UNL     1       0.680  -1.983  -3.766  0.00  0.00    -0.095 C 
ATOM     21  H   UNL     1      -0.392  -0.344  -3.189  0.00  0.00    -0.081 HD
BRANCH  19  22
ATOM     22  C   UNL     1       1.283   0.306  -4.157  0.00  0.00    -0.045 C 
BRANCH  22  25
ATOM     23  C   UNL     1       1.846   2.748  -2.093  0.00  0.00    +0.030 C 
ATOM     24  C   UNL     1       1.778   1.274  -1.688  0.00  0.00    +0.095 C 
ATOM     25  C   UNL     1       2.072   0.384  -2.876  0.00  0.00    -0.053 C 
ATOM     26  C   UNL     1       3.151  -0.310  -2.575  0.00  0.00    +0.086 C 
ATOM     27  N   UNL     1       3.626   0.004  -1.317  0.00  0.00    -0.277 N 
ATOM     28  N   UNL     1       2.845   0.955  -0.718  0.00  0.00    -0.234 NA
ATOM     29  C   UNL     1       4.810  -0.603  -0.703  0.00  0.00    +0.149 C 
ATOM     30  H   UNL     1       3.385   1.777  -0.491  0.00  0.00    +0.145 HD
ENDBRANCH  22  25
ENDBRANCH  19  22
ENDBRANCH   1  19
BRANCH   1  31
ATOM     31  C   UNL     1      -1.944  -1.433  -4.943  0.00  0.00    +0.020 C 
BRANCH  31  32
ATOM     32  C   UNL     1      -1.613  -2.901  -5.013  0.00  0.00    -0.049 A 
ATOM     33  C   UNL     1      -1.125  -3.444  -6.188  0.00  0.00    +0.006 A 
ATOM     34  C   UNL     1      -0.821  -4.790  -6.254  0.00  0.00    +0.038 A 
ATOM     35  C   UNL     1      -1.004  -5.596  -5.143  0.00  0.00    +0.123 A 
ATOM     36  C   UNL     1      -1.493  -5.052  -3.967  0.00  0.00    +0.038 A 
ATOM     37  C   UNL     1      -1.792  -3.704  -3.902  0.00  0.00    +0.006 A 
ATOM     38  F   UNL     1      -0.707  -6.912  -5.206  0.00  0.00    -0.205 F 
ENDBRANCH  31  32
ENDBRANCH   1  31
TORSDOF 9
