REMARK  Name = ZINC02090734
REMARK  7 active torsions:
REMARK  status: ('A' for Active; 'I' for Inactive)
REMARK    1  A    between atoms: C_1  and  C_2
REMARK    2  A    between atoms: C_5  and  N_37
REMARK    3  A    between atoms: C_7  and  N_8
REMARK    4  A    between atoms: C_11  and  C_18
REMARK    5  A    between atoms: C_13  and  C_16
REMARK    6  A    between atoms: C_14  and  N_15
REMARK    7  A    between atoms: C_28  and  C_31
REMARK                            x       y       z     vdW  Elec       q    Type
REMARK                         _______ _______ _______ _____ _____    ______ ____
ROOT
ATOM      1  N   UNL     1      -0.841   4.199  -2.379  0.00  0.00    -0.260 N 
ATOM      2  C   UNL     1      -0.829   3.521  -1.189  0.00  0.00    +0.025 C 
ATOM      3  C   UNL     1      -0.870   4.189  -0.016  0.00  0.00    +0.025 C 
ATOM      4  C   UNL     1      -0.946   5.694   0.016  0.00  0.00    +0.097 C 
ATOM      5  C   UNL     1      -0.532   6.286  -1.298  0.00  0.00    +0.077 C 
ATOM      6  C   UNL     1      -0.498   5.532  -2.428  0.00  0.00    +0.107 C 
ATOM      7  C   UNL     1      -0.841   3.501   1.210  0.00  0.00    +0.162 C 
ATOM      8  O   UNL     1      -0.891   4.132   2.248  0.00  0.00    -0.292 OA
ATOM      9  C   UNL     1      -0.744   2.001   1.265  0.00  0.00    +0.088 C 
ATOM     10  C   UNL     1      -0.018   1.503   0.010  0.00  0.00    +0.032 C 
ATOM     11  C   UNL     1      -0.767   2.014  -1.223  0.00  0.00    +0.060 C 
ENDROOT
BRANCH   1  18
ATOM     12  C   UNL     1       1.209   2.928  -3.890  0.00  0.00    +0.045 C 
ATOM     13  C   UNL     1      -0.235   2.899  -4.322  0.00  0.00    -0.029 A 
ATOM     14  C   UNL     1      -0.596   2.241  -5.482  0.00  0.00    +0.007 A 
ATOM     15  C   UNL     1      -1.920   2.212  -5.879  0.00  0.00    +0.033 A 
ATOM     16  C   UNL     1      -2.887   2.843  -5.117  0.00  0.00    +0.128 A 
ATOM     17  C   UNL     1      -2.533   3.498  -3.954  0.00  0.00    +0.056 A 
ATOM     18  C   UNL     1      -1.203   3.532  -3.555  0.00  0.00    +0.045 A 
BRANCH  16  19
ATOM     19  N   UNL     1      -4.304   2.809  -5.545  0.00  0.00    +0.056 N 
ATOM     20  O   UNL     1      -4.617   2.227  -6.568  0.00  0.00    -0.126 OA
ATOM     21  O   UNL     1      -5.156   3.364  -4.874  0.00  0.00    -0.126 OA
ENDBRANCH  16  19
ENDBRANCH   1  18
BRANCH   4  22
ATOM     22  C   UNL     1      -2.363   6.110   0.320  0.00  0.00    -0.033 A 
ATOM     23  C   UNL     1      -2.639   6.836   1.464  0.00  0.00    +0.004 A 
ATOM     24  C   UNL     1      -3.938   7.218   1.744  0.00  0.00    +0.002 A 
ATOM     25  C   UNL     1      -4.961   6.873   0.880  0.00  0.00    +0.020 A 
ATOM     26  C   UNL     1      -4.685   6.147  -0.264  0.00  0.00    +0.041 A 
ATOM     27  C   UNL     1      -3.384   5.770  -0.547  0.00  0.00    +0.024 A 
ATOM     28 CL   UNL     1      -5.969   5.714  -1.349  0.00  0.00    -0.084 Cl
ENDBRANCH   4  22
BRANCH  10  29
ATOM     29  C   UNL     1       0.002  -0.004   0.002  0.00  0.00    -0.044 A 
ATOM     30  C   UNL     1      -1.185  -0.712   0.015  0.00  0.00    +0.004 A 
ATOM     31  C   UNL     1      -1.167  -2.094   0.003  0.00  0.00    +0.000 A 
ATOM     32  C   UNL     1       0.040  -2.768  -0.012  0.00  0.00    +0.000 A 
ATOM     33  C   UNL     1       1.227  -2.061  -0.021  0.00  0.00    +0.000 A 
ATOM     34  C   UNL     1       1.208  -0.679  -0.013  0.00  0.00    +0.004 A 
ENDBRANCH  10  29
BRANCH   6  35
ATOM     35  N   UNL     1      -0.122   6.101  -3.621  0.00  0.00    -0.345 N 
ATOM     36  H   UNL     1      -0.098   5.563  -4.428  0.00  0.00    +0.144 HD
ATOM     37  H   UNL     1       0.119   7.039  -3.656  0.00  0.00    +0.144 HD
ENDBRANCH   6  35
BRANCH   5  38
ATOM     38  C   UNL     1      -0.165   7.668  -1.364  0.00  0.00    +0.099 C 
ATOM     39  N   UNL     1       0.126   8.765  -1.416  0.00  0.00    -0.191 NA
ENDBRANCH   5  38
TORSDOF 6
