REMARK  Name = ZINC13879431
REMARK  12 active torsions:
REMARK  status: ('A' for Active; 'I' for Inactive)
REMARK    1  A    between atoms: C_1  and  C_2
REMARK    2  A    between atoms: C_5  and  O_9
REMARK    3  A    between atoms: C_6  and  C_8
REMARK    4  A    between atoms: O_9  and  C_10
REMARK    5  A    between atoms: C_10  and  C_11
REMARK    6  A    between atoms: C_14  and  S_17
REMARK    7  A    between atoms: N_15  and  C_16
REMARK    8  A    between atoms: S_17  and  C_18
REMARK    9  A    between atoms: C_18  and  C_19
REMARK   10  A    between atoms: N_21  and  C_22
REMARK   11  A    between atoms: C_23  and  C_33
REMARK   12  A    between atoms: C_28  and  C_32
REMARK                            x       y       z     vdW  Elec       q    Type
REMARK                         _______ _______ _______ _____ _____    ______ ____
ROOT
ATOM      1  C   UNL     1       9.453  -3.133  -0.952  0.00  0.00    +0.228 C 
ATOM      2  O   UNL     1       9.570  -3.178  -2.159  0.00  0.00    -0.275 OA
ATOM      3  N   UNL     1      10.466  -3.535  -0.161  0.00  0.00    -0.279 N 
ATOM      4  H   UNL     1      10.372  -3.499   0.804  0.00  0.00    +0.155 HD
ENDROOT
BRANCH   3   5
ATOM      5  C   UNL     1      11.644  -4.002  -0.725  0.00  0.00    +0.084 A 
ATOM      6  C   UNL     1      12.787  -4.455  -0.083  0.00  0.00    +0.068 A 
ATOM      7  C   UNL     1      13.895  -4.894  -0.915  0.00  0.00    -0.023 A 
ATOM      8  C   UNL     1      13.684  -4.810  -2.246  0.00  0.00    -0.004 A 
ATOM      9  S   UNL     1      12.042  -4.166  -2.404  0.00  0.00    -0.077 S 
ATOM     10  C   UNL     1      14.637  -5.187  -3.338  0.00  0.00    +0.046 C 
ATOM     11  C   UNL     1      16.038  -5.336  -2.727  0.00  0.00    -0.009 C 
ATOM     12  C   UNL     1      15.936  -6.196  -1.464  0.00  0.00    +0.008 C 
ATOM     13  C   UNL     1      15.214  -5.419  -0.361  0.00  0.00    +0.037 C 
ATOM     14  C   UNL     1      16.969  -6.010  -3.736  0.00  0.00    +0.008 C 
BRANCH   6  15
ATOM     15  C   UNL     1      12.874  -4.491   1.380  0.00  0.00    +0.244 C 
ATOM     16  O   UNL     1      12.521  -5.486   1.986  0.00  0.00    -0.270 OA
ATOM     17  N   UNL     1      13.345  -3.423   2.053  0.00  0.00    -0.325 N 
ATOM     18  H   UNL     1      13.626  -2.630   1.570  0.00  0.00    +0.145 HD
ATOM     19  H   UNL     1      13.402  -3.446   3.021  0.00  0.00    +0.145 HD
ENDBRANCH   6  15
ENDBRANCH   3   5
BRANCH   1  20
ATOM     20  C   UNL     1       8.173  -2.626  -0.339  0.00  0.00    +0.173 C 
BRANCH  20  21
ATOM     21  S   UNL     1       7.015  -2.166  -1.652  0.00  0.00    -0.077 S 
BRANCH  21  25
ATOM     22  C   UNL     1       3.714  -0.858  -0.037  0.00  0.00    +0.172 A 
ATOM     23  N   UNL     1       4.441  -1.148   1.005  0.00  0.00    -0.130 NA
ATOM     24  N   UNL     1       5.585  -1.601   0.632  0.00  0.00    -0.122 NA
ATOM     25  C   UNL     1       5.649  -1.625  -0.679  0.00  0.00    +0.192 A 
ATOM     26  N   UNL     1       4.455  -1.156  -1.147  0.00  0.00    -0.306 N 
ATOM     27  C   UNL     1       4.052  -1.002  -2.547  0.00  0.00    +0.153 C 
BRANCH  22  28
ATOM     28  C   UNL     1       2.313  -0.303  -0.021  0.00  0.00    +0.305 C 
BRANCH  28  29
ATOM     29  O   UNL     1       2.366   1.125  -0.014  0.00  0.00    -0.484 OA
BRANCH  29  34
ATOM     30  C   UNL     1      -2.553   3.867   0.046  0.00  0.00    +0.044 C 
ATOM     31  C   UNL     1      -1.237   3.133   0.030  0.00  0.00    -0.050 A 
ATOM     32  C   UNL     1      -1.218   1.751   0.017  0.00  0.00    +0.007 A 
ATOM     33  C   UNL     1      -0.013   1.076   0.008  0.00  0.00    +0.046 A 
ATOM     34  C   UNL     1       1.179   1.786   0.000  0.00  0.00    +0.124 A 
ATOM     35  C   UNL     1       1.157   3.173   0.008  0.00  0.00    -0.009 A 
ATOM     36  C   UNL     1      -0.051   3.844   0.023  0.00  0.00    +0.010 A 
ATOM     37  C   UNL     1       2.449   3.948   0.000  0.00  0.00    +0.047 C 
ENDBRANCH  29  34
ENDBRANCH  28  29
ENDBRANCH  22  28
ENDBRANCH  21  25
ENDBRANCH  20  21
ENDBRANCH   1  20
TORSDOF 8
