REMARK  Name = ZINC22473207
REMARK  8 active torsions:
REMARK  status: ('A' for Active; 'I' for Inactive)
REMARK    1  A    between atoms: C_4  and  C_7
REMARK    2  A    between atoms: C_7  and  N_8
REMARK    3  A    between atoms: N_8  and  C_9
REMARK    4  A    between atoms: C_9  and  C_10
REMARK    5  A    between atoms: C_10  and  C_11
REMARK    6  A    between atoms: C_11  and  N_12
REMARK    7  A    between atoms: C_15  and  O_16
REMARK    8  A    between atoms: C_24  and  C_26
REMARK                            x       y       z     vdW  Elec       q    Type
REMARK                         _______ _______ _______ _____ _____    ______ ____
ROOT
ATOM      1  C   UNL     1       4.042   2.377   0.078  0.00  0.00    +0.110 C 
ENDROOT
BRANCH   1   2
ATOM      2  N   UNL     1       3.067   3.470   0.093  0.00  0.00    -0.291 N 
ATOM      3  C   UNL     1       1.781   3.231  -0.232  0.00  0.00    +0.282 C 
ATOM      4  O   UNL     1       0.987   4.151  -0.291  0.00  0.00    -0.267 OA
BRANCH   3   5
ATOM      5  C   UNL     1       1.339   1.862  -0.515  0.00  0.00    +0.191 A 
ATOM      6  C   UNL     1       0.051   1.464  -0.731  0.00  0.00    +0.056 A 
ATOM      7  C   UNL     1       0.089   0.080  -0.962  0.00  0.00    +0.058 A 
ATOM      8  C   UNL     1       1.385  -0.301  -0.877  0.00  0.00    +0.171 A 
ATOM      9  O   UNL     1       2.134   0.775  -0.608  0.00  0.00    -0.444 OA
ATOM     10 BR   UNL     1       2.030  -2.065  -1.102  0.00  0.00    -0.008 Br
ENDBRANCH   3   5
BRANCH   2  11
ATOM     11  C   UNL     1       3.490   4.824   0.461  0.00  0.00    +0.143 C 
BRANCH  11  15
ATOM     12  C   UNL     1       3.073   5.349   4.679  0.00  0.00    +0.000 A 
ATOM     13  C   UNL     1       4.260   4.871   4.156  0.00  0.00    +0.000 A 
ATOM     14  C   UNL     1       4.395   4.701   2.791  0.00  0.00    +0.005 A 
ATOM     15  C   UNL     1       3.343   5.009   1.949  0.00  0.00    -0.030 A 
ATOM     16  C   UNL     1       2.158   5.492   2.471  0.00  0.00    +0.005 A 
ATOM     17  C   UNL     1       2.021   5.658   3.837  0.00  0.00    +0.000 A 
ENDBRANCH  11  15
ENDBRANCH   2  11
ENDBRANCH   1   2
BRANCH   1  18
ATOM     18  C   UNL     1       4.555   2.169  -1.348  0.00  0.00    +0.040 C 
BRANCH  18  19
ATOM     19  C   UNL     1       5.573   1.027  -1.363  0.00  0.00    +0.114 C 
BRANCH  19  20
ATOM     20  N   UNL     1       6.064   0.829  -2.729  0.00  0.00    -0.384 N 
ATOM     21  C   UNL     1       6.996  -0.151  -2.991  0.00  0.00    +0.053 A 
ATOM     22  C   UNL     1       7.477  -0.954  -1.988  0.00  0.00    +0.113 A 
ATOM     23  C   UNL     1       8.424  -1.942  -2.285  0.00  0.00    +0.286 A 
ATOM     24  O   UNL     1       8.883  -2.133  -3.533  0.00  0.00    -0.425 OA
ATOM     25  C   UNL     1       8.454  -1.382  -4.570  0.00  0.00    +0.141 A 
ATOM     26  C   UNL     1       7.500  -0.374  -4.356  0.00  0.00    +0.041 A 
ATOM     27  C   UNL     1       7.050   0.401  -5.426  0.00  0.00    +0.013 A 
ATOM     28  C   UNL     1       7.542   0.166  -6.691  0.00  0.00    +0.001 A 
ATOM     29  C   UNL     1       8.479  -0.834  -6.903  0.00  0.00    +0.004 A 
ATOM     30  C   UNL     1       8.942  -1.598  -5.852  0.00  0.00    +0.047 A 
ATOM     31  H   UNL     1       5.689   1.463  -3.546  0.00  0.00    +0.160 HD
BRANCH  23  32
ATOM     32  O   UNL     1       8.845  -2.649  -1.386  0.00  0.00    -0.480 OA
ATOM     33  H   UNL     1       9.588  -3.430  -1.601  0.00  0.00    +0.295 HD
ENDBRANCH  23  32
ENDBRANCH  19  20
ENDBRANCH  18  19
ENDBRANCH   1  18
TORSDOF 8
