REMARK  Name = ZINC15986033
REMARK  6 active torsions:
REMARK  status: ('A' for Active; 'I' for Inactive)
REMARK    1  A    between atoms: C_1  and  C_2
REMARK    2  A    between atoms: C_3  and  N_9
REMARK    3  A    between atoms: C_4  and  C_8
REMARK    4  A    between atoms: N_11  and  C_26
REMARK    5  A    between atoms: N_16  and  C_24
REMARK    6  A    between atoms: C_26  and  C_27
REMARK                            x       y       z     vdW  Elec       q    Type
REMARK                         _______ _______ _______ _____ _____    ______ ____
ROOT
ATOM      1  N   UNL     1      -0.001  -0.495  -2.445  0.00  0.00    -0.222 NA
ATOM      2  C   UNL     1       1.129  -0.243  -3.065  0.00  0.00    +0.169 C 
ATOM      3  N   UNL     1       1.331   0.254  -4.340  0.00  0.00    -0.242 N 
ATOM      4  C   UNL     1       2.561   0.440  -4.787  0.00  0.00    +0.262 C 
ATOM      5  O   UNL     1       2.753   0.878  -5.910  0.00  0.00    -0.269 OA
ATOM      6  C   UNL     1       3.645   0.125  -3.947  0.00  0.00    +0.106 C 
ATOM      7  C   UNL     1       5.005   0.235  -4.193  0.00  0.00    +0.092 C 
ATOM      8  N   UNL     1       5.644   0.547  -5.365  0.00  0.00    -0.296 N 
ATOM      9  C   UNL     1       7.025   0.606  -5.407  0.00  0.00    +0.048 A 
ATOM     10  C   UNL     1       7.834   0.909  -6.516  0.00  0.00    +0.024 A 
ATOM     11  C   UNL     1       9.204   0.930  -6.406  0.00  0.00    +0.002 A 
ATOM     12  C   UNL     1       9.832   0.655  -5.204  0.00  0.00    +0.001 A 
ATOM     13  C   UNL     1       9.061   0.354  -4.094  0.00  0.00    +0.017 A 
ATOM     14  C   UNL     1       7.691   0.333  -4.204  0.00  0.00    +0.035 A 
ATOM     15  S   UNL     1       6.368   0.012  -3.062  0.00  0.00    -0.071 S 
ATOM     16  C   UNL     1       4.862   0.817  -6.574  0.00  0.00    +0.136 C 
ATOM     17  S   UNL     1       2.804  -0.445  -2.477  0.00  0.00    -0.046 S 
ENDROOT
BRANCH   1  20
ATOM     18  C   UNL     1      -0.012   1.258   0.076  0.00  0.00    +0.067 C 
ATOM     19  C   UNL     1       0.009  -0.246  -0.013  0.00  0.00    +0.059 A 
ATOM     20  C   UNL     1       0.014  -0.987  -1.159  0.00  0.00    +0.109 A 
ATOM     21  C   UNL     1       0.036  -2.345  -0.789  0.00  0.00    +0.085 A 
ATOM     22  N   UNL     1       0.044  -2.415   0.516  0.00  0.00    -0.177 NA
ATOM     23  N   UNL     1       0.033  -1.114   1.033  0.00  0.00    -0.280 N 
ATOM     24  H   UNL     1       0.039  -0.873   1.973  0.00  0.00    +0.189 HD
ATOM     25  C   UNL     1       0.048  -3.518  -1.736  0.00  0.00    +0.070 C 
ENDBRANCH   1  20
BRANCH   3  26
ATOM     26  C   UNL     1       0.184   0.573  -5.193  0.00  0.00    +0.142 C 
BRANCH  26  27
ATOM     27  C   UNL     1      -0.224   2.006  -4.972  0.00  0.00    -0.015 C 
ATOM     28  C   UNL     1      -0.301   2.829  -5.988  0.00  0.00    +0.005 C 
ENDBRANCH  26  27
ENDBRANCH   3  26
TORSDOF 3
