REMARK  Name = ZINC10536966
REMARK  6 active torsions:
REMARK  status: ('A' for Active; 'I' for Inactive)
REMARK    1  A    between atoms: C_4  and  C_7
REMARK    2  A    between atoms: C_7  and  C_8
REMARK    3  A    between atoms: C_8  and  C_27
REMARK    4  A    between atoms: N_11  and  C_15
REMARK    5  A    between atoms: C_15  and  C_16
REMARK    6  A    between atoms: N_18  and  C_19
REMARK                            x       y       z     vdW  Elec       q    Type
REMARK                         _______ _______ _______ _____ _____    ______ ____
ROOT
ATOM      1  C   UNL     1       1.174   2.167   0.000  0.00  0.00    +0.142 C 
ATOM      2  C   UNL     1      -0.019   1.232   0.002  0.00  0.00    +0.252 C 
ATOM      3  O   UNL     1       0.001   0.020  -0.013  0.00  0.00    -0.272 OA
ATOM      4  N   UNL     1      -1.106   2.028   0.019  0.00  0.00    -0.215 N 
ATOM      5  C   UNL     1      -0.769   3.323   0.036  0.00  0.00    +0.310 C 
ATOM      6  O   UNL     1      -1.577   4.231   0.055  0.00  0.00    -0.252 OA
ATOM      7  N   UNL     1       0.563   3.507   0.023  0.00  0.00    -0.281 N 
ATOM      8  H   UNL     1       1.030   4.357   0.028  0.00  0.00    +0.152 HD
ENDROOT
BRANCH   1   9
ATOM      9  C   UNL     1       1.993   1.979  -1.251  0.00  0.00    -0.015 A 
ATOM     10  C   UNL     1       3.037   1.073  -1.264  0.00  0.00    +0.006 A 
ATOM     11  C   UNL     1       3.785   0.897  -2.413  0.00  0.00    +0.000 A 
ATOM     12  C   UNL     1       3.495   1.635  -3.546  0.00  0.00    +0.000 A 
ATOM     13  C   UNL     1       2.455   2.544  -3.531  0.00  0.00    +0.000 A 
ATOM     14  C   UNL     1       1.704   2.717  -2.384  0.00  0.00    +0.006 A 
ENDBRANCH   1   9
BRANCH   1  15
ATOM     15  C   UNL     1       2.034   1.946   1.246  0.00  0.00    +0.075 C 
BRANCH  15  19
ATOM     16  C   UNL     1      -0.318   2.648   4.742  0.00  0.00    +0.000 A 
ATOM     17  C   UNL     1      -0.257   1.381   4.193  0.00  0.00    +0.000 A 
ATOM     18  C   UNL     1       0.504   1.154   3.061  0.00  0.00    +0.004 A 
ATOM     19  C   UNL     1       1.204   2.194   2.479  0.00  0.00    -0.045 A 
ATOM     20  C   UNL     1       1.148   3.460   3.032  0.00  0.00    +0.004 A 
ATOM     21  C   UNL     1       0.383   3.688   4.161  0.00  0.00    +0.000 A 
ENDBRANCH  15  19
ENDBRANCH   1  15
BRANCH   4  22
ATOM     22  C   UNL     1      -2.486   1.536   0.021  0.00  0.00    +0.214 C 
BRANCH  22  23
ATOM     23  C   UNL     1      -2.951   1.350   1.442  0.00  0.00    +0.235 C 
ATOM     24  O   UNL     1      -2.203   1.603   2.363  0.00  0.00    -0.274 OA
ATOM     25  N   UNL     1      -4.197   0.902   1.690  0.00  0.00    -0.283 N 
ATOM     26  H   UNL     1      -4.817   0.762   0.957  0.00  0.00    +0.155 HD
BRANCH  25  27
ATOM     27  C   UNL     1      -4.598   0.639   3.007  0.00  0.00    +0.052 A 
ATOM     28  C   UNL     1      -4.125   1.426   4.048  0.00  0.00    +0.027 A 
ATOM     29  C   UNL     1      -4.526   1.169   5.344  0.00  0.00    +0.040 A 
ATOM     30  C   UNL     1      -5.391   0.120   5.608  0.00  0.00    +0.125 A 
ATOM     31  C   UNL     1      -5.860  -0.670   4.572  0.00  0.00    +0.060 A 
ATOM     32  C   UNL     1      -5.466  -0.413   3.273  0.00  0.00    +0.065 A 
ATOM     33 CL   UNL     1      -6.054  -1.404   1.974  0.00  0.00    -0.082 Cl
ATOM     34  F   UNL     1      -5.776  -0.133   6.878  0.00  0.00    -0.205 F 
ENDBRANCH  25  27
ENDBRANCH  22  23
ENDBRANCH   4  22
TORSDOF 6
