REMARK  Name = ZINC39361930
REMARK  10 active torsions:
REMARK  status: ('A' for Active; 'I' for Inactive)
REMARK    1  A    between atoms: C_1  and  C_2
REMARK    2  A    between atoms: C_5  and  C_33
REMARK    3  A    between atoms: C_6  and  C_8
REMARK    4  A    between atoms: C_8  and  S_9
REMARK    5  A    between atoms: S_9  and  C_10
REMARK    6  A    between atoms: C_13  and  C_24
REMARK    7  A    between atoms: N_15  and  C_16
REMARK    8  A    between atoms: C_18  and  C_23
REMARK    9  A    between atoms: C_21  and  C_22
REMARK   10  A    between atoms: C_24  and  C_25
REMARK                            x       y       z     vdW  Elec       q    Type
REMARK                         _______ _______ _______ _____ _____    ______ ____
ROOT
ATOM      1  C   UNL     1       1.586  -4.120   4.600  0.00  0.00    +0.180 C 
ATOM      2  N   UNL     1       0.493  -4.461   5.195  0.00  0.00    -0.162 NA
ATOM      3  N   UNL     1       0.750  -5.111   6.408  0.00  0.00    -0.246 N 
ATOM      4  C   UNL     1       2.216  -5.158   6.546  0.00  0.00    +0.187 C 
ATOM      5  N   UNL     1       2.707  -4.497   5.325  0.00  0.00    -0.258 N 
ATOM      6  H   UNL     1       0.095  -5.459   7.032  0.00  0.00    +0.170 HD
ENDROOT
BRANCH   5   7
ATOM      7  C   UNL     1       4.042  -4.287   4.968  0.00  0.00    +0.041 A 
ATOM      8  C   UNL     1       4.684  -5.181   4.120  0.00  0.00    +0.027 A 
ATOM      9  C   UNL     1       6.003  -4.971   3.769  0.00  0.00    -0.049 A 
ATOM     10  C   UNL     1       6.685  -3.872   4.261  0.00  0.00    +0.004 A 
ATOM     11  C   UNL     1       6.048  -2.981   5.105  0.00  0.00    +0.005 A 
ATOM     12  C   UNL     1       4.728  -3.182   5.456  0.00  0.00    -0.029 A 
ATOM     13  C   UNL     1       4.033  -2.207   6.371  0.00  0.00    +0.045 C 
ATOM     14  C   UNL     1       6.701  -5.939   2.849  0.00  0.00    +0.044 C 
ENDBRANCH   5   7
BRANCH   1  15
ATOM     15  S   UNL     1       1.647  -3.284   3.050  0.00  0.00    -0.084 S 
BRANCH  15  16
ATOM     16  C   UNL     1      -0.097  -3.063   2.601  0.00  0.00    +0.112 C 
BRANCH  16  22
ATOM     17  C   UNL     1      -0.390   1.190  -0.020  0.00  0.00    +0.044 C 
ATOM     18  C   UNL     1      -0.329  -0.315   0.023  0.00  0.00    -0.050 A 
ATOM     19  C   UNL     1      -0.357  -1.042  -1.153  0.00  0.00    +0.003 A 
ATOM     20  C   UNL     1      -0.301  -2.422  -1.114  0.00  0.00    +0.004 A 
ATOM     21  C   UNL     1      -0.216  -3.077   0.101  0.00  0.00    -0.046 A 
ATOM     22  C   UNL     1      -0.188  -2.350   1.277  0.00  0.00    -0.034 A 
ATOM     23  C   UNL     1      -0.240  -0.969   1.237  0.00  0.00    +0.008 A 
ATOM     24  C   UNL     1      -0.156  -4.582   0.144  0.00  0.00    +0.044 C 
ENDBRANCH  16  22
ENDBRANCH  15  16
ENDBRANCH   1  15
BRANCH   4  25
ATOM     25  C   UNL     1       2.703  -6.607   6.603  0.00  0.00    +0.097 C 
BRANCH  25  26
ATOM     26  C   UNL     1       2.181  -7.264   7.855  0.00  0.00    +0.029 A 
ATOM     27  N   UNL     1       2.857  -7.124   9.037  0.00  0.00    -0.311 N 
ATOM     28  C   UNL     1       2.399  -7.706  10.160  0.00  0.00    +0.327 A 
ATOM     29  O   UNL     1       3.014  -7.568  11.200  0.00  0.00    -0.247 OA
ATOM     30  N   UNL     1       1.269  -8.437  10.150  0.00  0.00    -0.275 N 
ATOM     31  C   UNL     1       0.575  -8.599   9.005  0.00  0.00    +0.254 A 
ATOM     32  O   UNL     1      -0.448  -9.260   8.995  0.00  0.00    -0.268 OA
ATOM     33  C   UNL     1       1.043  -7.988   7.817  0.00  0.00    +0.091 A 
ATOM     34  H   UNL     1       0.953  -8.850  10.969  0.00  0.00    +0.173 HD
ATOM     35  H   UNL     1       3.673  -6.601   9.065  0.00  0.00    +0.170 HD
ENDBRANCH  25  26
ENDBRANCH   4  25
TORSDOF 6
