REMARK  Name = ZINC13635466
REMARK  8 active torsions:
REMARK  status: ('A' for Active; 'I' for Inactive)
REMARK    1  A    between atoms: C_1  and  C_2
REMARK    2  A    between atoms: C_2  and  C_3
REMARK    3  A    between atoms: C_3  and  N_4
REMARK    4  A    between atoms: N_27  and  C_30
REMARK    5  A    between atoms: C_30  and  C_31
REMARK    6  A    between atoms: C_31  and  C_32
REMARK    7  A    between atoms: C_32  and  C_33
REMARK    8  A    between atoms: C_32  and  C_34
REMARK                            x       y       z     vdW  Elec       q    Type
REMARK                         _______ _______ _______ _____ _____    ______ ____
ROOT
ATOM      1  N   UNL     1       5.015   2.934  -3.320  0.00  0.00    -0.299 N 
ATOM      2  C   UNL     1       4.174   2.998  -2.269  0.00  0.00    +0.304 C 
ATOM      3  O   UNL     1       3.257   3.797  -2.271  0.00  0.00    -0.253 OA
ATOM      4  N   UNL     1       4.349   2.176  -1.215  0.00  0.00    -0.262 N 
ATOM      5  C   UNL     1       5.371   1.117  -1.246  0.00  0.00    +0.116 C 
ATOM      6  C   UNL     1       6.408   1.391  -0.151  0.00  0.00    +0.056 C 
ATOM      7  C   UNL     1       5.696   1.747   1.129  0.00  0.00    -0.015 A 
ATOM      8  C   UNL     1       6.210   1.723   2.483  0.00  0.00    +0.003 A 
ATOM      9  C   UNL     1       7.456   1.383   3.018  0.00  0.00    +0.010 A 
ATOM     10  C   UNL     1       7.593   1.477   4.381  0.00  0.00    +0.001 A 
ATOM     11  C   UNL     1       6.553   1.890   5.198  0.00  0.00    +0.002 A 
ATOM     12  C   UNL     1       5.310   2.234   4.696  0.00  0.00    +0.026 A 
ATOM     13  C   UNL     1       5.142   2.147   3.315  0.00  0.00    +0.047 A 
ATOM     14  N   UNL     1       4.073   2.406   2.506  0.00  0.00    -0.355 N 
ATOM     15  H   UNL     1       3.205   2.715   2.809  0.00  0.00    +0.166 HD
ATOM     16  C   UNL     1       4.411   2.163   1.201  0.00  0.00    +0.058 A 
ATOM     17  C   UNL     1       3.526   2.315  -0.009  0.00  0.00    +0.183 C 
ATOM     18  C   UNL     1       2.408   1.325   0.006  0.00  0.00    +0.012 A 
ATOM     19  C   UNL     1       2.402  -0.053   0.001  0.00  0.00    +0.008 A 
ATOM     20  C   UNL     1       1.161  -0.680   0.021  0.00  0.00    +0.000 A 
ATOM     21  C   UNL     1      -0.012   0.048   0.045  0.00  0.00    +0.002 A 
ATOM     22  C   UNL     1      -0.015   1.434   0.050  0.00  0.00    +0.024 A 
ATOM     23  C   UNL     1       1.225   2.076   0.029  0.00  0.00    +0.042 A 
ATOM     24  N   UNL     1       1.513   3.429   0.028  0.00  0.00    -0.269 N 
ATOM     25  C   UNL     1       2.843   3.663   0.006  0.00  0.00    +0.254 C 
ATOM     26  O   UNL     1       3.385   4.748   0.001  0.00  0.00    -0.272 OA
ATOM     27  H   UNL     1       5.701   2.249  -3.351  0.00  0.00    +0.150 HD
ENDROOT
BRANCH   1  28
ATOM     28  C   UNL     1       4.892   3.899  -4.416  0.00  0.00    +0.105 C 
BRANCH  28  30
ATOM     29  C   UNL     1       5.830   4.615  -6.618  0.00  0.00    +0.005 C 
ATOM     30  C   UNL     1       5.958   3.607  -5.474  0.00  0.00    +0.015 C 
ENDBRANCH  28  30
ENDBRANCH   1  28
BRANCH  24  31
ATOM     31  C   UNL     1       0.496   4.483   0.047  0.00  0.00    +0.114 C 
BRANCH  31  32
ATOM     32  C   UNL     1       0.118   4.854  -1.389  0.00  0.00    +0.022 C 
BRANCH  32  33
ATOM     33  C   UNL     1      -0.944   5.955  -1.368  0.00  0.00    -0.016 C 
ATOM     34  C   UNL     1      -1.231   6.412  -2.800  0.00  0.00    +0.007 C 
ATOM     35  C   UNL     1      -2.228   5.413  -0.738  0.00  0.00    +0.007 C 
ENDBRANCH  32  33
ENDBRANCH  31  32
ENDBRANCH  24  31
TORSDOF 5
