REMARK  Name = ZINC06484885
REMARK  7 active torsions:
REMARK  status: ('A' for Active; 'I' for Inactive)
REMARK    1  A    between atoms: C_1  and  C_2
REMARK    2  A    between atoms: C_7  and  C_8
REMARK    3  A    between atoms: C_13  and  C_22
REMARK    4  A    between atoms: C_16  and  C_19
REMARK    5  A    between atoms: C_17  and  O_18
REMARK    6  A    between atoms: C_19  and  C_20
REMARK    7  A    between atoms: C_19  and  C_21
REMARK                            x       y       z     vdW  Elec       q    Type
REMARK                         _______ _______ _______ _____ _____    ______ ____
ROOT
ATOM      1  C   UNL     1       3.949  -3.140  -0.052  0.00  0.00    +0.044 C 
ATOM      2  C   UNL     1       3.301  -1.780  -0.038  0.00  0.00    -0.045 A 
ATOM      3  C   UNL     1       1.924  -1.675  -0.025  0.00  0.00    +0.031 A 
ATOM      4  C   UNL     1       1.327  -0.422  -0.013  0.00  0.00    +0.065 A 
ATOM      5  C   UNL     1       2.121   0.726  -0.014  0.00  0.00    +0.075 A 
ATOM      6  C   UNL     1       3.503   0.610  -0.028  0.00  0.00    +0.032 A 
ATOM      7  C   UNL     1       4.088  -0.641  -0.040  0.00  0.00    -0.045 A 
ATOM      8  C   UNL     1       5.590  -0.767  -0.055  0.00  0.00    +0.044 C 
ATOM      9  N   UNL     1       1.262   1.827  -0.000  0.00  0.00    -0.263 N 
ATOM     10  C   UNL     1      -0.017   1.363   0.009  0.00  0.00    +0.140 A 
ATOM     11  N   UNL     1       0.002  -0.004   0.002  0.00  0.00    -0.338 N 
ATOM     12  H   UNL     1      -0.776  -0.583   0.007  0.00  0.00    +0.167 HD
ATOM     13  C   UNL     1      -1.089   2.261   0.030  0.00  0.00    +0.140 A 
ATOM     14  C   UNL     1      -0.799   3.698   0.030  0.00  0.00    +0.208 A 
ATOM     15  O   UNL     1      -1.702   4.522   0.043  0.00  0.00    -0.286 OA
ATOM     16  C   UNL     1       0.553   4.102   0.019  0.00  0.00    +0.063 A 
ATOM     17  C   UNL     1       1.534   3.168   0.005  0.00  0.00    +0.206 A 
ENDROOT
BRANCH  16  18
ATOM     18  C   UNL     1       0.904   5.568   0.024  0.00  0.00    +0.022 C 
ATOM     19  C   UNL     1       0.310   6.239  -1.216  0.00  0.00    +0.012 C 
ATOM     20  C   UNL     1       0.333   6.225   1.282  0.00  0.00    +0.012 C 
ENDBRANCH  16  18
BRANCH  17  21
ATOM     21  O   UNL     1       2.824   3.575  -0.005  0.00  0.00    -0.493 OA
ATOM     22  H   UNL     1       3.191   3.698  -0.892  0.00  0.00    +0.294 HD
ENDBRANCH  17  21
BRANCH  13  23
ATOM     23  C   UNL     1      -2.441   1.787   0.046  0.00  0.00    +0.107 C 
ATOM     24  N   UNL     1      -3.513   1.412   0.059  0.00  0.00    -0.191 NA
ENDBRANCH  13  23
TORSDOF 3
