REMARK  Name = ZINC39688545
REMARK  12 active torsions:
REMARK  status: ('A' for Active; 'I' for Inactive)
REMARK    1  A    between atoms: C_1  and  C_2
REMARK    2  A    between atoms: C_2  and  C_4
REMARK    3  A    between atoms: C_2  and  N_12
REMARK    4  A    between atoms: C_4  and  C_5
REMARK    5  A    between atoms: C_13  and  C_15
REMARK    6  A    between atoms: C_26  and  C_28
REMARK    7  A    between atoms: C_30  and  O_38
REMARK    8  A    between atoms: C_31  and  O_36
REMARK    9  A    between atoms: C_32  and  O_34
REMARK   10  A    between atoms: O_34  and  C_35
REMARK   11  A    between atoms: O_36  and  C_37
REMARK   12  A    between atoms: O_38  and  C_39
REMARK                            x       y       z     vdW  Elec       q    Type
REMARK                         _______ _______ _______ _____ _____    ______ ____
ROOT
ATOM      1  C   UNL     1      -5.972  -0.660 -10.214  0.00  0.00    +0.100 C 
ATOM      2  C   UNL     1      -6.563   0.098 -11.424  0.00  0.00    +0.121 C 
ATOM      3  N   UNL     1      -5.721   1.310 -11.554  0.00  0.00    -0.296 N 
ATOM      4  C   UNL     1      -4.346   0.837 -11.268  0.00  0.00    +0.115 C 
ATOM      5  C   UNL     1      -4.516  -0.175 -10.117  0.00  0.00    -0.004 C 
ATOM      6  C   UNL     1      -3.555  -1.347 -10.298  0.00  0.00    -0.010 C 
ATOM      7  C   UNL     1      -2.116  -0.850 -10.139  0.00  0.00    -0.082 C 
ATOM      8  N   UNL     1      -1.946  -0.252  -8.809  0.00  0.00    +0.379 N 
ATOM      9  C   UNL     1      -2.806   0.930  -8.678  0.00  0.00    -0.082 C 
ATOM     10  C   UNL     1      -4.275   0.508  -8.775  0.00  0.00    -0.010 C 
ATOM     11  C   UNL     1      -6.117   2.561 -11.863  0.00  0.00    +0.247 C 
ATOM     12  O   UNL     1      -5.292   3.446 -11.990  0.00  0.00    -0.270 OA
ATOM     13  H   UNL     1      -2.196  -0.929  -8.104  0.00  0.00    -0.086 HD
ATOM     14  H   UNL     1      -0.982   0.019  -8.684  0.00  0.00    -0.086 HD
ENDROOT
BRANCH  11  15
ATOM     15  C   UNL     1      -7.551   2.857 -12.047  0.00  0.00    +0.044 A 
ATOM     16  C   UNL     1      -8.404   2.902 -10.941  0.00  0.00    +0.062 A 
ATOM     17  C   UNL     1      -9.747   3.180 -11.116  0.00  0.00    +0.166 A 
ATOM     18  C   UNL     1     -10.249   3.415 -12.393  0.00  0.00    +0.204 A 
ATOM     19  C   UNL     1      -9.402   3.372 -13.497  0.00  0.00    +0.166 A 
ATOM     20  C   UNL     1      -8.057   3.100 -13.326  0.00  0.00    +0.062 A 
BRANCH  19  21
ATOM     21  O   UNL     1      -9.896   3.602 -14.743  0.00  0.00    -0.491 OA
ATOM     22  C   UNL     1      -8.970   3.541 -15.829  0.00  0.00    +0.277 C 
ENDBRANCH  19  21
BRANCH  18  23
ATOM     23  O   UNL     1     -11.570   3.688 -12.563  0.00  0.00    -0.488 OA
ATOM     24  C   UNL     1     -11.949   5.066 -12.593  0.00  0.00    +0.277 C 
ENDBRANCH  18  23
BRANCH  17  25
ATOM     25  O   UNL     1     -10.577   3.223 -10.040  0.00  0.00    -0.491 OA
ATOM     26  C   UNL     1      -9.977   3.082  -8.751  0.00  0.00    +0.277 C 
ENDBRANCH  17  25
ENDBRANCH  11  15
BRANCH   1  28
ATOM     27  N   UNL     1      -6.790  -1.195  -7.942  0.00  0.00    -0.312 N 
ATOM     28  C   UNL     1      -6.726  -0.311  -8.957  0.00  0.00    +0.218 C 
ATOM     29  O   UNL     1      -7.276   0.766  -8.859  0.00  0.00    -0.275 OA
ATOM     30  H   UNL     1      -6.409  -2.081  -8.046  0.00  0.00    +0.149 HD
BRANCH  27  32
ATOM     31  C   UNL     1      -6.413  -0.141  -5.768  0.00  0.00    +0.028 C 
ATOM     32  C   UNL     1      -7.436  -0.818  -6.682  0.00  0.00    +0.074 C 
BRANCH  32  33
ATOM     33  C   UNL     1      -7.984  -2.071  -5.995  0.00  0.00    +0.057 C 
BRANCH  33  34
ATOM     34  C   UNL     1      -6.839  -2.958  -5.581  0.00  0.00    -0.045 A 
ATOM     35  C   UNL     1      -6.285  -3.840  -6.489  0.00  0.00    +0.006 A 
ATOM     36  C   UNL     1      -5.234  -4.654  -6.110  0.00  0.00    +0.038 A 
ATOM     37  C   UNL     1      -4.737  -4.586  -4.820  0.00  0.00    +0.123 A 
ATOM     38  C   UNL     1      -5.292  -3.702  -3.911  0.00  0.00    +0.038 A 
ATOM     39  C   UNL     1      -6.339  -2.885  -4.294  0.00  0.00    +0.006 A 
ATOM     40  F   UNL     1      -3.710  -5.381  -4.448  0.00  0.00    -0.205 F 
ENDBRANCH  33  34
ENDBRANCH  32  33
ENDBRANCH  27  32
ENDBRANCH   1  28
TORSDOF 8
