REMARK  Name = ZINC04453515
REMARK  4 active torsions:
REMARK  status: ('A' for Active; 'I' for Inactive)
REMARK    1  A    between atoms: C_6  and  C_7
REMARK    2  A    between atoms: C_9  and  C_19
REMARK    3  A    between atoms: C_14  and  N_18
REMARK    4  A    between atoms: C_15  and  C_16
REMARK                            x       y       z     vdW  Elec       q    Type
REMARK                         _______ _______ _______ _____ _____    ______ ____
ROOT
ATOM      1  C   UNL     1      -1.294  -0.774   0.010  0.00  0.00    +0.087 C 
ATOM      2  C   UNL     1      -2.066  -0.436  -1.258  0.00  0.00    +0.159 C 
ATOM      3  C   UNL     1      -3.434  -1.094  -1.188  0.00  0.00    +0.089 C 
ATOM      4  N   UNL     1      -3.803  -2.004  -2.029  0.00  0.00    -0.296 NA
ATOM      5  S   UNL     1      -4.492  -0.536   0.121  0.00  0.00    -0.058 S 
ATOM      6  C   UNL     1      -3.350  -0.357   1.457  0.00  0.00    +0.079 C 
ATOM      7  C   UNL     1      -2.024  -0.457   1.266  0.00  0.00    +0.066 C 
ATOM      8  H   UNL     1      -3.199  -2.287  -2.734  0.00  0.00    +0.187 HD
ENDROOT
BRANCH   1  14
ATOM      9  C   UNL     1      -0.017   1.378   0.010  0.00  0.00    +0.009 A 
ATOM     10  C   UNL     1       1.169   2.089   0.002  0.00  0.00    +0.050 A 
ATOM     11  C   UNL     1       2.381   1.417  -0.013  0.00  0.00    +0.168 A 
ATOM     12  C   UNL     1       2.401   0.024  -0.021  0.00  0.00    +0.185 A 
ATOM     13  C   UNL     1       1.208  -0.682  -0.014  0.00  0.00    +0.090 A 
ATOM     14  C   UNL     1       0.002  -0.004   0.002  0.00  0.00    -0.016 A 
ATOM     15 CL   UNL     1       1.228  -2.418  -0.024  0.00  0.00    -0.079 Cl
ATOM     16  O   UNL     1       3.700  -0.394  -0.035  0.00  0.00    -0.451 OA
ATOM     17  C   UNL     1       4.468   0.752  -0.448  0.00  0.00    +0.466 C 
ATOM     18  O   UNL     1       3.668   1.871  -0.022  0.00  0.00    -0.453 OA
ENDBRANCH   1  14
BRANCH   6  19
ATOM     19  N   UNL     1      -3.830  -0.108   2.720  0.00  0.00    -0.352 N 
ATOM     20  H   UNL     1      -4.786  -0.032   2.870  0.00  0.00    +0.143 HD
ATOM     21  H   UNL     1      -3.213  -0.008   3.462  0.00  0.00    +0.143 HD
ENDBRANCH   6  19
BRANCH   7  22
ATOM     22  C   UNL     1      -1.210  -0.233   2.423  0.00  0.00    +0.098 C 
ATOM     23  N   UNL     1      -0.565  -0.055   3.340  0.00  0.00    -0.191 NA
ENDBRANCH   7  22
BRANCH   2  24
ATOM     24  C   UNL     1      -2.224   1.024  -1.365  0.00  0.00    +0.074 C 
ATOM     25  N   UNL     1      -2.345   2.151  -1.448  0.00  0.00    -0.196 NA
ENDBRANCH   2  24
TORSDOF 4
