REMARK  Name = ZINC12502666
REMARK  10 active torsions:
REMARK  status: ('A' for Active; 'I' for Inactive)
REMARK    1  A    between atoms: C_1  and  C_2
REMARK    2  A    between atoms: C_7  and  O_8
REMARK    3  A    between atoms: O_8  and  C_9
REMARK    4  A    between atoms: C_9  and  C_10
REMARK    5  A    between atoms: N_12  and  N_13
REMARK    6  A    between atoms: N_13  and  C_14
REMARK    7  A    between atoms: C_14  and  N_16
REMARK    8  A    between atoms: C_17  and  C_19
REMARK    9  A    between atoms: C_19  and  O_20
REMARK   10  A    between atoms: O_20  and  C_21
REMARK                            x       y       z     vdW  Elec       q    Type
REMARK                         _______ _______ _______ _____ _____    ______ ____
ROOT
ATOM      1  C   UNL     1       2.963  11.626   0.031  0.00  0.00    +0.153 C 
ATOM      2  S   UNL     1       1.373  12.260   0.050  0.00  0.00    -0.017 S 
ENDROOT
BRANCH   1   3
ATOM      3  N   UNL     1       3.156  10.292   0.023  0.00  0.00    -0.264 N 
ATOM      4  C   UNL     1       2.098   9.457   0.029  0.00  0.00    +0.256 C 
ATOM      5  O   UNL     1       0.972   9.906   0.042  0.00  0.00    -0.272 OA
ATOM      6  H   UNL     1       4.057   9.933   0.012  0.00  0.00    +0.157 HD
BRANCH   4   7
ATOM      7  C   UNL     1       2.315   7.966   0.019  0.00  0.00    +0.324 C 
BRANCH   7   8
ATOM      8  O   UNL     1       1.050   7.301   0.028  0.00  0.00    -0.483 OA
BRANCH   8   9
ATOM      9  C   UNL     1       1.067   5.942   0.021  0.00  0.00    +0.122 A 
ATOM     10  C   UNL     1       2.292   5.268   0.006  0.00  0.00    +0.046 A 
ATOM     11  C   UNL     1       2.342   3.909  -0.000  0.00  0.00    +0.012 A 
ATOM     12  C   UNL     1       1.148   3.167   0.008  0.00  0.00    -0.018 A 
ATOM     13  C   UNL     1       1.163   1.762   0.000  0.00  0.00    +0.008 A 
ATOM     14  C   UNL     1      -0.013   1.076   0.008  0.00  0.00    +0.001 A 
ATOM     15  C   UNL     1      -1.235   1.746   0.017  0.00  0.00    +0.001 A 
ATOM     16  C   UNL     1      -1.288   3.105   0.030  0.00  0.00    +0.008 A 
ATOM     17  C   UNL     1      -0.095   3.849   0.023  0.00  0.00    -0.014 A 
ATOM     18  C   UNL     1      -0.112   5.253   0.029  0.00  0.00    +0.054 A 
ENDBRANCH   8   9
ENDBRANCH   7   8
ENDBRANCH   4   7
ENDBRANCH   1   3
BRANCH   1  19
ATOM     19  N   UNL     1       4.021  12.460   0.025  0.00  0.00    -0.245 N 
ATOM     20  H   UNL     1       3.881  13.420   0.031  0.00  0.00    +0.172 HD
BRANCH  19  23
ATOM     21  C   UNL     1       6.380  12.776   0.004  0.00  0.00    +0.267 C 
ATOM     22  O   UNL     1       6.206  13.976   0.011  0.00  0.00    -0.271 OA
ATOM     23  N   UNL     1       5.322  11.941   0.010  0.00  0.00    -0.232 N 
ATOM     24  H   UNL     1       5.462  10.982   0.004  0.00  0.00    +0.173 HD
BRANCH  21  25
ATOM     25  C   UNL     1       7.780  12.218  -0.013  0.00  0.00    +0.326 C 
BRANCH  25  26
ATOM     26  O   UNL     1       8.722  13.293  -0.016  0.00  0.00    -0.482 OA
BRANCH  26  33
ATOM     27  C   UNL     1      10.598  15.404  -0.037  0.00  0.00    +0.047 C 
ATOM     28  C   UNL     1      11.007  13.953  -0.041  0.00  0.00    -0.008 A 
ATOM     29  C   UNL     1      12.346  13.612  -0.050  0.00  0.00    +0.022 A 
ATOM     30  C   UNL     1      12.721  12.281  -0.061  0.00  0.00    +0.018 A 
ATOM     31  C   UNL     1      11.757  11.288  -0.056  0.00  0.00    +0.019 A 
ATOM     32  C   UNL     1      10.418  11.625  -0.041  0.00  0.00    +0.047 A 
ATOM     33  C   UNL     1      10.039  12.960  -0.031  0.00  0.00    +0.124 A 
ATOM     34 BR   UNL     1      14.554  11.817  -0.081  0.00  0.00    -0.050 Br
ENDBRANCH  26  33
ENDBRANCH  25  26
ENDBRANCH  21  25
ENDBRANCH  19  23
ENDBRANCH   1  19
TORSDOF 9
