REMARK  Name = ZINC43604398
REMARK  11 active torsions:
REMARK  status: ('A' for Active; 'I' for Inactive)
REMARK    1  A    between atoms: C_1  and  C_2
REMARK    2  A    between atoms: C_19  and  C_21
REMARK    3  A    between atoms: C_21  and  N_22
REMARK    4  A    between atoms: N_22  and  C_23
REMARK    5  A    between atoms: C_23  and  C_24
REMARK    6  A    between atoms: C_24  and  C_25
REMARK    7  A    between atoms: C_25  and  C_33
REMARK    8  A    between atoms: C_29  and  C_31
REMARK    9  A    between atoms: C_29  and  C_32
REMARK   10  A    between atoms: C_36  and  O_39
REMARK   11  A    between atoms: O_39  and  C_40
REMARK                            x       y       z     vdW  Elec       q    Type
REMARK                         _______ _______ _______ _____ _____    ______ ____
ROOT
ATOM      1  N   UNL     1      -1.784  -3.328   4.497  0.00  0.00    +0.380 N 
ATOM      2  H   UNL     1      -2.575  -3.636   3.952  0.00  0.00    -0.086 HD
ATOM      3  H   UNL     1      -0.953  -3.807   4.184  0.00  0.00    -0.086 HD
ENDROOT
BRANCH   1   4
ATOM      4  C   UNL     1      -1.607  -1.879   4.326  0.00  0.00    -0.068 C 
BRANCH   4  20
ATOM      5  C   UNL     1       0.417   1.631   0.115  0.00  0.00    +0.012 C 
ATOM      6  C   UNL     1       0.352   0.102   0.097  0.00  0.00    -0.022 C 
ATOM      7  C   UNL     1       1.050  -0.426  -1.155  0.00  0.00    +0.007 C 
ATOM      8  C   UNL     1       2.487   0.098  -1.203  0.00  0.00    +0.005 C 
ATOM      9  C   UNL     1       3.271  -0.443  -0.004  0.00  0.00    +0.030 C 
ATOM     10  C   UNL     1       2.520  -0.098   1.264  0.00  0.00    -0.073 C 
ATOM     11  C   UNL     1       3.122   0.498   2.263  0.00  0.00    +0.008 C 
ATOM     12  C   UNL     1       1.054  -0.458   1.343  0.00  0.00    +0.021 C 
ATOM     13  C   UNL     1       0.430   0.210   2.568  0.00  0.00    +0.016 C 
ATOM     14  C   UNL     1      -1.050  -0.070   2.654  0.00  0.00    +0.042 C 
ATOM     15  C   UNL     1      -1.819   0.224   1.351  0.00  0.00    +0.181 C 
ATOM     16  C   UNL     1      -1.105  -0.348   0.135  0.00  0.00    +0.052 C 
ATOM     17  O   UNL     1      -3.018  -0.579   1.543  0.00  0.00    -0.461 OA
ATOM     18  C   UNL     1      -2.634  -1.768   2.054  0.00  0.00    +0.309 C 
ATOM     19  O   UNL     1      -3.207  -2.821   1.896  0.00  0.00    -0.251 OA
ATOM     20  C   UNL     1      -1.363  -1.566   2.848  0.00  0.00    +0.087 C 
ENDBRANCH   4  20
ENDBRANCH   1   4
BRANCH   1  21
ATOM     21  C   UNL     1      -2.018  -3.628   5.915  0.00  0.00    -0.082 C 
BRANCH  21  22
ATOM     22  C   UNL     1      -2.202  -5.137   6.093  0.00  0.00    -0.007 C 
BRANCH  22  23
ATOM     23  C   UNL     1      -2.292  -5.467   7.584  0.00  0.00    -0.001 C 
ATOM     24  C   UNL     1      -2.371  -6.986   7.769  0.00  0.00    +0.039 C 
ATOM     25  C   UNL     1      -1.083  -7.624   7.240  0.00  0.00    +0.161 C 
ATOM     26  O   UNL     1       0.039  -7.068   7.928  0.00  0.00    -0.374 OA
ATOM     27  C   UNL     1       0.191  -5.657   7.753  0.00  0.00    +0.065 C 
ATOM     28  C   UNL     1      -1.046  -4.941   8.302  0.00  0.00    +0.046 C 
ATOM     29  C   UNL     1       0.344  -5.342   6.263  0.00  0.00    +0.041 C 
ATOM     30  C   UNL     1       1.434  -5.180   8.506  0.00  0.00    +0.041 C 
BRANCH  23  31
ATOM     31  C   UNL     1      -3.522  -4.822   8.170  0.00  0.00    -0.041 A 
ATOM     32  C   UNL     1      -3.392  -3.826   9.120  0.00  0.00    +0.008 A 
ATOM     33  C   UNL     1      -4.517  -3.233   9.659  0.00  0.00    +0.046 A 
ATOM     34  C   UNL     1      -5.778  -3.638   9.247  0.00  0.00    +0.120 A 
ATOM     35  C   UNL     1      -5.906  -4.638   8.293  0.00  0.00    +0.046 A 
ATOM     36  C   UNL     1      -4.777  -5.224   7.753  0.00  0.00    +0.008 A 
BRANCH  34  37
ATOM     37  O   UNL     1      -6.887  -3.057   9.776  0.00  0.00    -0.495 OA
ATOM     38  C   UNL     1      -8.152  -3.525   9.304  0.00  0.00    +0.277 C 
ENDBRANCH  34  37
ENDBRANCH  23  31
ENDBRANCH  22  23
ENDBRANCH  21  22
ENDBRANCH   1  21
TORSDOF 7
