REMARK  Name = ZINC01993259
REMARK  11 active torsions:
REMARK  status: ('A' for Active; 'I' for Inactive)
REMARK    1  A    between atoms: C_1  and  C_2
REMARK    2  A    between atoms: C_2  and  O_3
REMARK    3  A    between atoms: O_3  and  C_4
REMARK    4  A    between atoms: N_11  and  C_12
REMARK    5  A    between atoms: C_15  and  S_18
REMARK    6  A    between atoms: S_18  and  N_21
REMARK    7  A    between atoms: C_23  and  C_25
REMARK    8  A    between atoms: C_28  and  O_33
REMARK    9  A    between atoms: C_29  and  O_31
REMARK   10  A    between atoms: O_31  and  C_32
REMARK   11  A    between atoms: O_33  and  C_34
REMARK                            x       y       z     vdW  Elec       q    Type
REMARK                         _______ _______ _______ _____ _____    ______ ____
ROOT
ATOM      1  C   UNL     1      -4.886   4.207   0.373  0.00  0.00    +0.121 A 
ATOM      2  C   UNL     1      -4.831   5.592   0.481  0.00  0.00    +0.049 A 
ATOM      3  C   UNL     1      -3.618   6.250   0.474  0.00  0.00    +0.050 A 
ATOM      4  C   UNL     1      -2.438   5.528   0.358  0.00  0.00    +0.138 A 
ATOM      5  C   UNL     1      -2.492   4.131   0.243  0.00  0.00    +0.046 A 
ATOM      6  C   UNL     1      -3.719   3.473   0.257  0.00  0.00    +0.059 A 
ATOM      7  C   UNL     1      -1.221   3.384   0.126  0.00  0.00    +0.079 A 
ATOM      8  N   UNL     1      -1.205   2.064   0.019  0.00  0.00    -0.247 NA
ATOM      9  C   UNL     1      -0.019   4.139   0.128  0.00  0.00    +0.075 A 
ATOM     10  C   UNL     1      -0.079   5.490   0.239  0.00  0.00    +0.138 A 
ATOM     11  O   UNL     1      -1.241   6.156   0.350  0.00  0.00    -0.455 OA
ENDROOT
BRANCH   8  12
ATOM     12  C   UNL     1      -0.017   1.394   0.018  0.00  0.00    +0.065 A 
ATOM     13  C   UNL     1       0.597   1.054  -1.191  0.00  0.00    +0.029 A 
ATOM     14  C   UNL     1       1.795   0.371  -1.183  0.00  0.00    +0.030 A 
ATOM     15  C   UNL     1       2.390   0.022   0.017  0.00  0.00    +0.105 A 
ATOM     16  C   UNL     1       1.788   0.355   1.218  0.00  0.00    +0.030 A 
ATOM     17  C   UNL     1       0.590   1.038   1.227  0.00  0.00    +0.029 A 
BRANCH  15  18
ATOM     18  S   UNL     1       3.920  -0.851   0.016  0.00  0.00    +0.056 S 
ATOM     19  O   UNL     1       4.550  -0.565  -1.225  0.00  0.00    -0.153 OA
ATOM     20  O   UNL     1       4.542  -0.582   1.265  0.00  0.00    -0.153 OA
BRANCH  18  21
ATOM     21  N   UNL     1       3.562  -2.467   0.004  0.00  0.00    -0.204 NA
ATOM     22  H   UNL     1       2.636  -2.759  -0.001  0.00  0.00    +0.144 HD
ATOM     23  H   UNL     1       4.277  -3.123   0.002  0.00  0.00    +0.144 HD
ENDBRANCH  18  21
ENDBRANCH  15  18
ENDBRANCH   8  12
BRANCH  10  24
ATOM     24  C   UNL     1       1.181   6.258   0.238  0.00  0.00    +0.021 A 
ATOM     25  C   UNL     1       2.405   5.595   0.124  0.00  0.00    +0.015 A 
ATOM     26  C   UNL     1       3.581   6.315   0.124  0.00  0.00    +0.050 A 
ATOM     27  C   UNL     1       3.552   7.698   0.236  0.00  0.00    +0.162 A 
ATOM     28  C   UNL     1       2.334   8.366   0.350  0.00  0.00    +0.162 A 
ATOM     29  C   UNL     1       1.151   7.652   0.346  0.00  0.00    +0.061 A 
BRANCH  28  30
ATOM     30  O   UNL     1       2.310   9.721   0.459  0.00  0.00    -0.491 OA
ATOM     31  C   UNL     1       1.027  10.340   0.572  0.00  0.00    +0.277 C 
ENDBRANCH  28  30
BRANCH  27  32
ATOM     32  O   UNL     1       4.714   8.402   0.235  0.00  0.00    -0.491 OA
ATOM     33  C   UNL     1       5.926   7.654   0.115  0.00  0.00    +0.277 C 
ENDBRANCH  27  32
ENDBRANCH  10  24
BRANCH   1  34
ATOM     34  O   UNL     1      -6.088   3.572   0.382  0.00  0.00    -0.492 OA
BRANCH  34  36
ATOM     35  C   UNL     1      -8.501   3.507   0.496  0.00  0.00    +0.048 C 
ATOM     36  C   UNL     1      -7.253   4.391   0.505  0.00  0.00    +0.225 C 
ENDBRANCH  34  36
ENDBRANCH   1  34
TORSDOF 8
