REMARK  Name = ZINC30822728
REMARK  8 active torsions:
REMARK  status: ('A' for Active; 'I' for Inactive)
REMARK    1  A    between atoms: C_1  and  C_2
REMARK    2  A    between atoms: C_10  and  C_11
REMARK    3  A    between atoms: C_17  and  C_29
REMARK    4  A    between atoms: N_20  and  N_21
REMARK    5  A    between atoms: N_21  and  C_22
REMARK    6  A    between atoms: C_22  and  N_24
REMARK    7  A    between atoms: N_24  and  C_25
REMARK    8  A    between atoms: C_25  and  C_26
REMARK                            x       y       z     vdW  Elec       q    Type
REMARK                         _______ _______ _______ _____ _____    ______ ____
ROOT
ATOM      1  C   UNL     1       3.468   7.983   0.286  0.00  0.00    +0.051 C 
ATOM      2  C   UNL     1       3.534   6.478   0.254  0.00  0.00    +0.035 A 
ATOM      3  C   UNL     1       2.371   5.739   0.135  0.00  0.00    +0.144 A 
ATOM      4  C   UNL     1       2.430   4.335   0.110  0.00  0.00    +0.026 A 
ATOM      5  C   UNL     1       3.654   3.682   0.195  0.00  0.00    +0.024 A 
ATOM      6  C   UNL     1       4.818   4.431   0.315  0.00  0.00    +0.029 A 
ATOM      7  C   UNL     1       4.762   5.836   0.345  0.00  0.00    +0.142 A 
ATOM      8  O   UNL     1       6.027   6.288   0.467  0.00  0.00    -0.462 OA
ATOM      9  C   UNL     1       6.904   5.271   0.518  0.00  0.00    +0.204 A 
ATOM     10  C   UNL     1       6.249   4.091   0.431  0.00  0.00    +0.028 A 
ATOM     11  C   UNL     1       1.174   3.566  -0.023  0.00  0.00    -0.002 A 
ATOM     12  C   UNL     1       0.000   4.258  -0.107  0.00  0.00    +0.076 A 
ATOM     13  C   UNL     1       0.017   5.672  -0.071  0.00  0.00    +0.212 A 
ATOM     14  N   UNL     1      -1.114   6.326  -0.152  0.00  0.00    -0.275 N 
ATOM     15  O   UNL     1       1.172   6.365   0.046  0.00  0.00    -0.438 OA
ATOM     16  H   UNL     1      -1.110   7.423  -0.226  0.00  0.00    +0.187 HD
ENDROOT
BRANCH  10  17
ATOM     17  C   UNL     1       6.846   2.734   0.451  0.00  0.00    -0.014 A 
ATOM     18  C   UNL     1       6.345   1.761   1.315  0.00  0.00    +0.008 A 
ATOM     19  C   UNL     1       6.902   0.499   1.325  0.00  0.00    +0.001 A 
ATOM     20  C   UNL     1       7.962   0.201   0.487  0.00  0.00    +0.000 A 
ATOM     21  C   UNL     1       8.466   1.163  -0.369  0.00  0.00    +0.001 A 
ATOM     22  C   UNL     1       7.914   2.428  -0.391  0.00  0.00    +0.008 A 
ENDBRANCH  10  17
BRANCH  11  23
ATOM     23  C   UNL     1       1.188   2.087  -0.057  0.00  0.00    -0.017 A 
ATOM     24  C   UNL     1       2.024   1.374   0.804  0.00  0.00    +0.008 A 
ATOM     25  C   UNL     1       2.032  -0.005   0.767  0.00  0.00    +0.001 A 
ATOM     26  C   UNL     1       1.215  -0.681  -0.121  0.00  0.00    +0.000 A 
ATOM     27  C   UNL     1       0.384   0.019  -0.978  0.00  0.00    +0.001 A 
ATOM     28  C   UNL     1       0.367   1.399  -0.951  0.00  0.00    +0.008 A 
ENDBRANCH  11  23
BRANCH  14  29
ATOM     29  N   UNL     1      -2.329   5.628  -0.146  0.00  0.00    -0.239 N 
ATOM     30  H   UNL     1      -2.337   4.540   0.013  0.00  0.00    +0.174 HD
BRANCH  29  31
ATOM     31  C   UNL     1      -3.487   6.290  -0.334  0.00  0.00    +0.149 C 
ATOM     32  S   UNL     1      -4.972   5.438  -0.326  0.00  0.00    -0.017 S 
BRANCH  31  33
ATOM     33  N   UNL     1      -3.477   7.624  -0.528  0.00  0.00    -0.322 N 
ATOM     34  H   UNL     1      -2.523   8.172  -0.533  0.00  0.00    +0.148 HD
BRANCH  33  35
ATOM     35  C   UNL     1      -4.736   8.344  -0.733  0.00  0.00    +0.130 C 
BRANCH  35  36
ATOM     36  C   UNL     1      -4.451   9.811  -0.925  0.00  0.00    -0.016 C 
ATOM     37  C   UNL     1      -4.891  10.430  -1.992  0.00  0.00    +0.005 C 
ENDBRANCH  35  36
ENDBRANCH  33  35
ENDBRANCH  31  33
ENDBRANCH  29  31
ENDBRANCH  14  29
TORSDOF 7
