REMARK  Name = ZINC60364905
REMARK  6 active torsions:
REMARK  status: ('A' for Active; 'I' for Inactive)
REMARK    1  A    between atoms: C_1  and  C_2
REMARK    2  A    between atoms: C_2  and  C_4
REMARK    3  A    between atoms: C_2  and  N_19
REMARK    4  A    between atoms: N_6  and  C_7
REMARK    5  A    between atoms: C_10  and  S_13
REMARK    6  A    between atoms: S_13  and  C_14
REMARK                            x       y       z     vdW  Elec       q    Type
REMARK                         _______ _______ _______ _____ _____    ______ ____
ROOT
ATOM      1  C   UNL     1       0.829  -0.366   1.236  0.00  0.00    +0.238 C 
ATOM      2  O   UNL     1       1.905  -0.916   1.131  0.00  0.00    -0.273 OA
ATOM      3  N   UNL     1       0.278  -0.191   2.453  0.00  0.00    -0.284 N 
ATOM      4  H   UNL     1      -0.544   0.316   2.545  0.00  0.00    +0.155 HD
ENDROOT
BRANCH   3   5
ATOM      5  C   UNL     1       0.892  -0.740   3.587  0.00  0.00    +0.034 A 
ATOM      6  C   UNL     1       0.813  -0.081   4.807  0.00  0.00    +0.024 A 
ATOM      7  C   UNL     1       1.418  -0.622   5.924  0.00  0.00    +0.016 A 
ATOM      8  C   UNL     1       2.106  -1.825   5.827  0.00  0.00    +0.008 A 
ATOM      9  C   UNL     1       2.185  -2.483   4.606  0.00  0.00    +0.016 A 
ATOM     10  C   UNL     1       1.576  -1.945   3.491  0.00  0.00    +0.024 A 
BRANCH   8  11
ATOM     11  S   UNL     1       2.879  -2.515   7.252  0.00  0.00    -0.122 S 
BRANCH  11  12
ATOM     12  C   UNL     1       3.633  -4.049   6.643  0.00  0.00    +0.051 C 
ATOM     13  C   UNL     1       2.534  -5.058   6.253  0.00  0.00    +0.014 C 
ATOM     14  C   UNL     1       3.109  -6.431   6.682  0.00  0.00    +0.001 C 
ATOM     15  C   UNL     1       3.834  -6.097   8.009  0.00  0.00    +0.001 C 
ATOM     16  C   UNL     1       4.460  -4.709   7.760  0.00  0.00    +0.014 C 
ENDBRANCH  11  12
ENDBRANCH   8  11
ENDBRANCH   3   5
BRANCH   1  18
ATOM     17  C   UNL     1      -0.100   1.633   0.101  0.00  0.00    +0.038 C 
ATOM     18  C   UNL     1       0.109   0.121   0.005  0.00  0.00    +0.168 C 
BRANCH  18  19
ATOM     19  N   UNL     1       0.909  -0.187  -1.183  0.00  0.00    -0.212 N 
ATOM     20  C   UNL     1       0.486  -0.965  -2.203  0.00  0.00    +0.247 C 
ATOM     21  O   UNL     1      -0.586  -1.521  -2.308  0.00  0.00    -0.273 OA
ATOM     22  C   UNL     1       1.632  -0.994  -3.182  0.00  0.00    +0.113 C 
ATOM     23  C   UNL     1       1.207  -0.427  -4.544  0.00  0.00    +0.035 C 
ATOM     24  C   UNL     1       2.001  -1.279  -5.568  0.00  0.00    +0.003 C 
ATOM     25  C   UNL     1       1.986  -2.691  -4.929  0.00  0.00    +0.003 C 
ATOM     26  C   UNL     1       2.129  -2.422  -3.414  0.00  0.00    +0.035 C 
ATOM     27  N   UNL     1       2.665  -0.162  -2.563  0.00  0.00    -0.285 N 
ATOM     28  C   UNL     1       2.150   0.272  -1.395  0.00  0.00    +0.310 C 
ATOM     29  O   UNL     1       2.744   0.996  -0.621  0.00  0.00    -0.252 OA
ATOM     30  H   UNL     1       3.544   0.040  -2.922  0.00  0.00    +0.151 HD
ENDBRANCH  18  19
ENDBRANCH   1  18
TORSDOF 5
