REMARK  Name = ZINC58997940
REMARK  15 active torsions:
REMARK  status: ('A' for Active; 'I' for Inactive)
REMARK    1  A    between atoms: C_1  and  C_2
REMARK    2  A    between atoms: C_2  and  O_3
REMARK    3  A    between atoms: O_3  and  C_4
REMARK    4  A    between atoms: C_4  and  C_6
REMARK    5  A    between atoms: C_7  and  C_35
REMARK    6  A    between atoms: C_8  and  C_33
REMARK    7  A    between atoms: C_9  and  N_11
REMARK    8  A    between atoms: C_12  and  C_14
REMARK    9  A    between atoms: C_14  and  S_15
REMARK   10  A    between atoms: S_15  and  C_16
REMARK   11  A    between atoms: N_21  and  N_22
REMARK   12  A    between atoms: C_23  and  C_24
REMARK   13  A    between atoms: C_26  and  O_31
REMARK   14  A    between atoms: C_29  and  O_30
REMARK   15  A    between atoms: O_31  and  C_32
REMARK                            x       y       z     vdW  Elec       q    Type
REMARK                         _______ _______ _______ _____ _____    ______ ____
ROOT
ATOM      1  C   UNL     1     -11.377  -0.240   0.080  0.00  0.00    +0.211 A 
ATOM      2  N   UNL     1     -12.261   0.763   0.081  0.00  0.00    -0.186 NA
ATOM      3  C   UNL     1     -13.484   0.276   0.091  0.00  0.00    +0.232 A 
ATOM      4  N   UNL     1     -13.395  -1.071   0.095  0.00  0.00    -0.245 N 
ATOM      5  N   UNL     1     -12.026  -1.380   0.083  0.00  0.00    -0.144 NA
ATOM      6  N   UNL     1     -14.653   1.014   0.095  0.00  0.00    -0.205 N 
ATOM      7  H   UNL     1     -15.511   0.562   0.102  0.00  0.00    +0.177 HD
ATOM      8  H   UNL     1     -14.133  -1.702   0.102  0.00  0.00    +0.192 HD
ENDROOT
BRANCH   6   9
ATOM      9  N   UNL     1     -14.598   2.414   0.089  0.00  0.00    -0.187 NA
ATOM     10  C   UNL     1     -15.696   3.107   0.093  0.00  0.00    +0.142 C 
BRANCH  10  11
ATOM     11  C   UNL     1     -15.638   4.579   0.087  0.00  0.00    +0.039 A 
ATOM     12  C   UNL     1     -16.817   5.328   0.097  0.00  0.00    +0.058 A 
ATOM     13  C   UNL     1     -16.754   6.710   0.092  0.00  0.00    +0.121 A 
ATOM     14  C   UNL     1     -15.524   7.353   0.076  0.00  0.00    +0.049 A 
ATOM     15  C   UNL     1     -14.353   6.619   0.065  0.00  0.00    +0.049 A 
ATOM     16  C   UNL     1     -14.399   5.235   0.076  0.00  0.00    +0.126 A 
BRANCH  16  17
ATOM     17  O   UNL     1     -13.247   4.514   0.071  0.00  0.00    -0.506 OA
ATOM     18  H   UNL     1     -12.919   4.303  -0.813  0.00  0.00    +0.292 HD
ENDBRANCH  16  17
BRANCH  13  19
ATOM     19  O   UNL     1     -17.901   7.441   0.102  0.00  0.00    -0.495 OA
ATOM     20  C   UNL     1     -17.764   8.863   0.095  0.00  0.00    +0.277 C 
ENDBRANCH  13  19
ENDBRANCH  10  11
ENDBRANCH   6   9
BRANCH   1  21
ATOM     21  S   UNL     1      -9.624  -0.060   0.067  0.00  0.00    -0.075 S 
BRANCH  21  22
ATOM     22  C   UNL     1      -9.008  -1.766   0.061  0.00  0.00    +0.173 C 
BRANCH  22  24
ATOM     23  N   UNL     1      -6.819  -2.918   0.045  0.00  0.00    -0.278 N 
ATOM     24  C   UNL     1      -7.501  -1.756   0.051  0.00  0.00    +0.228 C 
ATOM     25  O   UNL     1      -6.902  -0.701   0.048  0.00  0.00    -0.275 OA
ATOM     26  H   UNL     1      -7.298  -3.761   0.048  0.00  0.00    +0.155 HD
BRANCH  23  30
ATOM     27  C   UNL     1      -2.840  -2.416   0.016  0.00  0.00    +0.102 A 
ATOM     28  C   UNL     1      -3.208  -3.747   0.018  0.00  0.00    -0.010 A 
ATOM     29  C   UNL     1      -4.571  -4.002   0.028  0.00  0.00    +0.084 A 
ATOM     30  C   UNL     1      -5.436  -2.909   0.035  0.00  0.00    +0.090 A 
ATOM     31  S   UNL     1      -4.412  -1.578   0.036  0.00  0.00    -0.065 S 
ATOM     32  C   UNL     1      -2.188  -4.857   0.009  0.00  0.00    +0.046 C 
BRANCH  27  33
ATOM     33  C   UNL     1      -1.497  -1.839   0.006  0.00  0.00    +0.346 C 
ATOM     34  O   UNL     1      -0.522  -2.567  -0.007  0.00  0.00    -0.244 OA
BRANCH  33  35
ATOM     35  O   UNL     1      -1.339  -0.499   0.012  0.00  0.00    -0.461 OA
BRANCH  35  37
ATOM     36  C   UNL     1      -0.019   1.526   0.010  0.00  0.00    +0.048 C 
ATOM     37  C   UNL     1       0.002  -0.004   0.002  0.00  0.00    +0.229 C 
ENDBRANCH  35  37
ENDBRANCH  33  35
ENDBRANCH  27  33
BRANCH  29  38
ATOM     38  C   UNL     1      -5.072  -5.343   0.031  0.00  0.00    +0.102 C 
ATOM     39  N   UNL     1      -5.471  -6.407   0.033  0.00  0.00    -0.191 NA
ENDBRANCH  29  38
ENDBRANCH  23  30
ENDBRANCH  22  24
ENDBRANCH  21  22
ENDBRANCH   1  21
TORSDOF 12
