REMARK  Name = ZINC50673310
REMARK  7 active torsions:
REMARK  status: ('A' for Active; 'I' for Inactive)
REMARK    1  A    between atoms: C_1  and  C_2
REMARK    2  A    between atoms: C_5  and  N_9
REMARK    3  A    between atoms: C_6  and  C_8
REMARK    4  A    between atoms: N_9  and  C_10
REMARK    5  A    between atoms: N_9  and  S_11
REMARK    6  A    between atoms: S_11  and  C_14
REMARK    7  A    between atoms: C_19  and  N_20
REMARK                            x       y       z     vdW  Elec       q    Type
REMARK                         _______ _______ _______ _____ _____    ______ ____
ROOT
ATOM      1  S   UNL     1      -1.359  -5.015   0.106  0.00  0.00    +0.078 S 
ATOM      2  O   UNL     1      -1.021  -6.295   0.623  0.00  0.00    -0.150 OA
ATOM      3  O   UNL     1      -2.290  -4.155   0.750  0.00  0.00    -0.150 OA
ENDROOT
BRANCH   1   4
ATOM      4  C   UNL     1      -1.960  -5.274  -1.529  0.00  0.00    +0.149 A 
ATOM      5  C   UNL     1      -2.052  -6.554  -2.048  0.00  0.00    +0.049 A 
ATOM      6  C   UNL     1      -2.531  -6.712  -3.342  0.00  0.00    +0.038 A 
ATOM      7  C   UNL     1      -2.898  -5.595  -4.068  0.00  0.00    +0.128 A 
ATOM      8  N   UNL     1      -2.799  -4.387  -3.547  0.00  0.00    -0.238 NA
ATOM      9  C   UNL     1      -2.353  -4.196  -2.315  0.00  0.00    +0.143 A 
ATOM     10 BR   UNL     1      -2.678  -8.437  -4.102  0.00  0.00    -0.049 Br
BRANCH   9  11
ATOM     11  N   UNL     1      -2.271  -2.905  -1.804  0.00  0.00    -0.342 N 
ATOM     12  H   UNL     1      -1.941  -2.760  -0.904  0.00  0.00    +0.144 HD
ATOM     13  H   UNL     1      -2.545  -2.150  -2.348  0.00  0.00    +0.144 HD
ENDBRANCH   9  11
ENDBRANCH   1   4
BRANCH   1  14
ATOM     14  N   UNL     1       0.058  -4.167  -0.021  0.00  0.00    -0.206 N 
ATOM     15  C   UNL     1       1.331  -4.882  -0.142  0.00  0.00    +0.157 C 
BRANCH  14  20
ATOM     16  C   UNL     1      -0.018   1.503   0.010  0.00  0.00    +0.044 C 
ATOM     17  C   UNL     1       0.002  -0.004   0.002  0.00  0.00    -0.050 A 
ATOM     18  C   UNL     1       0.006  -0.687  -1.200  0.00  0.00    +0.005 A 
ATOM     19  C   UNL     1       0.024  -2.068  -1.212  0.00  0.00    +0.025 A 
ATOM     20  C   UNL     1       0.040  -2.771  -0.013  0.00  0.00    +0.054 A 
ATOM     21  C   UNL     1       0.036  -2.081   1.192  0.00  0.00    -0.028 A 
ATOM     22  C   UNL     1       0.023  -0.700   1.196  0.00  0.00    +0.008 A 
ATOM     23  C   UNL     1       0.052  -2.839   2.495  0.00  0.00    +0.046 C 
ENDBRANCH  14  20
ENDBRANCH   1  14
TORSDOF 4
