REMARK  Name = ZINC36832402
REMARK  8 active torsions:
REMARK  status: ('A' for Active; 'I' for Inactive)
REMARK    1  A    between atoms: C_1  and  C_2
REMARK    2  A    between atoms: C_7  and  N_8
REMARK    3  A    between atoms: C_18  and  S_19
REMARK    4  A    between atoms: S_19  and  C_20
REMARK    5  A    between atoms: C_20  and  C_21
REMARK    6  A    between atoms: C_27  and  C_29
REMARK    7  A    between atoms: C_29  and  C_30
REMARK    8  A    between atoms: C_29  and  C_31
REMARK                            x       y       z     vdW  Elec       q    Type
REMARK                         _______ _______ _______ _____ _____    ______ ____
ROOT
ATOM      1  N   UNL     1       0.025  -0.014   2.418  0.00  0.00    -0.255 N 
ATOM      2  C   UNL     1      -1.149   0.296   3.016  0.00  0.00    +0.267 A 
ATOM      3  O   UNL     1      -2.214  -0.015   2.514  0.00  0.00    -0.267 OA
ATOM      4  C   UNL     1      -1.092   1.022   4.291  0.00  0.00    +0.065 A 
ATOM      5  C   UNL     1      -2.248   1.385   4.983  0.00  0.00    +0.017 A 
ATOM      6  C   UNL     1      -2.144   2.059   6.167  0.00  0.00    +0.021 A 
ATOM      7  C   UNL     1      -0.898   2.387   6.691  0.00  0.00    +0.043 A 
ATOM      8  C   UNL     1       0.259   2.040   6.029  0.00  0.00    +0.048 A 
ATOM      9  C   UNL     1       0.179   1.351   4.816  0.00  0.00    +0.080 A 
ATOM     10  N   UNL     1       1.289   0.989   4.131  0.00  0.00    -0.223 NA
ATOM     11  C   UNL     1       1.213   0.338   2.997  0.00  0.00    +0.177 A 
ATOM     12 CL   UNL     1      -0.801   3.244   8.198  0.00  0.00    -0.083 Cl
ENDROOT
BRANCH   1  19
ATOM     13  C   UNL     1      -0.018   1.503   0.010  0.00  0.00    +0.046 C 
ATOM     14  C   UNL     1       0.002  -0.004   0.002  0.00  0.00    -0.026 A 
ATOM     15  C   UNL     1       0.006  -0.689  -1.198  0.00  0.00    +0.005 A 
ATOM     16  C   UNL     1       0.025  -2.071  -1.206  0.00  0.00    +0.000 A 
ATOM     17  C   UNL     1       0.040  -2.773  -0.014  0.00  0.00    +0.002 A 
ATOM     18  C   UNL     1       0.036  -2.094   1.188  0.00  0.00    +0.026 A 
ATOM     19  C   UNL     1       0.023  -0.705   1.200  0.00  0.00    +0.055 A 
ENDBRANCH   1  19
BRANCH  11  20
ATOM     20  S   UNL     1       2.709  -0.099   2.176  0.00  0.00    -0.078 S 
BRANCH  20  21
ATOM     21  C   UNL     1       4.011   0.544   3.265  0.00  0.00    +0.173 C 
BRANCH  21  22
ATOM     22  C   UNL     1       5.361   0.234   2.671  0.00  0.00    +0.231 C 
ATOM     23  O   UNL     1       5.438  -0.362   1.618  0.00  0.00    -0.274 OA
ATOM     24  N   UNL     1       6.483   0.619   3.311  0.00  0.00    -0.238 N 
ATOM     25  C   UNL     1       7.725   0.333   2.765  0.00  0.00    +0.314 A 
ATOM     26  N   UNL     1       7.953  -0.295   1.639  0.00  0.00    -0.092 NA
ATOM     27  N   UNL     1       9.222  -0.381   1.448  0.00  0.00    -0.111 NA
ATOM     28  C   UNL     1       9.850   0.184   2.437  0.00  0.00    +0.222 A 
ATOM     29  O   UNL     1       8.921   0.655   3.292  0.00  0.00    -0.409 OA
ATOM     30  H   UNL     1       6.421   1.095   4.154  0.00  0.00    +0.159 HD
BRANCH  28  31
ATOM     31  C   UNL     1      11.344   0.297   2.596  0.00  0.00    +0.071 C 
ATOM     32  C   UNL     1      11.960  -1.103   2.635  0.00  0.00    +0.017 C 
ATOM     33  C   UNL     1      11.925   1.076   1.414  0.00  0.00    +0.017 C 
ENDBRANCH  28  31
ENDBRANCH  21  22
ENDBRANCH  20  21
ENDBRANCH  11  20
TORSDOF 5
