REMARK  Name = ZINC49619596
REMARK  7 active torsions:
REMARK  status: ('A' for Active; 'I' for Inactive)
REMARK    1  A    between atoms: C_4  and  C_7
REMARK    2  A    between atoms: C_7  and  N_8
REMARK    3  A    between atoms: N_16  and  C_17
REMARK    4  A    between atoms: C_17  and  C_19
REMARK    5  A    between atoms: C_19  and  C_20
REMARK    6  A    between atoms: C_20  and  C_21
REMARK    7  A    between atoms: C_21  and  N_22
REMARK                            x       y       z     vdW  Elec       q    Type
REMARK                         _______ _______ _______ _____ _____    ______ ____
ROOT
ATOM      1  N   UNL     1       4.153  -0.953   1.342  0.00  0.00    +0.386 N 
ATOM      2  C   UNL     1       5.489  -1.562   1.326  0.00  0.00    -0.072 C 
ATOM      3  C   UNL     1       6.093  -1.550   2.734  0.00  0.00    +0.035 C 
ATOM      4  C   UNL     1       5.081  -2.175   3.686  0.00  0.00    +0.024 A 
ATOM      5  C   UNL     1       3.797  -2.294   3.308  0.00  0.00    -0.004 A 
ATOM      6  S   UNL     1       3.022  -3.059   4.702  0.00  0.00    -0.059 S 
ATOM      7  C   UNL     1       4.376  -3.184   5.695  0.00  0.00    +0.163 A 
ATOM      8  N   UNL     1       5.367  -2.644   4.938  0.00  0.00    -0.339 N 
ATOM      9  N   UNL     1       4.457  -3.690   6.928  0.00  0.00    -0.157 NA
ATOM     10  C   UNL     1       3.204  -1.866   2.007  0.00  0.00    -0.033 C 
ATOM     11  H   UNL     1       6.272  -2.592   5.283  0.00  0.00    +0.167 HD
ATOM     12  H   UNL     1       4.188  -0.079   1.845  0.00  0.00    -0.081 HD
ENDROOT
BRANCH   9  13
ATOM     13  C   UNL     1       5.620  -3.705   7.564  0.00  0.00    +0.238 C 
ATOM     14  O   UNL     1       6.614  -3.256   7.025  0.00  0.00    -0.274 OA
BRANCH  13  15
ATOM     15  C   UNL     1       5.712  -4.276   8.956  0.00  0.00    +0.100 C 
BRANCH  15  16
ATOM     16  C   UNL     1       7.153  -4.172   9.456  0.00  0.00    +0.031 C 
BRANCH  16  17
ATOM     17  C   UNL     1       7.246  -4.753  10.869  0.00  0.00    +0.129 C 
BRANCH  17  18
ATOM     18  N   UNL     1       8.627  -4.653  11.349  0.00  0.00    -0.274 N 
ATOM     19  C   UNL     1       9.629  -5.608  11.182  0.00  0.00    +0.090 A 
ATOM     20  C   UNL     1       9.666  -6.852  10.572  0.00  0.00    +0.030 A 
ATOM     21  C   UNL     1      10.838  -7.583  10.572  0.00  0.00    +0.002 A 
ATOM     22  C   UNL     1      11.974  -7.076  11.179  0.00  0.00    +0.004 A 
ATOM     23  C   UNL     1      11.944  -5.837  11.790  0.00  0.00    +0.048 A 
ATOM     24  C   UNL     1      10.773  -5.097  11.794  0.00  0.00    +0.157 A 
ATOM     25  O   UNL     1      10.449  -3.882  12.302  0.00  0.00    -0.407 OA
ATOM     26  C   UNL     1       9.162  -3.618  12.026  0.00  0.00    +0.421 A 
ATOM     27  O   UNL     1       8.570  -2.604  12.342  0.00  0.00    -0.223 OA
ENDBRANCH  17  18
ENDBRANCH  16  17
ENDBRANCH  15  16
ENDBRANCH  13  15
ENDBRANCH   9  13
BRANCH   1  28
ATOM     28  C   UNL     1       3.711  -0.707  -0.038  0.00  0.00    -0.043 C 
BRANCH  28  32
ATOM     29  C   UNL     1      -0.017   1.378   0.010  0.00  0.00    +0.000 A 
ATOM     30  C   UNL     1       1.171   2.086   0.002  0.00  0.00    +0.000 A 
ATOM     31  C   UNL     1       2.377   1.411  -0.013  0.00  0.00    +0.002 A 
ATOM     32  C   UNL     1       2.396   0.029  -0.020  0.00  0.00    -0.064 A 
ATOM     33  C   UNL     1       1.208  -0.679  -0.012  0.00  0.00    +0.002 A 
ATOM     34  C   UNL     1       0.002  -0.004   0.002  0.00  0.00    +0.000 A 
ENDBRANCH  28  32
ENDBRANCH   1  28
TORSDOF 7
