REMARK  Name = ZINC36184072
REMARK  7 active torsions:
REMARK  status: ('A' for Active; 'I' for Inactive)
REMARK    1  A    between atoms: C_1  and  C_2
REMARK    2  A    between atoms: C_3  and  C_20
REMARK    3  A    between atoms: C_4  and  C_10
REMARK    4  A    between atoms: C_12  and  N_17
REMARK    5  A    between atoms: C_15  and  O_16
REMARK    6  A    between atoms: C_20  and  O_22
REMARK    7  A    between atoms: O_22  and  C_23
REMARK                            x       y       z     vdW  Elec       q    Type
REMARK                         _______ _______ _______ _____ _____    ______ ____
ROOT
ATOM      1  C   UNL     1      -2.080  -0.824   3.153  0.00  0.00    +0.061 C 
ATOM      2  C   UNL     1      -1.444  -1.619   2.042  0.00  0.00    +0.019 C 
ATOM      3  C   UNL     1      -1.845  -1.418   0.767  0.00  0.00    +0.078 C 
ATOM      4  C   UNL     1      -1.180  -2.239  -0.319  0.00  0.00    +0.145 C 
ATOM      5  N   UNL     1      -0.144  -3.194   0.108  0.00  0.00    -0.315 N 
ATOM      6  C   UNL     1       0.147  -3.281   1.421  0.00  0.00    +0.135 C 
ATOM      7  S   UNL     1       1.350  -4.388   1.931  0.00  0.00    -0.019 S 
ATOM      8  N   UNL     1      -0.469  -2.527   2.339  0.00  0.00    -0.300 N 
ATOM      9  H   UNL     1       0.318  -3.748  -0.541  0.00  0.00    +0.149 HD
ATOM     10  H   UNL     1      -0.211  -2.634   3.268  0.00  0.00    +0.154 HD
ENDROOT
BRANCH   4  11
ATOM     11  C   UNL     1      -0.554  -1.285  -1.304  0.00  0.00    +0.021 A 
ATOM     12  C   UNL     1      -0.329   0.030  -0.946  0.00  0.00    +0.042 A 
ATOM     13  C   UNL     1       0.245   0.905  -1.849  0.00  0.00    +0.127 A 
ATOM     14  C   UNL     1       0.595   0.467  -3.113  0.00  0.00    +0.036 A 
ATOM     15  C   UNL     1       0.372  -0.847  -3.476  0.00  0.00    +0.048 A 
ATOM     16  C   UNL     1      -0.199  -1.729  -2.569  0.00  0.00    +0.122 A 
BRANCH  13  17
ATOM     17  N   UNL     1       0.485   2.314  -1.463  0.00  0.00    +0.056 N 
ATOM     18  O   UNL     1       0.179   2.698  -0.358  0.00  0.00    -0.126 OA
ATOM     19  O   UNL     1       0.987   3.080  -2.252  0.00  0.00    -0.126 OA
ENDBRANCH  13  17
BRANCH  16  20
ATOM     20  O   UNL     1      -0.415  -3.023  -2.922  0.00  0.00    -0.506 OA
ATOM     21  H   UNL     1      -1.246  -3.168  -3.396  0.00  0.00    +0.292 HD
ENDBRANCH  16  20
ENDBRANCH   4  11
BRANCH   3  22
ATOM     22  C   UNL     1      -2.852  -0.474   0.458  0.00  0.00    +0.344 C 
ATOM     23  O   UNL     1      -3.300   0.246   1.330  0.00  0.00    -0.245 OA
BRANCH  22  24
ATOM     24  O   UNL     1      -3.316  -0.373  -0.805  0.00  0.00    -0.422 OA
BRANCH  24  25
ATOM     25  C   UNL     1      -4.363   0.462  -1.035  0.00  0.00    +0.132 A 
ATOM     26  C   UNL     1      -4.147   1.826  -1.174  0.00  0.00    +0.046 A 
ATOM     27  C   UNL     1      -5.213   2.673  -1.407  0.00  0.00    +0.004 A 
ATOM     28  C   UNL     1      -6.495   2.163  -1.503  0.00  0.00    +0.000 A 
ATOM     29  C   UNL     1      -6.713   0.804  -1.364  0.00  0.00    +0.004 A 
ATOM     30  C   UNL     1      -5.650  -0.048  -1.137  0.00  0.00    +0.046 A 
ENDBRANCH  24  25
ENDBRANCH  22  24
ENDBRANCH   3  22
TORSDOF 6
