REMARK  Name = ZINC05501447
REMARK  8 active torsions:
REMARK  status: ('A' for Active; 'I' for Inactive)
REMARK    1  A    between atoms: C_1  and  C_2
REMARK    2  A    between atoms: C_2  and  C_3
REMARK    3  A    between atoms: C_3  and  C_4
REMARK    4  A    between atoms: C_3  and  C_5
REMARK    5  A    between atoms: C_3  and  C_6
REMARK    6  A    between atoms: N_19  and  N_20
REMARK    7  A    between atoms: C_21  and  C_22
REMARK    8  A    between atoms: C_27  and  O_28
REMARK                            x       y       z     vdW  Elec       q    Type
REMARK                         _______ _______ _______ _____ _____    ______ ____
ROOT
ATOM      1  C   UNL     1      -1.627  -1.989  -0.578  0.00  0.00    -0.001 C 
ATOM      2  C   UNL     1      -1.071  -2.502  -1.909  0.00  0.00    +0.009 C 
ATOM      3  C   UNL     1      -0.767  -4.000  -1.770  0.00  0.00    +0.043 C 
ATOM      4  C   UNL     1      -1.950  -4.668  -1.139  0.00  0.00    -0.004 A 
ATOM      5  C   UNL     1      -2.981  -4.072  -0.497  0.00  0.00    -0.024 A 
ATOM      6  C   UNL     1      -4.015  -4.948   0.029  0.00  0.00    +0.052 A 
ATOM      7  C   UNL     1      -5.189  -4.563   0.739  0.00  0.00    +0.150 A 
ATOM      8  N   UNL     1      -5.990  -5.558   1.119  0.00  0.00    -0.219 NA
ATOM      9  C   UNL     1      -5.748  -6.830   0.875  0.00  0.00    +0.224 A 
ATOM     10  N   UNL     1      -4.674  -7.256   0.222  0.00  0.00    -0.228 NA
ATOM     11  C   UNL     1      -3.826  -6.336  -0.192  0.00  0.00    +0.114 A 
ATOM     12  S   UNL     1      -2.302  -6.407  -1.075  0.00  0.00    -0.073 S 
ATOM     13  N   UNL     1      -5.480  -3.240   1.016  0.00  0.00    -0.220 N 
ATOM     14  C   UNL     1      -3.029  -2.554  -0.351  0.00  0.00    +0.040 C 
ATOM     15  H   UNL     1      -5.026  -2.532   0.532  0.00  0.00    +0.176 HD
ENDROOT
BRANCH   1  16
ATOM     16  C   UNL     1      -1.694  -0.461  -0.610  0.00  0.00    -0.032 C 
ATOM     17  C   UNL     1      -2.246   0.054   0.721  0.00  0.00    +0.011 C 
ATOM     18  C   UNL     1      -2.611  -0.014  -1.750  0.00  0.00    +0.011 C 
BRANCH  16  20
ATOM     19  C   UNL     1      -0.356   1.635  -0.865  0.00  0.00    +0.004 C 
ATOM     20  C   UNL     1      -0.290   0.106  -0.833  0.00  0.00    +0.003 C 
ENDBRANCH  16  20
ENDBRANCH   1  16
BRANCH  13  21
ATOM     21  N   UNL     1      -6.430  -2.921   1.995  0.00  0.00    -0.189 NA
ATOM     22  C   UNL     1      -6.703  -1.679   2.255  0.00  0.00    +0.141 C 
BRANCH  22  23
ATOM     23  C   UNL     1      -7.702  -1.344   3.285  0.00  0.00    +0.036 A 
ATOM     24  C   UNL     1      -8.003  -0.009   3.564  0.00  0.00    +0.013 A 
ATOM     25  C   UNL     1      -8.940   0.297   4.529  0.00  0.00    +0.001 A 
ATOM     26  C   UNL     1      -9.583  -0.713   5.223  0.00  0.00    +0.004 A 
ATOM     27  C   UNL     1      -9.294  -2.038   4.956  0.00  0.00    +0.046 A 
ATOM     28  C   UNL     1      -8.360  -2.364   3.986  0.00  0.00    +0.125 A 
BRANCH  28  29
ATOM     29  O   UNL     1      -8.080  -3.666   3.720  0.00  0.00    -0.506 OA
ATOM     30  H   UNL     1      -7.363  -4.031   4.256  0.00  0.00    +0.292 HD
ENDBRANCH  28  29
ENDBRANCH  22  23
ENDBRANCH  13  21
TORSDOF 5
