REMARK  Name = ZINC33931679
REMARK  12 active torsions:
REMARK  status: ('A' for Active; 'I' for Inactive)
REMARK    1  A    between atoms: C_1  and  C_2
REMARK    2  A    between atoms: C_7  and  N_12
REMARK    3  A    between atoms: C_9  and  C_11
REMARK    4  A    between atoms: C_18  and  C_20
REMARK    5  A    between atoms: C_18  and  C_21
REMARK    6  A    between atoms: C_22  and  C_25
REMARK    7  A    between atoms: C_22  and  N_29
REMARK    8  A    between atoms: C_30  and  C_32
REMARK    9  A    between atoms: C_32  and  C_33
REMARK   10  A    between atoms: C_33  and  C_34
REMARK   11  A    between atoms: C_37  and  O_40
REMARK   12  A    between atoms: O_40  and  C_41
REMARK                            x       y       z     vdW  Elec       q    Type
REMARK                         _______ _______ _______ _____ _____    ______ ____
ROOT
ATOM      1  N   UNL     1       2.100  -2.477   1.972  0.00  0.00    -0.269 N 
ATOM      2  C   UNL     1       1.223  -3.245   2.667  0.00  0.00    +0.024 C 
ATOM      3  C   UNL     1       1.715  -3.572   3.893  0.00  0.00    +0.053 C 
ATOM      4  C   UNL     1       1.024  -4.364   4.821  0.00  0.00    +0.164 C 
ATOM      5  O   UNL     1       1.495  -4.605   5.915  0.00  0.00    -0.292 OA
ATOM      6  C   UNL     1      -0.329  -4.910   4.416  0.00  0.00    +0.086 C 
ATOM      7  C   UNL     1      -1.012  -3.935   3.457  0.00  0.00    -0.023 C 
ATOM      8  C   UNL     1      -0.144  -3.716   2.212  0.00  0.00    +0.058 C 
ATOM      9  C   UNL     1      -1.228  -2.596   4.164  0.00  0.00    +0.011 C 
ATOM     10  C   UNL     1      -2.368  -4.505   3.035  0.00  0.00    +0.011 C 
ATOM     11  C   UNL     1       3.070  -2.930   4.001  0.00  0.00    +0.237 C 
ATOM     12  C   UNL     1       3.231  -2.230   2.663  0.00  0.00    +0.257 C 
ATOM     13  O   UNL     1       4.184  -1.579   2.292  0.00  0.00    -0.272 OA
ENDROOT
BRANCH   1  19
ATOM     14  C   UNL     1       1.664   1.605  -0.783  0.00  0.00    +0.008 C 
ATOM     15  C   UNL     1       1.625   0.076  -0.789  0.00  0.00    -0.009 C 
ATOM     16  C   UNL     1       2.699  -0.458  -1.738  0.00  0.00    +0.003 C 
ATOM     17  C   UNL     1       2.659  -1.988  -1.745  0.00  0.00    +0.002 C 
ATOM     18  C   UNL     1       2.922  -2.510  -0.331  0.00  0.00    +0.023 C 
ATOM     19  C   UNL     1       1.848  -1.976   0.618  0.00  0.00    +0.084 C 
ATOM     20  C   UNL     1       1.888  -0.447   0.625  0.00  0.00    +0.010 C 
ATOM     21  C   UNL     1       0.813   0.087   1.574  0.00  0.00    +0.009 C 
ENDBRANCH   1  19
BRANCH  11  22
ATOM     22  C   UNL     1       3.100  -1.920   5.150  0.00  0.00    +0.424 C 
ATOM     23  F   UNL     1       2.936  -2.592   6.366  0.00  0.00    -0.167 F 
ATOM     24  F   UNL     1       4.327  -1.249   5.150  0.00  0.00    -0.167 F 
ATOM     25  F   UNL     1       2.063  -0.995   4.985  0.00  0.00    -0.167 F 
ENDBRANCH  11  22
BRANCH  11  26
ATOM     26  N   UNL     1       4.111  -3.946   4.177  0.00  0.00    -0.291 N 
ATOM     27  C   UNL     1       4.227  -4.952   3.288  0.00  0.00    +0.215 C 
ATOM     28  O   UNL     1       3.529  -4.970   2.297  0.00  0.00    -0.276 OA
ATOM     29  H   UNL     1       4.716  -3.894   4.933  0.00  0.00    +0.150 HD
BRANCH  27  30
ATOM     30  C   UNL     1       5.226  -6.056   3.526  0.00  0.00    +0.100 C 
BRANCH  30  31
ATOM     31  C   UNL     1       5.156  -7.063   2.376  0.00  0.00    +0.044 C 
BRANCH  31  32
ATOM     32  C   UNL     1       6.155  -8.166   2.614  0.00  0.00    -0.047 A 
ATOM     33  C   UNL     1       7.444  -8.046   2.131  0.00  0.00    +0.007 A 
ATOM     34  C   UNL     1       8.361  -9.056   2.347  0.00  0.00    +0.046 A 
ATOM     35  C   UNL     1       7.988 -10.192   3.050  0.00  0.00    +0.120 A 
ATOM     36  C   UNL     1       6.693 -10.310   3.534  0.00  0.00    +0.046 A 
ATOM     37  C   UNL     1       5.781  -9.295   3.320  0.00  0.00    +0.007 A 
BRANCH  35  38
ATOM     38  O   UNL     1       8.888 -11.187   3.263  0.00  0.00    -0.495 OA
ATOM     39  C   UNL     1       8.433 -12.327   3.995  0.00  0.00    +0.277 C 
ENDBRANCH  35  38
ENDBRANCH  31  32
ENDBRANCH  30  31
ENDBRANCH  27  30
ENDBRANCH  11  26
TORSDOF 7
