REMARK  Name = ZINC08816522
REMARK  3 active torsions:
REMARK  status: ('A' for Active; 'I' for Inactive)
REMARK    1  A    between atoms: C_4  and  C_7
REMARK    2  A    between atoms: C_9  and  C_17
REMARK    3  A    between atoms: C_14  and  C_15
REMARK                            x       y       z     vdW  Elec       q    Type
REMARK                         _______ _______ _______ _____ _____    ______ ____
ROOT
ATOM      1  C   UNL     1       3.696  -0.685  -0.038  0.00  0.00    +0.007 A 
ATOM      2  C   UNL     1       4.063  -1.467  -1.143  0.00  0.00    +0.036 A 
ATOM      3  C   UNL     1       5.272  -2.130  -1.141  0.00  0.00    +0.050 A 
ATOM      4  N   UNL     1       6.123  -2.037  -0.074  0.00  0.00    -0.321 N 
ATOM      5  H   UNL     1       6.968  -2.513  -0.096  0.00  0.00    +0.169 HD
ATOM      6  C   UNL     1       5.809  -1.297   1.005  0.00  0.00    +0.267 A 
ATOM      7  O   UNL     1       6.585  -1.230   1.942  0.00  0.00    -0.266 OA
ATOM      8  C   UNL     1       4.582  -0.592   1.052  0.00  0.00    +0.124 A 
ENDROOT
BRANCH   3   9
ATOM      9  C   UNL     1       5.652  -2.952  -2.305  0.00  0.00    +0.002 A 
ATOM     10  C   UNL     1       4.794  -3.051  -3.404  0.00  0.00    +0.014 A 
ATOM     11  C   UNL     1       5.151  -3.819  -4.490  0.00  0.00    +0.050 A 
ATOM     12  C   UNL     1       6.363  -4.496  -4.499  0.00  0.00    +0.166 A 
ATOM     13  C   UNL     1       7.225  -4.402  -3.406  0.00  0.00    +0.167 A 
ATOM     14  C   UNL     1       6.875  -3.629  -2.315  0.00  0.00    +0.059 A 
ATOM     15  O   UNL     1       8.336  -5.153  -3.661  0.00  0.00    -0.453 OA
ATOM     16  C   UNL     1       7.966  -6.032  -4.739  0.00  0.00    +0.466 C 
ATOM     17  O   UNL     1       6.937  -5.305  -5.436  0.00  0.00    -0.453 OA
ENDBRANCH   3   9
BRANCH   1  21
ATOM     18  C   UNL     1      -0.017   1.379   0.010  0.00  0.00    +0.000 A 
ATOM     19  C   UNL     1       1.169   2.093   0.002  0.00  0.00    +0.001 A 
ATOM     20  C   UNL     1       2.377   1.429  -0.013  0.00  0.00    +0.008 A 
ATOM     21  C   UNL     1       2.403   0.034  -0.021  0.00  0.00    -0.016 A 
ATOM     22  C   UNL     1       1.204  -0.680  -0.013  0.00  0.00    +0.008 A 
ATOM     23  C   UNL     1       0.002  -0.004   0.002  0.00  0.00    +0.001 A 
ENDBRANCH   1  21
BRANCH   8  24
ATOM     24  C   UNL     1       4.245   0.202   2.195  0.00  0.00    +0.105 C 
ATOM     25  N   UNL     1       3.978   0.832   3.102  0.00  0.00    -0.191 NA
ENDBRANCH   8  24
TORSDOF 3
