REMARK  Name = ZINC17420838
REMARK  6 active torsions:
REMARK  status: ('A' for Active; 'I' for Inactive)
REMARK    1  A    between atoms: C_1  and  C_2
REMARK    2  A    between atoms: C_5  and  O_28
REMARK    3  A    between atoms: C_17  and  C_27
REMARK    4  A    between atoms: C_22  and  C_23
REMARK    5  A    between atoms: C_22  and  O_26
REMARK    6  A    between atoms: C_23  and  N_60
REMARK                            x       y       z     vdW  Elec       q    Type
REMARK                         _______ _______ _______ _____ _____    ______ ____
ROOT
ATOM      1  C   UNL     1       4.920  -1.723   0.899  0.00  0.00    +0.016 C 
ATOM      2  C   UNL     1       4.250  -0.771  -0.093  0.00  0.00    -0.008 C 
ATOM      3  C   UNL     1       4.557   0.663   0.333  0.00  0.00    +0.014 C 
ATOM      4  C   UNL     1       5.855   1.137  -0.319  0.00  0.00    +0.032 C 
ATOM      5  C   UNL     1       6.852  -0.011  -0.459  0.00  0.00    +0.119 C 
ATOM      6  C   UNL     1       6.364  -0.984  -1.542  0.00  0.00    +0.062 C 
ATOM      7  C   UNL     1       4.847  -1.022  -1.451  0.00  0.00    -0.065 C 
ATOM      8  C   UNL     1       4.146  -1.232  -2.519  0.00  0.00    -0.027 C 
ATOM      9  C   UNL     1       2.647  -1.226  -2.546  0.00  0.00    +0.031 C 
ATOM     10  C   UNL     1       2.105  -0.454  -1.334  0.00  0.00    +0.000 C 
ATOM     11  C   UNL     1       2.748  -1.034  -0.072  0.00  0.00    +0.003 C 
ATOM     12  C   UNL     1       2.147  -0.333   1.153  0.00  0.00    +0.005 C 
ATOM     13  C   UNL     1       0.652  -0.625   1.210  0.00  0.00    +0.010 C 
ATOM     14  C   UNL     1      -0.051  -0.039  -0.019  0.00  0.00    -0.002 C 
ATOM     15  C   UNL     1       0.609  -0.556  -1.307  0.00  0.00    +0.001 C 
ATOM     16  C   UNL     1       0.127  -2.016  -1.399  0.00  0.00    +0.007 C 
ATOM     17  C   UNL     1      -1.346  -1.938  -0.934  0.00  0.00    +0.034 C 
ATOM     18  C   UNL     1      -1.470  -0.665  -0.060  0.00  0.00    +0.057 C 
ATOM     19  C   UNL     1      -0.098   1.490   0.026  0.00  0.00    +0.014 C 
ENDROOT
BRANCH  18  20
ATOM     20  O   UNL     1      -2.393   0.248  -0.657  0.00  0.00    -0.390 OA
ATOM     21  H   UNL     1      -3.298  -0.087  -0.712  0.00  0.00    +0.210 HD
ENDBRANCH  18  20
BRANCH   5  22
ATOM     22  O   UNL     1       6.961  -0.702   0.787  0.00  0.00    -0.391 OA
ATOM     23  H   UNL     1       7.647  -1.384   0.800  0.00  0.00    +0.210 HD
ENDBRANCH   5  22
BRANCH  18  24
ATOM     24  C   UNL     1      -1.927  -1.025   1.355  0.00  0.00    -0.043 C 
BRANCH  24  27
ATOM     25  C   UNL     1      -4.239  -1.018   2.074  0.00  0.00    -0.098 C 
ATOM     26  C   UNL     1      -3.574  -2.293   2.597  0.00  0.00    -0.098 C 
ATOM     27  N   UNL     1      -3.327  -1.689   1.517  0.00  0.00    +0.379 N 
ATOM     28  H   UNL     1      -3.571  -2.174   0.646  0.00  0.00    -0.082 HD
ENDBRANCH  24  27
ENDBRANCH  18  24
TORSDOF 4
