REMARK  Name = ZINC14548349
REMARK  5 active torsions:
REMARK  status: ('A' for Active; 'I' for Inactive)
REMARK    1  A    between atoms: C_1  and  N_2
REMARK    2  A    between atoms: N_2  and  C_3
REMARK    3  A    between atoms: C_9  and  C_11
REMARK    4  A    between atoms: C_24  and  C_27
REMARK    5  A    between atoms: C_36  and  O_37
REMARK                            x       y       z     vdW  Elec       q    Type
REMARK                         _______ _______ _______ _____ _____    ______ ____
ROOT
ATOM      1  C   UNL     1       1.419  -7.949  -0.943  0.00  0.00    +0.038 A 
ATOM      2  C   UNL     1       0.557  -7.840   0.153  0.00  0.00    +0.015 A 
ATOM      3  C   UNL     1      -0.173  -6.691   0.342  0.00  0.00    +0.024 A 
ATOM      4  C   UNL     1      -0.063  -5.627  -0.552  0.00  0.00    +0.031 A 
ATOM      5  C   UNL     1       0.811  -5.733  -1.645  0.00  0.00    -0.019 A 
ATOM      6  C   UNL     1       1.536  -6.883  -1.839  0.00  0.00    +0.019 A 
ATOM      7  C   UNL     1       0.925  -4.564  -2.543  0.00  0.00    +0.049 C 
ATOM      8  C   UNL     1       1.300  -4.704  -3.973  0.00  0.00    -0.023 C 
ATOM      9  C   UNL     1       0.729  -3.742  -4.667  0.00  0.00    -0.030 C 
ATOM     10  C   UNL     1      -0.153  -2.893  -3.749  0.00  0.00    +0.033 C 
ATOM     11  C   UNL     1      -0.477  -3.888  -2.627  0.00  0.00    +0.029 C 
ATOM     12  C   UNL     1      -0.733  -3.315  -1.245  0.00  0.00    +0.109 C 
ATOM     13  N   UNL     1      -0.830  -4.482  -0.341  0.00  0.00    -0.336 N 
ATOM     14  H   UNL     1      -1.438  -4.449   0.414  0.00  0.00    +0.147 HD
ENDROOT
BRANCH  12  15
ATOM     15  C   UNL     1       0.412  -2.428  -0.829  0.00  0.00    +0.022 A 
ATOM     16  C   UNL     1       1.245  -2.804   0.238  0.00  0.00    -0.009 A 
ATOM     17  C   UNL     1       1.036  -4.005   0.938  0.00  0.00    +0.009 A 
ATOM     18  C   UNL     1       1.863  -4.337   1.967  0.00  0.00    +0.001 A 
ATOM     19  C   UNL     1       2.917  -3.503   2.338  0.00  0.00    +0.001 A 
ATOM     20  C   UNL     1       3.149  -2.333   1.683  0.00  0.00    +0.008 A 
ATOM     21  C   UNL     1       2.317  -1.956   0.615  0.00  0.00    -0.017 A 
ATOM     22  C   UNL     1       2.527  -0.755  -0.084  0.00  0.00    +0.012 A 
ATOM     23  C   UNL     1       1.703  -0.420  -1.112  0.00  0.00    +0.046 A 
ATOM     24  C   UNL     1       0.644  -1.254  -1.486  0.00  0.00    +0.122 A 
BRANCH  24  25
ATOM     25  O   UNL     1      -0.163  -0.891  -2.518  0.00  0.00    -0.506 OA
ATOM     26  H   UNL     1      -0.885  -0.302  -2.263  0.00  0.00    +0.292 HD
ENDBRANCH  24  25
ENDBRANCH  12  15
BRANCH   1  29
ATOM     27  C   UNL     1       1.818  -9.769   1.183  0.00  0.00    +0.138 C 
ATOM     28  N   UNL     1       2.474  -9.991  -0.109  0.00  0.00    -0.271 N 
ATOM     29  C   UNL     1       2.200  -9.183  -1.151  0.00  0.00    +0.251 C 
ATOM     30  O   UNL     1       2.597  -9.470  -2.264  0.00  0.00    -0.270 OA
BRANCH  28  31
ATOM     31  C   UNL     1       3.384 -11.043  -0.259  0.00  0.00    +0.036 A 
ATOM     32  C   UNL     1       4.121 -11.163  -1.430  0.00  0.00    +0.023 A 
ATOM     33  C   UNL     1       5.023 -12.198  -1.573  0.00  0.00    +0.002 A 
ATOM     34  C   UNL     1       5.184 -13.123  -0.557  0.00  0.00    +0.000 A 
ATOM     35  C   UNL     1       4.447 -13.009   0.608  0.00  0.00    +0.002 A 
ATOM     36  C   UNL     1       3.548 -11.973   0.759  0.00  0.00    +0.023 A 
ENDBRANCH  28  31
ENDBRANCH   1  29
TORSDOF 4
