REMARK  Name = ZINC08881758
REMARK  10 active torsions:
REMARK  status: ('A' for Active; 'I' for Inactive)
REMARK    1  A    between atoms: C_1  and  C_2
REMARK    2  A    between atoms: N_7  and  S_9
REMARK    3  A    between atoms: S_9  and  C_12
REMARK    4  A    between atoms: C_15  and  C_18
REMARK    5  A    between atoms: N_20  and  C_21
REMARK    6  A    between atoms: C_22  and  C_33
REMARK    7  A    between atoms: C_26  and  C_31
REMARK    8  A    between atoms: C_26  and  C_32
REMARK    9  A    between atoms: C_27  and  C_29
REMARK   10  A    between atoms: C_27  and  C_30
REMARK                            x       y       z     vdW  Elec       q    Type
REMARK                         _______ _______ _______ _____ _____    ______ ____
ROOT
ATOM      1  C   UNL     1       0.081  -1.810   5.733  0.00  0.00    +0.249 C 
ATOM      2  O   UNL     1      -0.964  -2.006   6.323  0.00  0.00    -0.270 OA
ATOM      3  N   UNL     1       1.257  -1.997   6.364  0.00  0.00    -0.275 N 
ATOM      4  H   UNL     1       2.090  -1.840   5.894  0.00  0.00    +0.156 HD
ENDROOT
BRANCH   3   5
ATOM      5  C   UNL     1       1.275  -2.413   7.687  0.00  0.00    +0.090 A 
ATOM      6  C   UNL     1       2.377  -2.657   8.498  0.00  0.00    +0.084 A 
ATOM      7  C   UNL     1       2.121  -3.081   9.857  0.00  0.00    -0.021 A 
ATOM      8  C   UNL     1       0.815  -3.206  10.194  0.00  0.00    -0.015 A 
ATOM      9  S   UNL     1      -0.067  -2.757   8.727  0.00  0.00    -0.078 S 
ATOM     10  C   UNL     1       0.275  -3.639  11.517  0.00  0.00    -0.041 C 
ATOM     11  C   UNL     1       2.573  -3.028  12.279  0.00  0.00    -0.069 C 
ATOM     12  C   UNL     1       3.175  -3.383  10.914  0.00  0.00    +0.024 C 
ATOM     13  C   UNL     1       2.374  -1.513  12.364  0.00  0.00    -0.010 C 
ATOM     14  C   UNL     1       3.590  -3.434  13.362  0.00  0.00    -0.010 C 
ATOM     15  C   UNL     1      -0.810  -2.652  11.972  0.00  0.00    -0.005 C 
ATOM     16  C   UNL     1      -0.382  -5.021  11.345  0.00  0.00    -0.005 C 
ATOM     17  N   UNL     1       1.319  -3.767  12.575  0.00  0.00    +0.389 N 
ATOM     18  H   UNL     1       1.548  -4.762  12.683  0.00  0.00    -0.084 HD
ATOM     19  H   UNL     1       0.932  -3.407  13.455  0.00  0.00    -0.084 HD
BRANCH   6  20
ATOM     20  C   UNL     1       3.708  -2.495   7.995  0.00  0.00    +0.102 C 
ATOM     21  N   UNL     1       4.764  -2.367   7.595  0.00  0.00    -0.191 NA
ENDBRANCH   6  20
ENDBRANCH   3   5
BRANCH   1  25
ATOM     22  C   UNL     1       0.025  -0.534   1.682  0.00  0.00    +0.106 A 
ATOM     23  C   UNL     1       1.234  -0.730   2.326  0.00  0.00    +0.029 A 
ATOM     24  C   UNL     1       1.259  -1.140   3.643  0.00  0.00    +0.015 A 
ATOM     25  C   UNL     1       0.062  -1.367   4.323  0.00  0.00    +0.037 A 
ATOM     26  C   UNL     1      -1.155  -1.172   3.666  0.00  0.00    +0.015 A 
ATOM     27  C   UNL     1      -1.166  -0.757   2.350  0.00  0.00    +0.029 A 
BRANCH  22  28
ATOM     28  S   UNL     1       0.002  -0.004   0.002  0.00  0.00    +0.061 S 
ATOM     29  O   UNL     1      -1.243  -0.424  -0.539  0.00  0.00    -0.153 OA
ATOM     30  O   UNL     1       1.248  -0.390  -0.563  0.00  0.00    -0.153 OA
BRANCH  28  36
ATOM     31  C   UNL     1       2.453   4.301   1.106  0.00  0.00    +0.009 C 
ATOM     32  C   UNL     1       1.217   3.403   1.176  0.00  0.00    +0.002 C 
ATOM     33  C   UNL     1      -0.046   4.264   1.096  0.00  0.00    +0.006 C 
ATOM     34  C   UNL     1      -1.283   3.369   1.199  0.00  0.00    +0.017 C 
ATOM     35  C   UNL     1      -1.295   2.383   0.021  0.00  0.00    +0.109 C 
ATOM     36  N   UNL     1      -0.020   1.652   0.011  0.00  0.00    -0.176 NA
ATOM     37  C   UNL     1       1.234   2.417   0.003  0.00  0.00    +0.112 C 
ENDBRANCH  28  36
ENDBRANCH  22  28
ENDBRANCH   1  25
TORSDOF 5
