REMARK  Name = ZINC17197988
REMARK  5 active torsions:
REMARK  status: ('A' for Active; 'I' for Inactive)
REMARK    1  A    between atoms: C_1  and  C_2
REMARK    2  A    between atoms: C_2  and  C_3
REMARK    3  A    between atoms: C_2  and  C_4
REMARK    4  A    between atoms: C_7  and  N_10
REMARK    5  A    between atoms: C_13  and  C_19
REMARK                            x       y       z     vdW  Elec       q    Type
REMARK                         _______ _______ _______ _____ _____    ______ ____
ROOT
ATOM      1  N   UNL     1       4.004   2.935   3.154  0.00  0.00    -0.256 N 
ATOM      2  C   UNL     1       3.537   1.940   2.375  0.00  0.00    +0.265 A 
ATOM      3  O   UNL     1       2.908   1.019   2.867  0.00  0.00    -0.267 OA
ATOM      4  C   UNL     1       3.781   1.970   0.990  0.00  0.00    +0.072 A 
ATOM      5  C   UNL     1       4.492   3.009   0.466  0.00  0.00    +0.258 A 
ATOM      6  N   UNL     1       4.945   4.003   1.294  0.00  0.00    -0.302 N 
ATOM      7  C   UNL     1       4.700   3.954   2.616  0.00  0.00    +0.168 A 
ATOM      8  S   UNL     1       5.281   5.205   3.630  0.00  0.00    -0.012 S 
ATOM      9  O   UNL     1       4.745   3.059  -0.859  0.00  0.00    -0.267 OA
ATOM     10  H   UNL     1       5.513   4.849   0.879  0.00  0.00    +0.171 HD
ENDROOT
BRANCH   4  11
ATOM     11  C   UNL     1       3.269   0.868   0.100  0.00  0.00    +0.001 C 
ATOM     12  C   UNL     1       1.763   0.899   0.085  0.00  0.00    -0.054 A 
ATOM     13  C   UNL     1       1.129   2.130  -0.004  0.00  0.00    +0.002 A 
ATOM     14  C   UNL     1      -0.248   2.206  -0.026  0.00  0.00    +0.000 A 
ATOM     15  C   UNL     1      -1.003   1.049   0.043  0.00  0.00    +0.000 A 
ATOM     16  C   UNL     1      -0.374  -0.176   0.139  0.00  0.00    +0.004 A 
ATOM     17  C   UNL     1       1.011  -0.253   0.156  0.00  0.00    -0.047 A 
ATOM     18  C   UNL     1       1.653  -1.613   0.259  0.00  0.00    +0.016 C 
ATOM     19  C   UNL     1       3.126  -1.526  -0.146  0.00  0.00    -0.077 C 
ATOM     20  N   UNL     1       3.751  -0.423   0.602  0.00  0.00    +0.387 N 
ATOM     21  H   UNL     1       4.843  -0.480   0.480  0.00  0.00    -0.085 HD
ATOM     22  H   UNL     1       3.495  -0.521   1.667  0.00  0.00    -0.085 HD
ENDBRANCH   4  11
BRANCH   1  26
ATOM     23  C   UNL     1       3.291   2.858   7.259  0.00  0.00    -0.045 A 
ATOM     24  C   UNL     1       4.430   2.264   6.746  0.00  0.00    +0.006 A 
ATOM     25  C   UNL     1       4.669   2.288   5.386  0.00  0.00    +0.026 A 
ATOM     26  C   UNL     1       3.764   2.909   4.534  0.00  0.00    +0.052 A 
ATOM     27  C   UNL     1       2.625   3.508   5.053  0.00  0.00    +0.026 A 
ATOM     28  C   UNL     1       2.389   3.476   6.414  0.00  0.00    +0.006 A 
BRANCH  23  30
ATOM     29  C   UNL     1       2.951   4.263   9.274  0.00  0.00    +0.012 C 
ATOM     30  C   UNL     1       3.034   2.830   8.744  0.00  0.00    +0.013 C 
ATOM     31  C   UNL     1       1.713   2.108   9.019  0.00  0.00    +0.012 C 
ENDBRANCH  23  30
ENDBRANCH   1  26
TORSDOF 3
