REMARK  Name = ZINC08996638
REMARK  8 active torsions:
REMARK  status: ('A' for Active; 'I' for Inactive)
REMARK    1  A    between atoms: C_1  and  C_2
REMARK    2  A    between atoms: C_2  and  O_3
REMARK    3  A    between atoms: O_3  and  C_4
REMARK    4  A    between atoms: C_7  and  C_11
REMARK    5  A    between atoms: C_8  and  O_10
REMARK    6  A    between atoms: C_12  and  O_18
REMARK    7  A    between atoms: C_13  and  C_17
REMARK    8  A    between atoms: O_18  and  C_19
REMARK                            x       y       z     vdW  Elec       q    Type
REMARK                         _______ _______ _______ _____ _____    ______ ____
ROOT
ATOM      1  C   UNL     1      -1.988  -6.077  -0.012  0.00  0.00    +0.138 A 
ATOM      2  C   UNL     1      -0.948  -7.031  -0.016  0.00  0.00    +0.176 A 
ATOM      3  C   UNL     1      -1.515  -8.261  -0.022  0.00  0.00    +0.076 A 
ATOM      4  N   UNL     1      -2.864  -8.097  -0.021  0.00  0.00    -0.278 N 
ATOM      5  H   UNL     1      -3.525  -8.807  -0.023  0.00  0.00    +0.189 HD
ATOM      6  N   UNL     1      -3.135  -6.723  -0.008  0.00  0.00    -0.170 NA
ATOM      7  C   UNL     1      -0.780  -9.577  -0.029  0.00  0.00    +0.069 C 
ENDROOT
BRANCH   1  11
ATOM      8  C   UNL     1      -1.498  -1.848   0.006  0.00  0.00    +0.124 A 
ATOM      9  C   UNL     1      -0.384  -2.677  -0.003  0.00  0.00    +0.046 A 
ATOM     10  C   UNL     1      -0.540  -4.048  -0.009  0.00  0.00    +0.017 A 
ATOM     11  C   UNL     1      -1.817  -4.603  -0.005  0.00  0.00    +0.047 A 
ATOM     12  C   UNL     1      -2.939  -3.768   0.005  0.00  0.00    +0.130 A 
ATOM     13  C   UNL     1      -2.773  -2.393   0.016  0.00  0.00    +0.091 A 
BRANCH  12  14
ATOM     14  O   UNL     1      -4.187  -4.304   0.009  0.00  0.00    -0.506 OA
ATOM     15  H   UNL     1      -4.544  -4.463   0.893  0.00  0.00    +0.292 HD
ENDBRANCH  12  14
BRANCH   8  16
ATOM     16  O   UNL     1      -1.339  -0.499   0.012  0.00  0.00    -0.492 OA
BRANCH  16  18
ATOM     17  C   UNL     1      -0.019   1.526   0.010  0.00  0.00    +0.048 C 
ATOM     18  C   UNL     1       0.002  -0.004   0.002  0.00  0.00    +0.225 C 
ENDBRANCH  16  18
ENDBRANCH   8  16
ENDBRANCH   1  11
BRANCH   2  19
ATOM     19  O   UNL     1       0.387  -6.763  -0.016  0.00  0.00    -0.451 OA
BRANCH  19  20
ATOM     20  C   UNL     1       1.013  -6.643   1.184  0.00  0.00    +0.143 A 
ATOM     21  C   UNL     1       0.295  -6.798   2.361  0.00  0.00    +0.047 A 
ATOM     22  C   UNL     1       0.934  -6.676   3.580  0.00  0.00    +0.004 A 
ATOM     23  C   UNL     1       2.288  -6.398   3.627  0.00  0.00    +0.001 A 
ATOM     24  C   UNL     1       3.007  -6.243   2.456  0.00  0.00    +0.019 A 
ATOM     25  C   UNL     1       2.373  -6.370   1.234  0.00  0.00    +0.060 A 
ATOM     26 BR   UNL     1       3.358  -6.165  -0.367  0.00  0.00    -0.046 Br
ENDBRANCH  19  20
ENDBRANCH   2  19
TORSDOF 6
