REMARK  Name = ZINC05095252
REMARK  9 active torsions:
REMARK  status: ('A' for Active; 'I' for Inactive)
REMARK    1  A    between atoms: C_1  and  C_2
REMARK    2  A    between atoms: C_5  and  C_8
REMARK    3  A    between atoms: C_14  and  C_22
REMARK    4  A    between atoms: C_16  and  C_20
REMARK    5  A    between atoms: C_17  and  N_19
REMARK    6  A    between atoms: C_24  and  O_30
REMARK    7  A    between atoms: C_27  and  O_28
REMARK    8  A    between atoms: O_28  and  C_29
REMARK    9  A    between atoms: O_30  and  C_31
REMARK                            x       y       z     vdW  Elec       q    Type
REMARK                         _______ _______ _______ _____ _____    ______ ____
ROOT
ATOM      1  C   UNL     1       0.060  -4.246  -0.021  0.00  0.00    +0.084 C 
ATOM      2  N   UNL     1       0.070  -5.025  -1.069  0.00  0.00    -0.150 NA
ATOM      3  N   UNL     1       0.124  -6.375  -0.723  0.00  0.00    -0.115 NA
ATOM      4  C   UNL     1       0.208  -6.544   0.549  0.00  0.00    +0.227 C 
ATOM      5  C   UNL     1       0.078  -5.161   1.181  0.00  0.00    +0.140 C 
ATOM      6  C   UNL     1       1.354  -4.955   2.006  0.00  0.00    +0.086 C 
ATOM      7  C   UNL     1       1.681  -6.232   2.732  0.00  0.00    +0.095 C 
ATOM      8  C   UNL     1       1.228  -7.450   2.370  0.00  0.00    +0.200 C 
ATOM      9  O   UNL     1       0.398  -7.643   1.309  0.00  0.00    -0.425 OA
ENDROOT
BRANCH   1  14
ATOM     10  C   UNL     1      -0.018   1.503   0.010  0.00  0.00    +0.044 C 
ATOM     11  C   UNL     1       0.002  -0.004   0.002  0.00  0.00    -0.050 A 
ATOM     12  C   UNL     1       0.006  -0.686  -1.202  0.00  0.00    +0.004 A 
ATOM     13  C   UNL     1       0.024  -2.065  -1.218  0.00  0.00    +0.010 A 
ATOM     14  C   UNL     1       0.040  -2.774  -0.013  0.00  0.00    -0.001 A 
ATOM     15  C   UNL     1       0.037  -2.078   1.200  0.00  0.00    +0.010 A 
ATOM     16  C   UNL     1       0.023  -0.699   1.199  0.00  0.00    +0.004 A 
ENDBRANCH   1  14
BRANCH   6  17
ATOM     17  C   UNL     1       2.493  -4.587   1.090  0.00  0.00    +0.007 A 
ATOM     18  C   UNL     1       2.877  -5.453   0.084  0.00  0.00    +0.053 A 
ATOM     19  C   UNL     1       3.925  -5.114  -0.759  0.00  0.00    +0.121 A 
ATOM     20  C   UNL     1       4.586  -3.906  -0.593  0.00  0.00    +0.049 A 
ATOM     21  C   UNL     1       4.202  -3.041   0.412  0.00  0.00    +0.049 A 
ATOM     22  C   UNL     1       3.151  -3.377   1.253  0.00  0.00    +0.124 A 
BRANCH  22  23
ATOM     23  O   UNL     1       2.769  -2.523   2.239  0.00  0.00    -0.495 OA
ATOM     24  C   UNL     1       3.490  -1.294   2.349  0.00  0.00    +0.277 C 
ENDBRANCH  22  23
BRANCH  19  25
ATOM     25  O   UNL     1       4.303  -5.966  -1.749  0.00  0.00    -0.495 OA
ATOM     26  C   UNL     1       5.390  -5.553  -2.580  0.00  0.00    +0.277 C 
ENDBRANCH  19  25
ENDBRANCH   6  17
BRANCH   8  27
ATOM     27  N   UNL     1       1.616  -8.541   3.107  0.00  0.00    -0.328 N 
ATOM     28  H   UNL     1       2.205  -8.427   3.870  0.00  0.00    +0.145 HD
ATOM     29  H   UNL     1       1.303  -9.427   2.865  0.00  0.00    +0.145 HD
ENDBRANCH   8  27
BRANCH   7  30
ATOM     30  C   UNL     1       2.531  -6.149   3.881  0.00  0.00    +0.100 C 
ATOM     31  N   UNL     1       3.205  -6.084   4.793  0.00  0.00    -0.191 NA
ENDBRANCH   7  30
TORSDOF 6
