REMARK  Name = ZINC06194676
REMARK  8 active torsions:
REMARK  status: ('A' for Active; 'I' for Inactive)
REMARK    1  A    between atoms: C_1  and  C_2
REMARK    2  A    between atoms: C_2  and  O_3
REMARK    3  A    between atoms: O_3  and  C_4
REMARK    4  A    between atoms: C_4  and  C_6
REMARK    5  A    between atoms: C_11  and  C_13
REMARK    6  A    between atoms: C_11  and  C_28
REMARK    7  A    between atoms: C_11  and  N_69
REMARK    8  A    between atoms: N_32  and  C_33
REMARK                            x       y       z     vdW  Elec       q    Type
REMARK                         _______ _______ _______ _____ _____    ______ ____
ROOT
ATOM      1  C   UNL     1       2.467   1.063  -0.015  0.00  0.00    +0.039 C 
ENDROOT
BRANCH   1   2
ATOM      2  C   UNL     1       1.140   1.775   0.010  0.00  0.00    +0.011 A 
ATOM      3  C   UNL     1       0.716   2.456  -1.085  0.00  0.00    +0.017 A 
ATOM      4  C   UNL     1      -0.574   3.141  -1.027  0.00  0.00    +0.002 A 
ATOM      5  C   UNL     1      -1.059   3.862  -2.126  0.00  0.00    +0.059 A 
ATOM      6  C   UNL     1      -2.278   4.498  -2.042  0.00  0.00    +0.167 A 
ATOM      7  C   UNL     1      -3.031   4.425  -0.863  0.00  0.00    +0.168 A 
ATOM      8  C   UNL     1      -2.565   3.708   0.223  0.00  0.00    +0.075 A 
ATOM      9  C   UNL     1      -1.335   3.064   0.155  0.00  0.00    +0.053 A 
ATOM     10  N   UNL     1      -0.848   2.354   1.234  0.00  0.00    -0.322 N 
ATOM     11  H   UNL     1      -1.388   2.302   2.074  0.00  0.00    +0.169 HD
ATOM     12  C   UNL     1       0.342   1.731   1.171  0.00  0.00    +0.251 A 
ATOM     13  O   UNL     1       0.741   1.113   2.143  0.00  0.00    -0.268 OA
ATOM     14  O   UNL     1      -4.183   5.135  -1.042  0.00  0.00    -0.453 OA
ATOM     15  C   UNL     1      -3.943   5.979  -2.183  0.00  0.00    +0.466 C 
ATOM     16  O   UNL     1      -2.964   5.252  -2.950  0.00  0.00    -0.453 OA
ENDBRANCH   1   2
BRANCH   1  22
ATOM     17  C   UNL     1       5.651   2.923   2.150  0.00  0.00    +0.094 C 
ATOM     18  C   UNL     1       5.453   1.409   2.253  0.00  0.00    -0.004 C 
ATOM     19  C   UNL     1       4.635   0.923   1.055  0.00  0.00    -0.077 C 
ATOM     20  C   UNL     1       3.497   3.056   0.894  0.00  0.00    -0.077 C 
ATOM     21  C   UNL     1       4.281   3.606   2.088  0.00  0.00    -0.004 C 
ATOM     22  N   UNL     1       3.320   1.599   1.066  0.00  0.00    +0.389 N 
ATOM     23  H   UNL     1       2.863   1.423   1.969  0.00  0.00    -0.080 HD
BRANCH  17  24
ATOM     24  C   UNL     1       6.406   3.416   3.357  0.00  0.00    +0.310 C 
ATOM     25  O   UNL     1       6.752   2.637   4.213  0.00  0.00    -0.251 OA
BRANCH  24  26
ATOM     26  O   UNL     1       6.695   4.721   3.482  0.00  0.00    -0.465 OA
BRANCH  26  28
ATOM     27  C   UNL     1       7.660   6.636   4.636  0.00  0.00    +0.048 C 
ATOM     28  C   UNL     1       7.425   5.124   4.670  0.00  0.00    +0.229 C 
ENDBRANCH  26  28
ENDBRANCH  24  26
ENDBRANCH  17  24
ENDBRANCH   1  22
BRANCH   1  29
ATOM     29  C   UNL     1       3.122   1.268  -1.357  0.00  0.00    +0.143 A 
ATOM     30  N   UNL     1       3.706   2.362  -1.784  0.00  0.00    -0.115 NA
ATOM     31  N   UNL     1       4.141   2.141  -2.976  0.00  0.00    -0.023 NA
ATOM     32  N   UNL     1       3.850   0.935  -3.321  0.00  0.00    -0.044 NA
ATOM     33  N   UNL     1       3.226   0.363  -2.348  0.00  0.00    -0.227 N 
BRANCH  33  34
ATOM     34  C   UNL     1       2.723  -1.012  -2.326  0.00  0.00    +0.111 C 
ATOM     35  C   UNL     1       3.889  -1.985  -2.514  0.00  0.00    +0.027 C 
ATOM     36  C   UNL     1       3.363  -3.422  -2.491  0.00  0.00    +0.002 C 
ATOM     37  C   UNL     1       2.352  -3.613  -3.623  0.00  0.00    +0.000 C 
ATOM     38  C   UNL     1       1.186  -2.640  -3.434  0.00  0.00    +0.002 C 
ATOM     39  C   UNL     1       1.711  -1.204  -3.458  0.00  0.00    +0.027 C 
ENDBRANCH  33  34
ENDBRANCH   1  29
TORSDOF 7
