REMARK  Name = ZINC12884380
REMARK  9 active torsions:
REMARK  status: ('A' for Active; 'I' for Inactive)
REMARK    1  A    between atoms: C_1  and  C_2
REMARK    2  A    between atoms: C_4  and  C_35
REMARK    3  A    between atoms: C_13  and  C_15
REMARK    4  A    between atoms: C_15  and  C_16
REMARK    5  A    between atoms: C_16  and  S_17
REMARK    6  A    between atoms: S_17  and  C_18
REMARK    7  A    between atoms: N_21  and  C_24
REMARK    8  A    between atoms: C_24  and  C_25
REMARK    9  A    between atoms: C_25  and  C_26
REMARK                            x       y       z     vdW  Elec       q    Type
REMARK                         _______ _______ _______ _____ _____    ______ ____
ROOT
ATOM      1  C   UNL     1      -2.989  -2.285   6.448  0.00  0.00    +0.044 C 
ATOM      2  C   UNL     1      -3.688  -1.864   5.181  0.00  0.00    -0.050 A 
ATOM      3  C   UNL     1      -5.034  -1.550   5.204  0.00  0.00    +0.008 A 
ATOM      4  C   UNL     1      -5.679  -1.162   4.048  0.00  0.00    -0.029 A 
ATOM      5  C   UNL     1      -4.978  -1.084   2.847  0.00  0.00    +0.039 A 
ATOM      6  C   UNL     1      -3.623  -1.404   2.836  0.00  0.00    -0.027 A 
ATOM      7  C   UNL     1      -2.984  -1.789   3.993  0.00  0.00    +0.008 A 
ATOM      8  C   UNL     1      -3.171  -1.225   1.415  0.00  0.00    +0.050 C 
ATOM      9  C   UNL     1      -2.603  -2.528   0.839  0.00  0.00    +0.088 C 
ATOM     10  C   UNL     1      -1.438  -2.074  -0.083  0.00  0.00    +0.073 C 
ATOM     11  C   UNL     1      -1.433  -0.534   0.013  0.00  0.00    -0.057 C 
ATOM     12  C   UNL     1      -0.203  -2.621   0.594  0.00  0.00    +0.224 C 
ATOM     13  O   UNL     1       0.934  -2.482   0.197  0.00  0.00    -0.275 OA
ATOM     14  N   UNL     1      -0.559  -3.284   1.700  0.00  0.00    -0.241 N 
ATOM     15  C   UNL     1      -1.875  -3.300   1.939  0.00  0.00    +0.225 C 
ATOM     16  O   UNL     1      -2.410  -3.847   2.879  0.00  0.00    -0.275 OA
ATOM     17  C   UNL     1      -4.398  -0.781   0.666  0.00  0.00    +0.211 C 
ATOM     18  O   UNL     1      -4.471  -0.523  -0.516  0.00  0.00    -0.277 OA
ATOM     19  N   UNL     1      -5.400  -0.725   1.565  0.00  0.00    -0.286 N 
ATOM     20  C   UNL     1      -7.146  -0.821   4.085  0.00  0.00    +0.045 C 
ATOM     21  H   UNL     1      -6.309  -0.465   1.347  0.00  0.00    +0.155 HD
ATOM     22  N   UNL     1      -2.096  -0.254   1.288  0.00  0.00    +0.394 N 
ATOM     23  H   UNL     1      -1.432  -0.358   2.064  0.00  0.00    -0.083 HD
ATOM     24  H   UNL     1      -2.477   0.699   1.289  0.00  0.00    -0.083 HD
ENDROOT
BRANCH  11  25
ATOM     25  C   UNL     1       0.002  -0.004   0.002  0.00  0.00    -0.004 C 
BRANCH  25  26
ATOM     26  C   UNL     1      -0.019   1.526   0.010  0.00  0.00    +0.067 C 
BRANCH  26  27
ATOM     27  S   UNL     1       1.683   2.154  -0.002  0.00  0.00    -0.164 S 
ATOM     28  C   UNL     1       1.486   3.957   0.009  0.00  0.00    +0.084 C 
ENDBRANCH  26  27
ENDBRANCH  25  26
ENDBRANCH  11  25
BRANCH  14  29
ATOM     29  C   UNL     1       0.413  -3.939   2.579  0.00  0.00    +0.121 C 
BRANCH  29  30
ATOM     30  C   UNL     1       0.876  -2.952   3.653  0.00  0.00    +0.054 C 
BRANCH  30  31
ATOM     31  C   UNL     1       1.876  -3.626   4.557  0.00  0.00    -0.046 A 
ATOM     32  C   UNL     1       1.445  -4.291   5.690  0.00  0.00    +0.004 A 
ATOM     33  C   UNL     1       2.362  -4.913   6.516  0.00  0.00    +0.000 A 
ATOM     34  C   UNL     1       3.711  -4.861   6.216  0.00  0.00    +0.000 A 
ATOM     35  C   UNL     1       4.141  -4.192   5.086  0.00  0.00    +0.000 A 
ATOM     36  C   UNL     1       3.224  -3.574   4.256  0.00  0.00    +0.004 A 
ENDBRANCH  30  31
ENDBRANCH  29  30
ENDBRANCH  14  29
TORSDOF 6
