REMARK  Name = ZINC66886314
REMARK  8 active torsions:
REMARK  status: ('A' for Active; 'I' for Inactive)
REMARK    1  A    between atoms: C_1  and  C_2
REMARK    2  A    between atoms: C_2  and  C_4
REMARK    3  A    between atoms: C_2  and  N_14
REMARK    4  A    between atoms: N_10  and  C_11
REMARK    5  A    between atoms: N_10  and  C_12
REMARK    6  A    between atoms: C_17  and  N_20
REMARK    7  A    between atoms: C_21  and  C_23
REMARK    8  A    between atoms: C_23  and  C_24
REMARK                            x       y       z     vdW  Elec       q    Type
REMARK                         _______ _______ _______ _____ _____    ______ ____
ROOT
ATOM      1  N   UNL     1       0.758  -0.528   1.147  0.00  0.00    -0.293 NA
ATOM      2  C   UNL     1       2.045   0.165   1.289  0.00  0.00    +0.087 C 
ATOM      3  C   UNL     1       2.865  -0.501   2.396  0.00  0.00    +0.037 C 
ATOM      4  C   UNL     1       2.083  -0.441   3.711  0.00  0.00    +0.075 C 
ATOM      5  C   UNL     1       0.728  -1.127   3.522  0.00  0.00    +0.037 C 
ATOM      6  C   UNL     1      -0.030  -0.443   2.383  0.00  0.00    +0.087 C 
ENDROOT
BRANCH   4   7
ATOM      7  N   UNL     1       2.838  -1.129   4.762  0.00  0.00    -0.312 N 
ATOM      8  C   UNL     1       2.645  -0.801   6.055  0.00  0.00    +0.214 C 
ATOM      9  O   UNL     1       1.846   0.063   6.349  0.00  0.00    -0.276 OA
ATOM     10  H   UNL     1       3.477  -1.820   4.527  0.00  0.00    +0.149 HD
BRANCH   8  11
ATOM     11  C   UNL     1       3.421  -1.509   7.136  0.00  0.00    +0.099 C 
BRANCH  11  12
ATOM     12  C   UNL     1       3.016  -0.953   8.502  0.00  0.00    -0.002 C 
ATOM     13  C   UNL     1       3.433   0.516   8.599  0.00  0.00    +0.004 C 
ATOM     14  C   UNL     1       3.028   1.072   9.966  0.00  0.00    +0.000 C 
ATOM     15  C   UNL     1       3.722   0.271  11.069  0.00  0.00    +0.000 C 
ATOM     16  C   UNL     1       3.304  -1.198  10.972  0.00  0.00    +0.000 C 
ATOM     17  C   UNL     1       3.710  -1.754   9.605  0.00  0.00    +0.004 C 
ENDBRANCH  11  12
ENDBRANCH   8  11
ENDBRANCH   4   7
BRANCH   1  19
ATOM     18  C   UNL     1       0.801  -0.229  -1.283  0.00  0.00    +0.032 C 
ATOM     19  C   UNL     1       0.002  -0.004   0.002  0.00  0.00    +0.122 C 
BRANCH  19  20
ATOM     20  C   UNL     1      -1.320  -0.720  -0.097  0.00  0.00    +0.153 A 
ATOM     21  N   UNL     1      -1.365  -2.038  -0.004  0.00  0.00    -0.198 NA
ATOM     22  C   UNL     1      -2.530  -2.674  -0.090  0.00  0.00    +0.217 A 
ATOM     23  N   UNL     1      -3.651  -1.983  -0.270  0.00  0.00    -0.181 NA
ATOM     24  C   UNL     1      -3.602  -0.658  -0.363  0.00  0.00    +0.222 A 
ATOM     25  N   UNL     1      -2.433  -0.029  -0.271  0.00  0.00    -0.198 NA
ATOM     26  N   UNL     1      -4.763   0.064  -0.551  0.00  0.00    -0.306 N 
ATOM     27  C   UNL     1      -6.050  -0.629  -0.647  0.00  0.00    +0.132 C 
ATOM     28  C   UNL     1      -4.708   1.524  -0.653  0.00  0.00    +0.132 C 
ATOM     29  N   UNL     1      -2.576  -4.050   0.007  0.00  0.00    -0.327 N 
ATOM     30  H   UNL     1      -1.757  -4.554   0.138  0.00  0.00    +0.145 HD
ATOM     31  H   UNL     1      -3.426  -4.513  -0.056  0.00  0.00    +0.145 HD
ENDBRANCH  19  20
ENDBRANCH   1  19
TORSDOF 5
