REMARK  Name = ZINC21244209
REMARK  10 active torsions:
REMARK  status: ('A' for Active; 'I' for Inactive)
REMARK    1  A    between atoms: C_1  and  C_2
REMARK    2  A    between atoms: C_2  and  C_3
REMARK    3  A    between atoms: C_3  and  O_4
REMARK    4  A    between atoms: O_4  and  C_5
REMARK    5  A    between atoms: C_8  and  C_13
REMARK    6  A    between atoms: C_10  and  O_11
REMARK    7  A    between atoms: O_11  and  C_12
REMARK    8  A    between atoms: C_18  and  C_23
REMARK    9  A    between atoms: C_26  and  C_29
REMARK   10  A    between atoms: C_29  and  C_30
REMARK                            x       y       z     vdW  Elec       q    Type
REMARK                         _______ _______ _______ _____ _____    ______ ____
ROOT
ATOM      1  C   UNL     1      -4.588   4.926  -0.042  0.00  0.00    +0.136 C 
ATOM      2  C   UNL     1      -3.302   4.152   0.137  0.00  0.00    +0.036 C 
ATOM      3  C   UNL     1      -2.756   3.792   1.309  0.00  0.00    +0.017 C 
ATOM      4  C   UNL     1      -1.425   3.057   1.340  0.00  0.00    +0.059 C 
ATOM      5  C   UNL     1      -1.309   2.144   0.120  0.00  0.00    +0.032 C 
ATOM      6  C   UNL     1      -1.393   3.026  -1.132  0.00  0.00    +0.088 C 
ATOM      7  C   UNL     1      -2.669   3.810  -1.082  0.00  0.00    +0.163 C 
ATOM      8  O   UNL     1      -3.179   4.166  -2.126  0.00  0.00    -0.292 OA
ATOM      9  N   UNL     1      -3.290   4.040   2.532  0.00  0.00    -0.316 N 
ATOM     10  C   UNL     1      -3.792   5.271   2.942  0.00  0.00    +0.052 A 
ATOM     11  C   UNL     1      -3.231   5.991   3.982  0.00  0.00    +0.025 A 
ATOM     12  C   UNL     1      -3.811   7.187   4.369  0.00  0.00    +0.002 A 
ATOM     13  C   UNL     1      -4.940   7.655   3.723  0.00  0.00    +0.002 A 
ATOM     14  C   UNL     1      -5.491   6.945   2.671  0.00  0.00    +0.025 A 
ATOM     15  C   UNL     1      -4.901   5.757   2.265  0.00  0.00    +0.049 A 
ATOM     16  N   UNL     1      -5.378   5.051   1.164  0.00  0.00    -0.331 N 
ATOM     17  H   UNL     1      -3.348   3.236   3.280  0.00  0.00    +0.152 HD
ATOM     18  H   UNL     1      -6.372   4.585   1.222  0.00  0.00    +0.147 HD
ENDROOT
BRANCH   1  22
ATOM     19  C   UNL     1      -3.628   8.847  -1.452  0.00  0.00    +0.162 A 
ATOM     20  C   UNL     1      -3.194   8.431  -0.203  0.00  0.00    +0.050 A 
ATOM     21  C   UNL     1      -3.507   7.163   0.250  0.00  0.00    +0.009 A 
ATOM     22  C   UNL     1      -4.251   6.307  -0.540  0.00  0.00    -0.019 A 
ATOM     23  C   UNL     1      -4.683   6.714  -1.789  0.00  0.00    +0.055 A 
ATOM     24  C   UNL     1      -4.378   7.986  -2.247  0.00  0.00    +0.162 A 
BRANCH  24  25
ATOM     25  O   UNL     1      -4.806   8.389  -3.473  0.00  0.00    -0.491 OA
ATOM     26  C   UNL     1      -5.571   7.452  -4.234  0.00  0.00    +0.277 C 
ENDBRANCH  24  25
BRANCH  19  27
ATOM     27  O   UNL     1      -3.321  10.094  -1.900  0.00  0.00    -0.488 OA
BRANCH  27  28
ATOM     28  C   UNL     1      -2.547  10.923  -1.030  0.00  0.00    +0.229 C 
BRANCH  28  30
ATOM     29  C   UNL     1      -1.476  13.165  -0.769  0.00  0.00    +0.007 C 
ATOM     30  C   UNL     1      -2.304  12.277  -1.700  0.00  0.00    +0.038 C 
ENDBRANCH  28  30
ENDBRANCH  27  28
ENDBRANCH  19  27
ENDBRANCH   1  22
BRANCH   5  31
ATOM     31  C   UNL     1       0.013   1.421   0.147  0.00  0.00    -0.043 A 
ATOM     32  C   UNL     1       1.193   2.139   0.165  0.00  0.00    +0.004 A 
ATOM     33  C   UNL     1       2.406   1.475   0.183  0.00  0.00    +0.004 A 
ATOM     34  C   UNL     1       2.437   0.093   0.185  0.00  0.00    -0.048 A 
ATOM     35  C   UNL     1       1.256  -0.625   0.168  0.00  0.00    +0.004 A 
ATOM     36  C   UNL     1       0.044   0.039   0.149  0.00  0.00    +0.004 A 
BRANCH  34  37
ATOM     37  C   UNL     1       3.759  -0.630   0.206  0.00  0.00    +0.032 C 
ATOM     38  C   UNL     1       4.228  -0.877  -1.229  0.00  0.00    +0.009 C 
ENDBRANCH  34  37
ENDBRANCH   5  31
TORSDOF 7
