REMARK  Name = ZINC58516201
REMARK  6 active torsions:
REMARK  status: ('A' for Active; 'I' for Inactive)
REMARK    1  A    between atoms: C_1  and  C_2
REMARK    2  A    between atoms: C_3  and  C_12
REMARK    3  A    between atoms: N_14  and  C_15
REMARK    4  A    between atoms: C_15  and  C_16
REMARK    5  A    between atoms: C_15  and  C_17
REMARK    6  A    between atoms: C_21  and  N_23
REMARK                            x       y       z     vdW  Elec       q    Type
REMARK                         _______ _______ _______ _____ _____    ______ ____
ROOT
ATOM      1  C   UNL     1      -0.006  -0.318  -2.511  0.00  0.00    +0.247 C 
ATOM      2  O   UNL     1       1.042  -0.112  -3.094  0.00  0.00    -0.270 OA
ATOM      3  N   UNL     1      -1.179  -0.121  -3.145  0.00  0.00    -0.305 N 
ATOM      4  H   UNL     1      -2.014  -0.285  -2.681  0.00  0.00    +0.150 HD
ENDROOT
BRANCH   1   7
ATOM      5  C   UNL     1      -0.018   1.503   0.010  0.00  0.00    +0.064 C 
ATOM      6  C   UNL     1       0.002  -0.004   0.002  0.00  0.00    +0.026 A 
ATOM      7  C   UNL     1       0.007  -0.782  -1.118  0.00  0.00    +0.065 A 
ATOM      8  C   UNL     1       0.029  -2.182  -0.654  0.00  0.00    +0.012 A 
ATOM      9  C   UNL     1       0.042  -3.415  -1.300  0.00  0.00    +0.011 A 
ATOM     10  C   UNL     1       0.062  -4.575  -0.557  0.00  0.00    +0.001 A 
ATOM     11  C   UNL     1       0.067  -4.517   0.830  0.00  0.00    +0.002 A 
ATOM     12  C   UNL     1       0.054  -3.304   1.482  0.00  0.00    +0.026 A 
ATOM     13  C   UNL     1       0.034  -2.122   0.749  0.00  0.00    +0.047 A 
ATOM     14  N   UNL     1       0.024  -0.789   1.106  0.00  0.00    -0.358 N 
ATOM     15  H   UNL     1       0.028  -0.461   2.018  0.00  0.00    +0.166 HD
ENDBRANCH   1   7
BRANCH   3  16
ATOM     16  C   UNL     1      -1.192   0.342  -4.535  0.00  0.00    +0.100 C 
ATOM     17  C   UNL     1      -1.087   1.868  -4.565  0.00  0.00    +0.033 C 
BRANCH  16  18
ATOM     18  C   UNL     1      -2.477  -0.086  -5.195  0.00  0.00    -0.025 A 
ATOM     19  C   UNL     1      -3.669  -0.019  -4.497  0.00  0.00    +0.005 A 
ATOM     20  C   UNL     1      -4.847  -0.412  -5.102  0.00  0.00    +0.003 A 
ATOM     21  C   UNL     1      -4.835  -0.871  -6.406  0.00  0.00    +0.033 A 
ATOM     22  C   UNL     1      -3.644  -0.937  -7.104  0.00  0.00    +0.127 A 
ATOM     23  C   UNL     1      -2.466  -0.540  -6.500  0.00  0.00    +0.038 A 
BRANCH  22  24
ATOM     24  N   UNL     1      -3.631  -1.429  -8.500  0.00  0.00    +0.056 N 
ATOM     25  O   UNL     1      -4.662  -1.773  -9.030  0.00  0.00    -0.126 OA
ATOM     26  O   UNL     1      -2.590  -1.486  -9.111  0.00  0.00    -0.126 OA
ENDBRANCH  22  24
ENDBRANCH  16  18
ENDBRANCH   3  16
TORSDOF 4
