REMARK  Name = ZINC14456433
REMARK  4 active torsions:
REMARK  status: ('A' for Active; 'I' for Inactive)
REMARK    1  A    between atoms: C_1  and  C_2
REMARK    2  A    between atoms: C_5  and  C_7
REMARK    3  A    between atoms: C_18  and  N_24
REMARK    4  A    between atoms: C_20  and  O_23
REMARK                            x       y       z     vdW  Elec       q    Type
REMARK                         _______ _______ _______ _____ _____    ______ ____
ROOT
ATOM      1  C   UNL     1       2.565   1.272  -0.016  0.00  0.00    +0.112 C 
ATOM      2  C   UNL     1       3.116   1.344  -1.442  0.00  0.00    +0.029 C 
ATOM      3  C   UNL     1       2.351   0.301  -2.303  0.00  0.00    +0.033 C 
ATOM      4  C   UNL     1       3.073  -0.999  -2.012  0.00  0.00    -0.030 C 
ATOM      5  C   UNL     1       4.277  -0.764  -1.554  0.00  0.00    -0.023 C 
ATOM      6  C   UNL     1       4.529   0.724  -1.466  0.00  0.00    +0.049 C 
ATOM      7  C   UNL     1       5.299   1.056  -0.222  0.00  0.00    -0.014 A 
ATOM      8  C   UNL     1       6.640   0.691  -0.169  0.00  0.00    +0.039 A 
ATOM      9  C   UNL     1       7.401   0.962   0.949  0.00  0.00    +0.130 A 
ATOM     10  C   UNL     1       6.833   1.603   2.035  0.00  0.00    +0.080 A 
ATOM     11  C   UNL     1       5.502   1.974   1.993  0.00  0.00    +0.140 A 
ATOM     12  C   UNL     1       4.729   1.701   0.859  0.00  0.00    +0.074 A 
ATOM     13  N   UNL     1       3.389   2.098   0.867  0.00  0.00    -0.333 N 
ATOM     14  H   UNL     1       3.301   3.075   0.634  0.00  0.00    +0.147 HD
ENDROOT
BRANCH   1  19
ATOM     15  C   UNL     1      -2.355   4.080   0.046  0.00  0.00    +0.051 C 
ATOM     16  C   UNL     1      -1.196   3.116   0.030  0.00  0.00    -0.013 A 
ATOM     17  C   UNL     1      -1.213   1.761   0.017  0.00  0.00    +0.011 A 
ATOM     18  C   UNL     1      -0.013   1.076   0.008  0.00  0.00    +0.013 A 
ATOM     19  C   UNL     1       1.146   1.780   0.001  0.00  0.00    +0.010 A 
ATOM     20  S   UNL     1       0.555   3.464   0.015  0.00  0.00    -0.097 S 
ENDBRANCH   1  19
BRANCH   9  21
ATOM     21  N   UNL     1       8.826   0.564   0.987  0.00  0.00    +0.057 N 
ATOM     22  O   UNL     1       9.326  -0.002   0.032  0.00  0.00    -0.126 OA
ATOM     23  O   UNL     1       9.498   0.803   1.974  0.00  0.00    -0.126 OA
ENDBRANCH   9  21
BRANCH  11  24
ATOM     24  O   UNL     1       4.941   2.607   3.058  0.00  0.00    -0.505 OA
ATOM     25  H   UNL     1       4.550   2.009   3.710  0.00  0.00    +0.292 HD
ENDBRANCH  11  24
TORSDOF 3
