REMARK  Name = ZINC44170678
REMARK  14 active torsions:
REMARK  status: ('A' for Active; 'I' for Inactive)
REMARK    1  A    between atoms: C_1  and  C_2
REMARK    2  A    between atoms: C_2  and  C_3
REMARK    3  A    between atoms: C_2  and  C_4
REMARK    4  A    between atoms: C_2  and  C_5
REMARK    5  A    between atoms: C_7  and  C_16
REMARK    6  A    between atoms: C_9  and  C_12
REMARK    7  A    between atoms: C_10  and  O_11
REMARK    8  A    between atoms: C_12  and  C_13
REMARK    9  A    between atoms: C_12  and  C_14
REMARK   10  A    between atoms: C_12  and  C_15
REMARK   11  A    between atoms: C_22  and  C_25
REMARK   12  A    between atoms: N_27  and  C_28
REMARK   13  A    between atoms: C_28  and  C_29
REMARK   14  A    between atoms: C_29  and  C_30
REMARK                            x       y       z     vdW  Elec       q    Type
REMARK                         _______ _______ _______ _____ _____    ______ ____
ROOT
ATOM      1  C   UNL     1       2.441   0.950  -4.241  0.00  0.00    -0.027 C 
ATOM      2  C   UNL     1       1.452   1.083  -5.405  0.00  0.00    +0.092 C 
ATOM      3  S   UNL     1       2.089   2.343  -6.554  0.00  0.00    +0.020 S 
ATOM      4  O   UNL     1       1.382   2.263  -7.784  0.00  0.00    -0.257 OA
ATOM      5  C   UNL     1       3.812   1.815  -6.808  0.00  0.00    +0.097 C 
ATOM      6  C   UNL     1       4.448   1.573  -5.434  0.00  0.00    +0.029 C 
ATOM      7  N   UNL     1       3.738   0.494  -4.743  0.00  0.00    +0.392 N 
ATOM      8  H   UNL     1       4.299   0.174  -3.967  0.00  0.00    -0.084 HD
ATOM      9  H   UNL     1       3.594  -0.273  -5.383  0.00  0.00    -0.084 HD
ENDROOT
BRANCH   1  12
ATOM     10  C   UNL     1       0.787  -0.520  -1.183  0.00  0.00    -0.000 A 
ATOM     11  C   UNL     1       1.275   0.393  -2.098  0.00  0.00    +0.009 A 
ATOM     12  C   UNL     1       1.910  -0.048  -3.244  0.00  0.00    -0.060 A 
ATOM     13  C   UNL     1       2.058  -1.403  -3.478  0.00  0.00    +0.009 A 
ATOM     14  C   UNL     1       1.573  -2.320  -2.567  0.00  0.00    -0.000 A 
ATOM     15  C   UNL     1       0.940  -1.880  -1.413  0.00  0.00    +0.124 A 
BRANCH  10  17
ATOM     16  C   UNL     1       0.060   1.490   0.074  0.00  0.00    +0.015 C 
ATOM     17  C   UNL     1       0.095  -0.040   0.066  0.00  0.00    -0.009 C 
ATOM     18  C   UNL     1       0.857  -0.538   1.296  0.00  0.00    +0.015 C 
ATOM     19  C   UNL     1      -1.335  -0.583   0.098  0.00  0.00    +0.015 C 
ENDBRANCH  10  17
BRANCH  14  20
ATOM     20  C   UNL     1       1.735  -3.796  -2.822  0.00  0.00    -0.009 C 
ATOM     21  C   UNL     1       2.466  -4.006  -4.150  0.00  0.00    +0.015 C 
ATOM     22  C   UNL     1       2.547  -4.423  -1.688  0.00  0.00    +0.015 C 
ATOM     23  C   UNL     1       0.356  -4.456  -2.889  0.00  0.00    +0.015 C 
ENDBRANCH  14  20
BRANCH  15  24
ATOM     24  O   UNL     1       0.466  -2.780  -0.511  0.00  0.00    -0.506 OA
ATOM     25  H   UNL     1      -0.446  -3.056  -0.673  0.00  0.00    +0.292 HD
ENDBRANCH  15  24
ENDBRANCH   1  12
BRANCH   6  26
ATOM     26  C   UNL     1       4.364   2.834  -4.614  0.00  0.00    +0.200 C 
ATOM     27  O   UNL     1       4.173   2.768  -3.418  0.00  0.00    -0.278 OA
ATOM     28  N   UNL     1       4.499   4.035  -5.209  0.00  0.00    -0.316 N 
ATOM     29  H   UNL     1       4.652   4.088  -6.166  0.00  0.00    +0.149 HD
BRANCH  28  30
ATOM     30  C   UNL     1       4.417   5.261  -4.412  0.00  0.00    +0.109 C 
BRANCH  30  31
ATOM     31  C   UNL     1       4.603   6.476  -5.323  0.00  0.00    +0.056 C 
BRANCH  31  32
ATOM     32  C   UNL     1       4.519   7.737  -4.502  0.00  0.00    -0.011 A 
ATOM     33  C   UNL     1       3.317   8.411  -4.392  0.00  0.00    +0.006 A 
ATOM     34  C   UNL     1       3.239   9.568  -3.640  0.00  0.00    +0.000 A 
ATOM     35  C   UNL     1       4.363  10.053  -2.996  0.00  0.00    +0.003 A 
ATOM     36  C   UNL     1       5.566   9.380  -3.105  0.00  0.00    +0.038 A 
ATOM     37  C   UNL     1       5.644   8.218  -3.854  0.00  0.00    +0.127 A 
ATOM     38  F   UNL     1       6.817   7.557  -3.957  0.00  0.00    -0.205 F 
ENDBRANCH  31  32
ENDBRANCH  30  31
ENDBRANCH  28  30
ENDBRANCH   6  26
TORSDOF 8
