REMARK  Name = ZINC41597072
REMARK  1 active torsions:
REMARK  status: ('A' for Active; 'I' for Inactive)
REMARK    1  A    between atoms: C_10  and  N_11
REMARK                            x       y       z     vdW  Elec       q    Type
REMARK                         _______ _______ _______ _____ _____    ______ ____
ROOT
ATOM      1  N   UNL     1       4.871   0.097  -0.044  0.00  0.00    -0.285 N 
ATOM      2  C   UNL     1       6.066  -0.567   0.045  0.00  0.00    +0.200 A 
ATOM      3  N   UNL     1       7.224   0.140   0.145  0.00  0.00    -0.295 N 
ATOM      4  H   UNL     1       7.208   1.110   0.154  0.00  0.00    +0.172 HD
ATOM      5  C   UNL     1       8.391  -0.521   0.232  0.00  0.00    +0.257 A 
ATOM      6  O   UNL     1       9.439   0.098   0.323  0.00  0.00    -0.267 OA
ATOM      7  C   UNL     1       8.404  -1.941   0.219  0.00  0.00    +0.049 A 
ATOM      8  C   UNL     1       7.221  -2.595   0.117  0.00  0.00    +0.064 A 
ATOM      9  N   UNL     1       6.082  -1.878   0.038  0.00  0.00    -0.219 NA
ATOM     10  C   UNL     1       7.269  -4.123   0.106  0.00  0.00    +0.125 C 
ATOM     11  S   UNL     1       9.049  -4.439  -0.238  0.00  0.00    -0.150 S 
ATOM     12  C   UNL     1       9.668  -2.796   0.311  0.00  0.00    +0.111 C 
ATOM     13  H   UNL     1       4.858   1.064  -0.128  0.00  0.00    +0.155 HD
ENDROOT
BRANCH   1  23
ATOM     14  C   UNL     1       0.198   0.931  -1.760  0.00  0.00    +0.001 A 
ATOM     15  C   UNL     1       1.385   1.660  -1.801  0.00  0.00    +0.001 A 
ATOM     16  C   UNL     1       2.526   1.174  -1.239  0.00  0.00    +0.010 A 
ATOM     17  C   UNL     1       2.509  -0.080  -0.608  0.00  0.00    +0.003 A 
ATOM     18  C   UNL     1       1.303  -0.822  -0.566  0.00  0.00    -0.016 A 
ATOM     19  C   UNL     1       0.145  -0.288  -1.157  0.00  0.00    +0.008 A 
ATOM     20  C   UNL     1       1.286  -2.077   0.066  0.00  0.00    +0.008 A 
ATOM     21  C   UNL     1       2.422  -2.571   0.631  0.00  0.00    +0.002 A 
ATOM     22  C   UNL     1       3.612  -1.851   0.596  0.00  0.00    +0.024 A 
ATOM     23  C   UNL     1       3.672  -0.616  -0.014  0.00  0.00    +0.041 A 
ENDBRANCH   1  23
TORSDOF 1
