REMARK  Name = ZINC39687126
REMARK  8 active torsions:
REMARK  status: ('A' for Active; 'I' for Inactive)
REMARK    1  A    between atoms: C_1  and  C_2
REMARK    2  A    between atoms: C_2  and  C_4
REMARK    3  A    between atoms: C_2  and  N_12
REMARK    4  A    between atoms: C_4  and  C_5
REMARK    5  A    between atoms: C_13  and  C_15
REMARK    6  A    between atoms: C_26  and  C_28
REMARK    7  A    between atoms: C_31  and  O_34
REMARK    8  A    between atoms: O_34  and  C_35
REMARK                            x       y       z     vdW  Elec       q    Type
REMARK                         _______ _______ _______ _____ _____    ______ ____
ROOT
ATOM      1  C   UNL     1       0.399  -1.947   2.979  0.00  0.00    +0.100 C 
ATOM      2  C   UNL     1       1.067  -3.339   3.036  0.00  0.00    +0.121 C 
ATOM      3  N   UNL     1       0.901  -3.777   4.442  0.00  0.00    -0.296 N 
ATOM      4  C   UNL     1      -0.463  -3.325   4.809  0.00  0.00    +0.115 C 
ATOM      5  C   UNL     1      -0.605  -1.942   4.144  0.00  0.00    -0.004 C 
ATOM      6  C   UNL     1      -2.024  -1.754   3.617  0.00  0.00    -0.010 C 
ATOM      7  C   UNL     1      -2.998  -1.694   4.797  0.00  0.00    -0.082 C 
ATOM      8  N   UNL     1      -2.631  -0.581   5.681  0.00  0.00    +0.379 N 
ATOM      9  C   UNL     1      -1.301  -0.816   6.256  0.00  0.00    -0.082 C 
ATOM     10  C   UNL     1      -0.256  -0.839   5.138  0.00  0.00    -0.010 C 
ATOM     11  C   UNL     1       1.788  -4.435   5.213  0.00  0.00    +0.248 C 
ATOM     12  O   UNL     1       2.921  -4.623   4.811  0.00  0.00    -0.270 OA
ATOM     13  H   UNL     1      -2.619   0.278   5.151  0.00  0.00    -0.086 HD
ATOM     14  H   UNL     1      -3.309  -0.505   6.424  0.00  0.00    -0.086 HD
ENDROOT
BRANCH  11  15
ATOM     15  C   UNL     1       1.387  -4.928   6.545  0.00  0.00    +0.055 A 
ATOM     16  C   UNL     1       0.030  -5.096   6.863  0.00  0.00    +0.020 A 
ATOM     17  C   UNL     1      -0.296  -5.559   8.120  0.00  0.00    +0.068 A 
ATOM     18  C   UNL     1       0.723  -5.844   9.026  0.00  0.00    +0.220 A 
ATOM     19  N   UNL     1       1.994  -5.675   8.696  0.00  0.00    -0.220 NA
ATOM     20  C   UNL     1       2.350  -5.241   7.505  0.00  0.00    +0.127 A 
BRANCH  18  21
ATOM     21  O   UNL     1       0.409  -6.299  10.263  0.00  0.00    -0.438 OA
BRANCH  21  22
ATOM     22  C   UNL     1       1.427  -6.658  11.088  0.00  0.00    +0.130 A 
ATOM     23  C   UNL     1       2.147  -5.685  11.767  0.00  0.00    +0.046 A 
ATOM     24  C   UNL     1       3.182  -6.053  12.605  0.00  0.00    +0.004 A 
ATOM     25  C   UNL     1       3.500  -7.388  12.768  0.00  0.00    +0.000 A 
ATOM     26  C   UNL     1       2.784  -8.360  12.093  0.00  0.00    +0.004 A 
ATOM     27  C   UNL     1       1.745  -7.998  11.258  0.00  0.00    +0.046 A 
ENDBRANCH  21  22
ENDBRANCH  18  21
ENDBRANCH  11  15
BRANCH   1  29
ATOM     28  N   UNL     1      -0.458  -0.530   1.142  0.00  0.00    -0.312 N 
ATOM     29  C   UNL     1      -0.319  -1.763   1.666  0.00  0.00    +0.218 C 
ATOM     30  O   UNL     1      -0.771  -2.725   1.082  0.00  0.00    -0.275 OA
ATOM     31  H   UNL     1      -0.097   0.240   1.609  0.00  0.00    +0.149 HD
BRANCH  28  33
ATOM     32  C   UNL     1      -2.662  -0.255   0.118  0.00  0.00    +0.028 C 
ATOM     33  C   UNL     1      -1.156  -0.351  -0.134  0.00  0.00    +0.074 C 
BRANCH  33  34
ATOM     34  C   UNL     1      -0.668   0.934  -0.806  0.00  0.00    +0.060 C 
BRANCH  34  35
ATOM     35  C   UNL     1       0.788   0.791  -1.165  0.00  0.00    -0.010 A 
ATOM     36  C   UNL     1       1.762   1.258  -0.302  0.00  0.00    +0.006 A 
ATOM     37  C   UNL     1       3.098   1.128  -0.631  0.00  0.00    +0.000 A 
ATOM     38  C   UNL     1       3.462   0.530  -1.824  0.00  0.00    +0.003 A 
ATOM     39  C   UNL     1       2.491   0.062  -2.688  0.00  0.00    +0.038 A 
ATOM     40  C   UNL     1       1.152   0.187  -2.357  0.00  0.00    +0.127 A 
ATOM     41  F   UNL     1       0.201  -0.274  -3.198  0.00  0.00    -0.205 F 
ENDBRANCH  34  35
ENDBRANCH  33  34
ENDBRANCH  28  33
ENDBRANCH   1  29
TORSDOF 7
