REMARK  Name = ZINC03606127
REMARK  2 active torsions:
REMARK  status: ('A' for Active; 'I' for Inactive)
REMARK    1  A    between atoms: N_13  and  C_17
REMARK    2  A    between atoms: C_17  and  C_18
REMARK                            x       y       z     vdW  Elec       q    Type
REMARK                         _______ _______ _______ _____ _____    ______ ____
ROOT
ATOM      1  C   UNL     1       2.314   2.208   3.593  0.00  0.00    +0.001 A 
ATOM      2  C   UNL     1       3.525   1.543   3.524  0.00  0.00    +0.004 A 
ATOM      3  C   UNL     1       3.982   1.070   2.311  0.00  0.00    +0.046 A 
ATOM      4  C   UNL     1       3.231   1.260   1.157  0.00  0.00    +0.126 A 
ATOM      5  C   UNL     1       2.016   1.923   1.229  0.00  0.00    +0.027 A 
ATOM      6  C   UNL     1       1.563   2.397   2.449  0.00  0.00    +0.010 A 
ATOM      7  C   UNL     1       1.176   2.139   0.002  0.00  0.00    +0.144 C 
ATOM      8  C   UNL     1       2.004   1.934  -1.262  0.00  0.00    +0.081 C 
ATOM      9  C   UNL     1       2.803   0.632  -1.109  0.00  0.00    +0.232 C 
ATOM     10  O   UNL     1       3.714   0.786  -0.021  0.00  0.00    -0.492 OA
ATOM     11  C   UNL     1      -0.014   1.208   0.009  0.00  0.00    +0.252 C 
ATOM     12  O   UNL     1       0.002  -0.004   0.002  0.00  0.00    -0.272 OA
ATOM     13  N   UNL     1      -1.099   2.010   0.017  0.00  0.00    -0.219 N 
ATOM     14  C   UNL     1      -0.755   3.304   0.027  0.00  0.00    +0.310 C 
ATOM     15  O   UNL     1      -1.558   4.217   0.039  0.00  0.00    -0.252 OA
ATOM     16  N   UNL     1       0.580   3.481   0.016  0.00  0.00    -0.281 N 
ATOM     17  H   UNL     1       1.054   4.327   0.016  0.00  0.00    +0.152 HD
ENDROOT
BRANCH  13  18
ATOM     18  C   UNL     1      -2.482   1.526   0.020  0.00  0.00    +0.156 C 
BRANCH  18  19
ATOM     19  C   UNL     1      -2.950   1.352   1.442  0.00  0.00    +0.007 A 
ATOM     20  C   UNL     1      -2.774   0.140   2.085  0.00  0.00    +0.047 A 
ATOM     21  C   UNL     1      -3.200  -0.018   3.392  0.00  0.00    +0.020 A 
ATOM     22  C   UNL     1      -3.811   1.032   4.052  0.00  0.00    +0.003 A 
ATOM     23  C   UNL     1      -3.991   2.242   3.408  0.00  0.00    +0.020 A 
ATOM     24  C   UNL     1      -3.561   2.402   2.103  0.00  0.00    +0.047 A 
ATOM     25 CL   UNL     1      -3.789   3.921   1.294  0.00  0.00    -0.083 Cl
ATOM     26 CL   UNL     1      -2.013  -1.181   1.254  0.00  0.00    -0.083 Cl
ENDBRANCH  18  19
ENDBRANCH  13  18
TORSDOF 2
