REMARK  Name = ZINC14358292
REMARK  10 active torsions:
REMARK  status: ('A' for Active; 'I' for Inactive)
REMARK    1  A    between atoms: C_1  and  N_2
REMARK    2  A    between atoms: N_2  and  C_3
REMARK    3  A    between atoms: N_2  and  S_4
REMARK    4  A    between atoms: S_4  and  C_7
REMARK    5  A    between atoms: C_10  and  N_33
REMARK    6  A    between atoms: C_11  and  C_13
REMARK    7  A    between atoms: C_13  and  O_15
REMARK    8  A    between atoms: O_15  and  C_16
REMARK    9  A    between atoms: C_16  and  C_17
REMARK   10  A    between atoms: N_22  and  C_23
REMARK                            x       y       z     vdW  Elec       q    Type
REMARK                         _______ _______ _______ _____ _____    ______ ____
ROOT
ATOM      1  O   UNL     1      -9.207   0.823   3.482  0.00  0.00    -0.452 OA
ENDROOT
BRANCH   1   2
ATOM      2  C   UNL     1     -10.520   0.543   3.595  0.00  0.00    +0.341 C 
ATOM      3  O   UNL     1     -11.063  -0.166   2.771  0.00  0.00    -0.245 OA
BRANCH   2   8
ATOM      4  C   UNL     1     -11.389   2.332   6.776  0.00  0.00    +0.106 A 
ATOM      5  C   UNL     1     -12.760   2.136   6.834  0.00  0.00    +0.030 A 
ATOM      6  C   UNL     1     -13.407   1.425   5.845  0.00  0.00    +0.026 A 
ATOM      7  C   UNL     1     -12.687   0.904   4.777  0.00  0.00    +0.044 A 
ATOM      8  C   UNL     1     -11.297   1.095   4.718  0.00  0.00    +0.082 A 
ATOM      9  C   UNL     1     -10.656   1.818   5.729  0.00  0.00    +0.045 A 
BRANCH   7  10
ATOM     10  N   UNL     1     -13.336   0.193   3.777  0.00  0.00    -0.329 N 
ATOM     11  C   UNL     1     -14.147  -0.912   4.350  0.00  0.00    +0.105 C 
ATOM     12  C   UNL     1     -15.164  -1.226   3.224  0.00  0.00    +0.020 C 
ATOM     13  C   UNL     1     -15.487   0.172   2.649  0.00  0.00    +0.020 C 
ATOM     14  C   UNL     1     -14.290   1.056   3.047  0.00  0.00    +0.105 C 
ENDBRANCH   7  10
BRANCH   4  15
ATOM     15  S   UNL     1     -10.579   3.242   8.048  0.00  0.00    +0.060 S 
ATOM     16  O   UNL     1     -11.406   3.153   9.201  0.00  0.00    -0.153 OA
ATOM     17  O   UNL     1      -9.222   2.820   8.049  0.00  0.00    -0.153 OA
BRANCH  15  19
ATOM     18  C   UNL     1     -11.692   5.706   7.971  0.00  0.00    +0.131 C 
ATOM     19  N   UNL     1     -10.579   4.833   7.588  0.00  0.00    -0.183 NA
ATOM     20  C   UNL     1      -9.467   5.367   6.798  0.00  0.00    +0.131 C 
ENDBRANCH  15  19
ENDBRANCH   4  15
ENDBRANCH   2   8
ENDBRANCH   1   2
BRANCH   1  21
ATOM     21  C   UNL     1      -8.504   0.245   2.351  0.00  0.00    +0.328 C 
BRANCH  21  22
ATOM     22  C   UNL     1      -7.057   0.665   2.390  0.00  0.00    +0.258 C 
ATOM     23  O   UNL     1      -6.658   1.381   3.283  0.00  0.00    -0.272 OA
ATOM     24  N   UNL     1      -6.207   0.245   1.432  0.00  0.00    -0.237 N 
ATOM     25  C   UNL     1      -4.913   0.621   1.467  0.00  0.00    +0.306 C 
ATOM     26  O   UNL     1      -4.513   1.339   2.363  0.00  0.00    -0.252 OA
ATOM     27  N   UNL     1      -4.063   0.201   0.509  0.00  0.00    -0.294 N 
ATOM     28  H   UNL     1      -6.527  -0.328   0.718  0.00  0.00    +0.159 HD
ATOM     29  H   UNL     1      -4.383  -0.372  -0.205  0.00  0.00    +0.151 HD
BRANCH  27  30
ATOM     30  C   UNL     1      -2.657   0.609   0.548  0.00  0.00    +0.037 C 
ATOM     31  C   UNL     1      -1.916  -0.000  -0.644  0.00  0.00    +0.029 C 
ATOM     32  C   UNL     1      -0.448   0.426  -0.605  0.00  0.00    -0.008 C 
ATOM     33  C   UNL     1       0.191  -0.064   0.697  0.00  0.00    +0.007 C 
ATOM     34  C   UNL     1      -0.550   0.546   1.889  0.00  0.00    -0.008 C 
ATOM     35  C   UNL     1      -2.019   0.119   1.849  0.00  0.00    +0.029 C 
ATOM     36  C   UNL     1      -0.460   2.071   1.819  0.00  0.00    +0.007 C 
ATOM     37  C   UNL     1      -1.098   2.561   0.518  0.00  0.00    -0.008 C 
ATOM     38  C   UNL     1      -0.357   1.952  -0.674  0.00  0.00    +0.007 C 
ATOM     39  C   UNL     1      -2.567   2.135   0.478  0.00  0.00    +0.029 C 
ENDBRANCH  27  30
ENDBRANCH  21  22
ENDBRANCH   1  21
TORSDOF 8
