REMARK  Name = ZINC13660238
REMARK  5 active torsions:
REMARK  status: ('A' for Active; 'I' for Inactive)
REMARK    1  A    between atoms: C_1  and  C_2
REMARK    2  A    between atoms: C_2  and  C_23
REMARK    3  A    between atoms: N_3  and  N_4
REMARK    4  A    between atoms: C_10  and  C_13
REMARK    5  A    between atoms: N_15  and  C_16
REMARK                            x       y       z     vdW  Elec       q    Type
REMARK                         _______ _______ _______ _____ _____    ______ ____
ROOT
ATOM      1  N   UNL     1       0.043   5.509   0.052  0.00  0.00    -0.126 NA
ATOM      2  C   UNL     1      -1.107   6.152   0.059  0.00  0.00    +0.183 C 
ATOM      3  N   UNL     1      -2.302   5.465   0.057  0.00  0.00    -0.264 N 
ATOM      4  C   UNL     1      -3.471   6.001  -0.262  0.00  0.00    +0.220 C 
ATOM      5  O   UNL     1      -4.421   5.248  -0.290  0.00  0.00    -0.275 OA
ATOM      6  C   UNL     1      -3.747   7.429  -0.598  0.00  0.00    +0.120 C 
ATOM      7  C   UNL     1      -2.505   8.144  -1.131  0.00  0.00    +0.149 C 
ATOM      8  S   UNL     1      -1.156   7.920   0.064  0.00  0.00    -0.075 S 
ATOM      9  H   UNL     1      -2.288   4.528   0.310  0.00  0.00    +0.157 HD
ENDROOT
BRANCH   7  10
ATOM     10  C   UNL     1      -2.798   9.613  -1.295  0.00  0.00    +0.231 C 
ATOM     11  O   UNL     1      -3.547  10.172  -0.523  0.00  0.00    -0.274 OA
ATOM     12  N   UNL     1      -2.227  10.305  -2.301  0.00  0.00    -0.285 N 
ATOM     13  H   UNL     1      -1.576   9.875  -2.877  0.00  0.00    +0.155 HD
BRANCH  12  14
ATOM     14  C   UNL     1      -2.573  11.645  -2.513  0.00  0.00    +0.033 A 
ATOM     15  C   UNL     1      -2.625  12.154  -3.804  0.00  0.00    +0.024 A 
ATOM     16  C   UNL     1      -2.971  13.475  -4.010  0.00  0.00    +0.017 A 
ATOM     17  C   UNL     1      -3.256  14.293  -2.932  0.00  0.00    +0.018 A 
ATOM     18  C   UNL     1      -3.199  13.790  -1.644  0.00  0.00    +0.017 A 
ATOM     19  C   UNL     1      -2.858  12.469  -1.432  0.00  0.00    +0.024 A 
ATOM     20 BR   UNL     1      -3.722  16.104  -3.218  0.00  0.00    -0.050 Br
ENDBRANCH  12  14
ENDBRANCH   7  10
BRANCH   1  23
ATOM     21  C   UNL     1       2.494   4.352   0.038  0.00  0.00    +0.068 C 
ATOM     22  C   UNL     1       1.198   3.581   0.042  0.00  0.00    +0.068 C 
ATOM     23  N   UNL     1       0.060   4.219   0.049  0.00  0.00    -0.152 NA
BRANCH  22  24
ATOM     24  C   UNL     1       1.218   2.110   0.038  0.00  0.00    -0.002 A 
ATOM     25  C   UNL     1       0.018   1.391   0.042  0.00  0.00    +0.011 A 
ATOM     26  C   UNL     1       0.044   0.013   0.038  0.00  0.00    +0.020 A 
ATOM     27  C   UNL     1       1.254  -0.660   0.030  0.00  0.00    +0.041 A 
ATOM     28  C   UNL     1       2.447   0.045   0.027  0.00  0.00    +0.020 A 
ATOM     29  C   UNL     1       2.436   1.423   0.030  0.00  0.00    +0.011 A 
ATOM     30 CL   UNL     1       1.277  -2.396   0.026  0.00  0.00    -0.084 Cl
ENDBRANCH  22  24
ENDBRANCH   1  23
TORSDOF 4
