REMARK  Name = ZINC04910438
REMARK  6 active torsions:
REMARK  status: ('A' for Active; 'I' for Inactive)
REMARK    1  A    between atoms: C_1  and  C_2
REMARK    2  A    between atoms: C_7  and  C_8
REMARK    3  A    between atoms: C_8  and  O_10
REMARK    4  A    between atoms: O_10  and  C_11
REMARK    5  A    between atoms: C_14  and  C_17
REMARK    6  A    between atoms: C_19  and  C_24
REMARK                            x       y       z     vdW  Elec       q    Type
REMARK                         _______ _______ _______ _____ _____    ______ ____
ROOT
ATOM      1  C   UNL     1      -0.018   1.503   0.010  0.00  0.00    +0.047 C 
ATOM      2  C   UNL     1       0.002  -0.004   0.002  0.00  0.00    -0.008 A 
ATOM      3  C   UNL     1       0.008  -0.834  -1.125  0.00  0.00    +0.042 A 
ATOM      4  C   UNL     1       0.031  -2.156  -0.678  0.00  0.00    +0.028 A 
ATOM      5  N   UNL     1       0.034  -2.138   0.655  0.00  0.00    -0.352 N 
ATOM      6  H   UNL     1       0.046  -2.921   1.227  0.00  0.00    +0.166 HD
ATOM      7  C   UNL     1       0.024  -0.827   1.095  0.00  0.00    +0.128 A 
ATOM      8  C   UNL     1       0.050  -3.336  -1.615  0.00  0.00    +0.062 C 
ATOM      9  C   UNL     1       0.544  -2.880  -2.991  0.00  0.00    +0.032 C 
ATOM     10  C   UNL     1      -0.268  -1.681  -3.488  0.00  0.00    +0.088 C 
ATOM     11  C   UNL     1      -0.007  -0.505  -2.559  0.00  0.00    +0.166 C 
ATOM     12  O   UNL     1       0.175   0.622  -2.970  0.00  0.00    -0.292 OA
ENDROOT
BRANCH   9  13
ATOM     13  C   UNL     1       0.401  -4.016  -3.971  0.00  0.00    -0.043 A 
ATOM     14  C   UNL     1      -0.847  -4.554  -4.227  0.00  0.00    +0.007 A 
ATOM     15  C   UNL     1      -0.979  -5.596  -5.126  0.00  0.00    +0.038 A 
ATOM     16  C   UNL     1       0.138  -6.100  -5.771  0.00  0.00    +0.123 A 
ATOM     17  C   UNL     1       1.387  -5.560  -5.514  0.00  0.00    +0.038 A 
ATOM     18  C   UNL     1       1.516  -4.515  -4.618  0.00  0.00    +0.007 A 
ATOM     19  F   UNL     1       0.010  -7.118  -6.650  0.00  0.00    -0.205 F 
ENDBRANCH   9  13
BRANCH   7  20
ATOM     20  C   UNL     1       0.033  -0.393   2.495  0.00  0.00    +0.356 C 
ATOM     21  O   UNL     1       0.019   0.793   2.764  0.00  0.00    -0.243 OA
BRANCH  20  22
ATOM     22  O   UNL     1       0.055  -1.308   3.485  0.00  0.00    -0.457 OA
BRANCH  22  23
ATOM     23  C   UNL     1       0.062  -0.814   4.826  0.00  0.00    +0.177 C 
ATOM     24  C   UNL     1       1.507  -0.619   5.290  0.00  0.00    +0.045 C 
ATOM     25  C   UNL     1       2.245  -1.957   5.236  0.00  0.00    +0.007 C 
ATOM     26  C   UNL     1       1.546  -2.963   6.154  0.00  0.00    -0.014 C 
ATOM     27  C   UNL     1       0.102  -3.158   5.690  0.00  0.00    +0.007 C 
ATOM     28  C   UNL     1      -0.637  -1.819   5.744  0.00  0.00    +0.045 C 
ATOM     29  C   UNL     1       2.285  -4.301   6.100  0.00  0.00    +0.007 C 
ENDBRANCH  22  23
ENDBRANCH  20  22
ENDBRANCH   7  20
TORSDOF 4
