REMARK  Name = ZINC06405799
REMARK  8 active torsions:
REMARK  status: ('A' for Active; 'I' for Inactive)
REMARK    1  A    between atoms: C_1  and  C_2
REMARK    2  A    between atoms: C_5  and  C_34
REMARK    3  A    between atoms: C_9  and  C_14
REMARK    4  A    between atoms: C_14  and  C_16
REMARK    5  A    between atoms: C_14  and  N_63
REMARK    6  A    between atoms: N_20  and  C_21
REMARK    7  A    between atoms: C_21  and  C_22
REMARK    8  A    between atoms: C_30  and  C_33
REMARK                            x       y       z     vdW  Elec       q    Type
REMARK                         _______ _______ _______ _____ _____    ______ ____
ROOT
ATOM      1  C   UNL     1       1.667   6.426  -1.702  0.00  0.00    +0.039 C 
ENDROOT
BRANCH   1  10
ATOM      2  C   UNL     1       2.799   9.040   2.657  0.00  0.00    +0.044 C 
ATOM      3  C   UNL     1       3.351   9.835   1.502  0.00  0.00    -0.041 A 
ATOM      4  C   UNL     1       4.006  11.012   1.730  0.00  0.00    +0.004 A 
ATOM      5  C   UNL     1       4.518  11.752   0.673  0.00  0.00    +0.005 A 
ATOM      6  C   UNL     1       4.376  11.315  -0.626  0.00  0.00    -0.026 A 
ATOM      7  C   UNL     1       3.712  10.120  -0.883  0.00  0.00    +0.052 A 
ATOM      8  C   UNL     1       3.194   9.372   0.192  0.00  0.00    +0.002 A 
ATOM      9  C   UNL     1       2.498   8.115  -0.089  0.00  0.00    +0.018 A 
ATOM     10  C   UNL     1       2.377   7.715  -1.379  0.00  0.00    +0.011 A 
ATOM     11  C   UNL     1       2.920   8.499  -2.420  0.00  0.00    +0.251 A 
ATOM     12  O   UNL     1       2.804   8.119  -3.572  0.00  0.00    -0.268 OA
ATOM     13  N   UNL     1       3.556   9.658  -2.172  0.00  0.00    -0.322 N 
ATOM     14  H   UNL     1       3.913  10.174  -2.912  0.00  0.00    +0.169 HD
ATOM     15  C   UNL     1       4.937  12.128  -1.764  0.00  0.00    +0.046 C 
ENDBRANCH   1  10
BRANCH   1  22
ATOM     16  C   UNL     1      -0.002   5.429  -3.145  0.00  0.00    -0.077 C 
ATOM     17  C   UNL     1      -0.991   5.723  -4.276  0.00  0.00    -0.015 C 
ATOM     18  C   UNL     1      -2.068   6.685  -3.767  0.00  0.00    -0.018 C 
ATOM     19  C   UNL     1      -1.399   7.964  -3.256  0.00  0.00    -0.015 C 
ATOM     20  C   UNL     1      -0.399   7.605  -2.155  0.00  0.00    -0.077 C 
ATOM     21  C   UNL     1      -3.026   7.030  -4.910  0.00  0.00    +0.007 C 
ATOM     22  N   UNL     1       0.625   6.697  -2.715  0.00  0.00    +0.389 N 
ATOM     23  H   UNL     1       1.060   7.147  -3.529  0.00  0.00    -0.080 HD
ENDBRANCH   1  22
BRANCH   1  24
ATOM     24  C   UNL     1       2.653   5.437  -2.267  0.00  0.00    +0.143 A 
ATOM     25  N   UNL     1       3.172   5.448  -3.470  0.00  0.00    -0.115 NA
ATOM     26  N   UNL     1       3.969   4.441  -3.570  0.00  0.00    -0.023 NA
ATOM     27  N   UNL     1       3.976   3.790  -2.459  0.00  0.00    -0.044 NA
ATOM     28  N   UNL     1       3.173   4.369  -1.632  0.00  0.00    -0.226 N 
BRANCH  28  29
ATOM     29  C   UNL     1       2.886   3.949  -0.259  0.00  0.00    +0.182 C 
BRANCH  29  30
ATOM     30  C   UNL     1       1.714   3.001  -0.258  0.00  0.00    -0.026 A 
ATOM     31  C   UNL     1       1.924   1.641  -0.385  0.00  0.00    +0.005 A 
ATOM     32  C   UNL     1       0.849   0.772  -0.385  0.00  0.00    +0.000 A 
ATOM     33  C   UNL     1      -0.437   1.264  -0.263  0.00  0.00    +0.000 A 
ATOM     34  C   UNL     1      -0.647   2.624  -0.130  0.00  0.00    +0.000 A 
ATOM     35  C   UNL     1       0.428   3.493  -0.130  0.00  0.00    +0.005 A 
ENDBRANCH  29  30
ENDBRANCH  28  29
ENDBRANCH   1  24
TORSDOF 5
