REMARK  Name = ZINC63996756
REMARK  9 active torsions:
REMARK  status: ('A' for Active; 'I' for Inactive)
REMARK    1  A    between atoms: C_1  and  C_2
REMARK    2  A    between atoms: C_2  and  C_3
REMARK    3  A    between atoms: C_2  and  C_4
REMARK    4  A    between atoms: C_4  and  C_6
REMARK    5  A    between atoms: C_4  and  N_16
REMARK    6  A    between atoms: C_17  and  C_19
REMARK    7  A    between atoms: C_19  and  N_20
REMARK    8  A    between atoms: C_23  and  C_28
REMARK    9  A    between atoms: C_28  and  C_29
REMARK                            x       y       z     vdW  Elec       q    Type
REMARK                         _______ _______ _______ _____ _____    ______ ____
ROOT
ATOM      1  C   UNL     1      -3.409   1.639   2.468  0.00  0.00    +0.213 C 
ENDROOT
BRANCH   1   2
ATOM      2  N   UNL     1      -3.957   2.976   2.226  0.00  0.00    -0.216 N 
ATOM      3  C   UNL     1      -3.287   4.122   2.459  0.00  0.00    +0.244 C 
ATOM      4  O   UNL     1      -2.160   4.237   2.891  0.00  0.00    -0.273 OA
ATOM      5  C   UNL     1      -4.235   5.238   2.066  0.00  0.00    +0.165 C 
ATOM      6  N   UNL     1      -5.442   4.524   1.616  0.00  0.00    -0.287 N 
ATOM      7  C   UNL     1      -5.182   3.210   1.742  0.00  0.00    +0.310 C 
ATOM      8  O   UNL     1      -5.972   2.334   1.451  0.00  0.00    -0.252 OA
ATOM      9  H   UNL     1      -6.264   4.923   1.289  0.00  0.00    +0.151 HD
BRANCH   5  10
ATOM     10  C   UNL     1      -4.549   6.126   3.271  0.00  0.00    +0.065 C 
BRANCH  10  11
ATOM     11  C   UNL     1      -5.392   7.294   2.828  0.00  0.00    -0.039 C 
ATOM     12  C   UNL     1      -6.741   7.387   2.872  0.00  0.00    -0.001 A 
ATOM     13  C   UNL     1      -7.787   6.462   3.326  0.00  0.00    +0.010 A 
ATOM     14  C   UNL     1      -9.082   6.845   3.243  0.00  0.00    +0.001 A 
ATOM     15  C   UNL     1      -9.449   8.098   2.735  0.00  0.00    +0.002 A 
ATOM     16  C   UNL     1      -8.545   9.001   2.298  0.00  0.00    +0.026 A 
ATOM     17  C   UNL     1      -7.155   8.704   2.340  0.00  0.00    +0.043 A 
ATOM     18  N   UNL     1      -6.103   9.400   1.981  0.00  0.00    -0.380 N 
ATOM     19  C   UNL     1      -4.901   8.603   2.251  0.00  0.00    +0.144 C 
ATOM     20  H   UNL     1      -6.117  10.293   1.603  0.00  0.00    +0.160 HD
ENDBRANCH  10  11
ENDBRANCH   5  10
ENDBRANCH   1   2
BRANCH   1  22
ATOM     21  N   UNL     1      -2.119  -0.061   1.218  0.00  0.00    -0.307 N 
ATOM     22  C   UNL     1      -2.704   1.153   1.228  0.00  0.00    +0.231 C 
ATOM     23  O   UNL     1      -2.663   1.854   0.240  0.00  0.00    -0.274 OA
ATOM     24  H   UNL     1      -2.152  -0.622   2.009  0.00  0.00    +0.149 HD
BRANCH  21  25
ATOM     25  C   UNL     1      -1.433  -0.534   0.013  0.00  0.00    +0.106 C 
BRANCH  25  26
ATOM     26  C   UNL     1      -1.413  -2.041   0.005  0.00  0.00    -0.023 A 
ATOM     27  C   UNL     1      -1.190  -2.734   1.180  0.00  0.00    +0.009 A 
ATOM     28  C   UNL     1      -1.169  -4.116   1.176  0.00  0.00    +0.050 A 
ATOM     29  C   UNL     1      -1.372  -4.811  -0.007  0.00  0.00    +0.162 A 
ATOM     30  C   UNL     1      -1.599  -4.114  -1.188  0.00  0.00    +0.162 A 
ATOM     31  C   UNL     1      -1.623  -2.727  -1.177  0.00  0.00    +0.055 A 
ATOM     32  O   UNL     1      -1.808  -4.776  -2.359  0.00  0.00    -0.485 OA
ATOM     33  C   UNL     1      -1.414  -6.151  -2.400  0.00  0.00    +0.270 C 
ATOM     34  C   UNL     1      -1.924  -6.836  -1.124  0.00  0.00    +0.270 C 
ATOM     35  O   UNL     1      -1.345  -6.171   0.004  0.00  0.00    -0.485 OA
ENDBRANCH  25  26
BRANCH  25  37
ATOM     36  C   UNL     1      -0.019   1.526   0.010  0.00  0.00    +0.009 C 
ATOM     37  C   UNL     1       0.002  -0.004   0.002  0.00  0.00    +0.008 C 
ATOM     38  C   UNL     1       0.742  -0.511   1.242  0.00  0.00    +0.009 C 
ENDBRANCH  25  37
ENDBRANCH  21  25
ENDBRANCH   1  22
TORSDOF 7
