REMARK  Name = ZINC64137661
REMARK  8 active torsions:
REMARK  status: ('A' for Active; 'I' for Inactive)
REMARK    1  A    between atoms: C_1  and  C_2
REMARK    2  A    between atoms: C_5  and  N_8
REMARK    3  A    between atoms: C_9  and  C_11
REMARK    4  A    between atoms: C_11  and  S_12
REMARK    5  A    between atoms: S_12  and  C_13
REMARK    6  A    between atoms: C_17  and  C_25
REMARK    7  A    between atoms: N_18  and  C_19
REMARK    8  A    between atoms: C_19  and  C_20
REMARK                            x       y       z     vdW  Elec       q    Type
REMARK                         _______ _______ _______ _____ _____    ______ ____
ROOT
ATOM      1  C   UNL     1      -2.555  -2.640   7.780  0.00  0.00    +0.237 C 
ATOM      2  N   UNL     1      -2.220  -1.273   8.211  0.00  0.00    -0.237 N 
ATOM      3  N   UNL     1      -3.303  -0.465   7.846  0.00  0.00    -0.169 NA
ATOM      4  C   UNL     1      -4.238  -1.162   7.256  0.00  0.00    +0.147 C 
ATOM      5  N   UNL     1      -3.885  -2.514   7.162  0.00  0.00    -0.278 N 
ATOM      6  H   UNL     1      -1.409  -0.989   8.661  0.00  0.00    +0.171 HD
ENDROOT
BRANCH   4   7
ATOM      7  C   UNL     1      -5.443  -0.624   6.778  0.00  0.00    +0.022 C 
ATOM      8  C   UNL     1      -5.810   0.721   6.741  0.00  0.00    +0.006 A 
ATOM      9  C   UNL     1      -5.147   1.902   7.138  0.00  0.00    +0.010 A 
ATOM     10  C   UNL     1      -5.759   3.104   6.979  0.00  0.00    +0.001 A 
ATOM     11  C   UNL     1      -7.038   3.207   6.430  0.00  0.00    +0.002 A 
ATOM     12  C   UNL     1      -7.733   2.114   6.027  0.00  0.00    +0.026 A 
ATOM     13  C   UNL     1      -7.159   0.824   6.161  0.00  0.00    +0.043 A 
ATOM     14  N   UNL     1      -7.620  -0.372   5.851  0.00  0.00    -0.380 N 
ATOM     15  C   UNL     1      -6.613  -1.382   6.191  0.00  0.00    +0.152 C 
ATOM     16  H   UNL     1      -8.487  -0.555   5.455  0.00  0.00    +0.160 HD
ENDBRANCH   4   7
BRANCH   1  17
ATOM     17  S   UNL     1      -1.346  -3.237   6.566  0.00  0.00    -0.109 S 
BRANCH  17  18
ATOM     18  C   UNL     1      -1.405  -1.998   5.243  0.00  0.00    +0.168 C 
BRANCH  18  20
ATOM     19  N   UNL     1      -0.306  -1.599   3.063  0.00  0.00    -0.312 N 
ATOM     20  C   UNL     1      -0.434  -2.378   4.155  0.00  0.00    +0.223 C 
ATOM     21  O   UNL     1       0.232  -3.386   4.262  0.00  0.00    -0.275 OA
ATOM     22  H   UNL     1      -0.839  -0.793   2.977  0.00  0.00    +0.149 HD
BRANCH  19  27
ATOM     23  C   UNL     1       1.490   2.216   1.303  0.00  0.00    +0.007 C 
ATOM     24  C   UNL     1       1.535   0.692   1.169  0.00  0.00    -0.014 C 
ATOM     25  C   UNL     1       0.141   0.171   0.814  0.00  0.00    +0.005 C 
ATOM     26  C   UNL     1       0.185  -1.353   0.680  0.00  0.00    +0.022 C 
ATOM     27  C   UNL     1       0.638  -1.969   2.005  0.00  0.00    +0.073 C 
ATOM     28  C   UNL     1       2.031  -1.447   2.360  0.00  0.00    +0.022 C 
ATOM     29  C   UNL     1       1.987   0.076   2.494  0.00  0.00    +0.005 C 
ENDBRANCH  19  27
ENDBRANCH  18  20
ENDBRANCH  17  18
ENDBRANCH   1  17
BRANCH   5  30
ATOM     30  C   UNL     1      -4.681  -3.590   6.568  0.00  0.00    +0.183 C 
BRANCH  30  31
ATOM     31  C   UNL     1      -4.316  -3.740   5.113  0.00  0.00    +0.122 A 
ATOM     32  C   UNL     1      -3.437  -4.625   4.609  0.00  0.00    +0.046 A 
ATOM     33  C   UNL     1      -3.403  -4.418   3.211  0.00  0.00    +0.041 A 
ATOM     34  C   UNL     1      -4.263  -3.419   2.944  0.00  0.00    +0.195 A 
ATOM     35  O   UNL     1      -4.817  -3.016   4.099  0.00  0.00    -0.466 OA
ENDBRANCH  30  31
ENDBRANCH   5  30
TORSDOF 7
