REMARK  Name = ZINC39675854
REMARK  10 active torsions:
REMARK  status: ('A' for Active; 'I' for Inactive)
REMARK    1  A    between atoms: C_1  and  C_2
REMARK    2  A    between atoms: C_4  and  C_11
REMARK    3  A    between atoms: C_5  and  C_7
REMARK    4  A    between atoms: C_15  and  C_24
REMARK    5  A    between atoms: N_26  and  C_27
REMARK    6  A    between atoms: C_27  and  C_28
REMARK    7  A    between atoms: C_28  and  C_30
REMARK    8  A    between atoms: C_28  and  N_36
REMARK    9  A    between atoms: N_36  and  C_37
REMARK   10  A    between atoms: N_36  and  C_38
REMARK                            x       y       z     vdW  Elec       q    Type
REMARK                         _______ _______ _______ _____ _____    ______ ____
ROOT
ATOM      1  C   UNL     1      -1.486  -3.782  -0.077  0.00  0.00    +0.250 C 
ATOM      2  O   UNL     1      -0.992  -4.892  -0.130  0.00  0.00    -0.270 OA
ATOM      3  N   UNL     1      -2.819  -3.644   0.062  0.00  0.00    -0.296 N 
ATOM      4  C   UNL     1      -3.611  -2.391   0.035  0.00  0.00    +0.121 C 
ATOM      5  C   UNL     1      -4.895  -2.758  -0.742  0.00  0.00    +0.100 C 
ATOM      6  C   UNL     1      -5.032  -4.281  -0.578  0.00  0.00    -0.004 C 
ATOM      7  C   UNL     1      -3.827  -4.712   0.271  0.00  0.00    +0.115 C 
ATOM      8  C   UNL     1      -4.982  -4.966  -1.940  0.00  0.00    -0.010 C 
ATOM      9  C   UNL     1      -5.178  -6.473  -1.755  0.00  0.00    -0.082 C 
ATOM     10  N   UNL     1      -6.469  -6.725  -1.105  0.00  0.00    +0.379 N 
ATOM     11  C   UNL     1      -6.474  -6.142   0.242  0.00  0.00    -0.082 C 
ATOM     12  C   UNL     1      -6.334  -4.620   0.142  0.00  0.00    -0.010 C 
ATOM     13  H   UNL     1      -7.207  -6.309  -1.653  0.00  0.00    -0.086 HD
ATOM     14  H   UNL     1      -6.623  -7.720  -1.040  0.00  0.00    -0.086 HD
ENDROOT
BRANCH   1  18
ATOM     15  C   UNL     1       0.325   0.963   0.404  0.00  0.00    +0.086 C 
ATOM     16  C   UNL     1       0.154  -0.493   0.058  0.00  0.00    +0.103 A 
ATOM     17  C   UNL     1      -0.905  -1.251   0.379  0.00  0.00    +0.058 A 
ATOM     18  C   UNL     1      -0.627  -2.588  -0.164  0.00  0.00    +0.087 A 
ATOM     19  C   UNL     1       0.594  -2.492  -0.766  0.00  0.00    +0.220 A 
ATOM     20  O   UNL     1       1.036  -1.239  -0.627  0.00  0.00    -0.455 OA
BRANCH  19  21
ATOM     21  C   UNL     1       1.317  -3.609  -1.474  0.00  0.00    +0.451 C 
ATOM     22  F   UNL     1       0.956  -3.616  -2.826  0.00  0.00    -0.163 F 
ATOM     23  F   UNL     1       2.698  -3.415  -1.362  0.00  0.00    -0.163 F 
ATOM     24  F   UNL     1       0.970  -4.833  -0.892  0.00  0.00    -0.163 F 
ENDBRANCH  19  21
ENDBRANCH   1  18
BRANCH   5  25
ATOM     25  C   UNL     1      -6.087  -2.054  -0.146  0.00  0.00    +0.218 C 
ATOM     26  O   UNL     1      -6.071  -1.714   1.018  0.00  0.00    -0.275 OA
ATOM     27  N   UNL     1      -7.171  -1.804  -0.907  0.00  0.00    -0.316 N 
ATOM     28  H   UNL     1      -7.184  -2.076  -1.838  0.00  0.00    +0.149 HD
BRANCH  27  29
ATOM     29  C   UNL     1      -8.330  -1.120  -0.328  0.00  0.00    +0.093 C 
BRANCH  29  30
ATOM     30  C   UNL     1      -9.364  -0.850  -1.423  0.00  0.00    -0.021 C 
BRANCH  30  31
ATOM     31  C   UNL     1      -9.897  -2.160  -1.943  0.00  0.00    -0.059 A 
ATOM     32  C   UNL     1     -10.877  -2.835  -1.240  0.00  0.00    +0.002 A 
ATOM     33  C   UNL     1     -11.367  -4.037  -1.717  0.00  0.00    +0.000 A 
ATOM     34  C   UNL     1     -10.877  -4.563  -2.897  0.00  0.00    +0.000 A 
ATOM     35  C   UNL     1      -9.897  -3.888  -3.601  0.00  0.00    +0.000 A 
ATOM     36  C   UNL     1      -9.411  -2.684  -3.126  0.00  0.00    +0.002 A 
ENDBRANCH  30  31
BRANCH  30  37
ATOM     37  N   UNL     1     -10.469  -0.057  -0.870  0.00  0.00    +0.382 N 
ATOM     38  C   UNL     1      -9.969   1.265  -0.469  0.00  0.00    -0.096 C 
ATOM     39  C   UNL     1     -11.515   0.104  -1.889  0.00  0.00    -0.096 C 
ATOM     40  H   UNL     1     -10.852  -0.529  -0.065  0.00  0.00    -0.082 HD
ENDBRANCH  30  37
ENDBRANCH  29  30
ENDBRANCH  27  29
ENDBRANCH   5  25
TORSDOF 7
