REMARK  Name = ZINC08892913
REMARK  7 active torsions:
REMARK  status: ('A' for Active; 'I' for Inactive)
REMARK    1  A    between atoms: C_1  and  C_2
REMARK    2  A    between atoms: C_2  and  N_3
REMARK    3  A    between atoms: C_5  and  C_35
REMARK    4  A    between atoms: C_11  and  N_15
REMARK    5  A    between atoms: N_15  and  N_16
REMARK    6  A    between atoms: C_17  and  C_29
REMARK    7  A    between atoms: C_20  and  C_21
REMARK                            x       y       z     vdW  Elec       q    Type
REMARK                         _______ _______ _______ _____ _____    ______ ____
ROOT
ATOM      1  N   UNL     1       2.768  10.390   0.407  0.00  0.00    -0.253 N 
ATOM      2  H   UNL     1       3.448  11.082   0.402  0.00  0.00    +0.171 HD
ENDROOT
BRANCH   1  11
ATOM      3  N   UNL     1       1.567   5.742   0.635  0.00  0.00    -0.346 N 
ATOM      4  C   UNL     1       1.869   4.440   0.729  0.00  0.00    +0.105 A 
ATOM      5  C   UNL     1       3.170   3.993   0.838  0.00  0.00    +0.126 A 
ATOM      6  C   UNL     1       4.263   4.979   0.837  0.00  0.00    +0.204 A 
ATOM      7  O   UNL     1       5.429   4.634   0.926  0.00  0.00    -0.286 OA
ATOM      8  C   UNL     1       3.890   6.399   0.726  0.00  0.00    +0.049 A 
ATOM      9  C   UNL     1       2.527   6.732   0.626  0.00  0.00    +0.055 A 
ATOM     10  C   UNL     1       2.161   8.068   0.520  0.00  0.00    +0.053 A 
ATOM     11  C   UNL     1       3.137   9.052   0.514  0.00  0.00    +0.082 A 
ATOM     12  C   UNL     1       4.489   8.711   0.612  0.00  0.00    +0.146 A 
ATOM     13  C   UNL     1       4.863   7.401   0.718  0.00  0.00    +0.054 A 
ATOM     14  F   UNL     1       5.429   9.681   0.604  0.00  0.00    -0.203 F 
BRANCH   5  15
ATOM     15  C   UNL     1       3.459   2.557   0.946  0.00  0.00    +0.392 C 
ATOM     16  O   UNL     1       4.609   2.174   1.036  0.00  0.00    -0.240 OA
ATOM     17  O   UNL     1       2.449   1.664   0.945  0.00  0.00    -0.240 OA
ENDBRANCH   5  15
BRANCH   3  19
ATOM     18  C   UNL     1      -0.216   6.294  -0.945  0.00  0.00    +0.027 C 
ATOM     19  C   UNL     1       0.158   6.130   0.529  0.00  0.00    +0.118 C 
ENDBRANCH   3  19
ENDBRANCH   1  11
BRANCH   1  20
ATOM     20  N   UNL     1       1.415  10.738   0.308  0.00  0.00    -0.166 N 
ATOM     21  C   UNL     1       0.771  11.154  -0.834  0.00  0.00    +0.153 C 
ATOM     22  N   UNL     1      -0.490  11.399  -0.599  0.00  0.00    -0.225 NA
ATOM     23  C   UNL     1      -0.756  11.169   0.718  0.00  0.00    +0.130 C 
ATOM     24  C   UNL     1      -1.967  11.317   1.357  0.00  0.00    +0.041 C 
ATOM     25  C   UNL     1       0.518  10.729   1.319  0.00  0.00    +0.287 C 
ATOM     26  O   UNL     1       0.719  10.422   2.479  0.00  0.00    -0.266 OA
BRANCH  24  27
ATOM     27  C   UNL     1      -2.128  10.852   2.739  0.00  0.00    -0.023 A 
ATOM     28  C   UNL     1      -1.512   9.667   3.160  0.00  0.00    +0.008 A 
ATOM     29  C   UNL     1      -1.664   9.241   4.462  0.00  0.00    +0.001 A 
ATOM     30  C   UNL     1      -2.432   9.975   5.350  0.00  0.00    +0.000 A 
ATOM     31  C   UNL     1      -3.049  11.145   4.941  0.00  0.00    +0.001 A 
ATOM     32  C   UNL     1      -2.903  11.589   3.644  0.00  0.00    +0.008 A 
ENDBRANCH  24  27
BRANCH  21  33
ATOM     33  C   UNL     1       1.420  11.300  -2.154  0.00  0.00    +0.017 A 
ATOM     34  C   UNL     1       2.779  11.014  -2.303  0.00  0.00    +0.011 A 
ATOM     35  C   UNL     1       3.377  11.148  -3.539  0.00  0.00    +0.001 A 
ATOM     36  C   UNL     1       2.636  11.575  -4.627  0.00  0.00    +0.000 A 
ATOM     37  C   UNL     1       1.290  11.866  -4.485  0.00  0.00    +0.001 A 
ATOM     38  C   UNL     1       0.678  11.731  -3.256  0.00  0.00    +0.011 A 
ENDBRANCH  21  33
ENDBRANCH   1  20
TORSDOF 6
