REMARK  Name = ZINC13113158
REMARK  9 active torsions:
REMARK  status: ('A' for Active; 'I' for Inactive)
REMARK    1  A    between atoms: C_1  and  C_2
REMARK    2  A    between atoms: C_2  and  C_3
REMARK    3  A    between atoms: C_6  and  C_9
REMARK    4  A    between atoms: C_13  and  S_15
REMARK    5  A    between atoms: S_15  and  C_16
REMARK    6  A    between atoms: C_16  and  C_17
REMARK    7  A    between atoms: N_19  and  C_20
REMARK    8  A    between atoms: C_21  and  C_31
REMARK    9  A    between atoms: C_26  and  C_30
REMARK                            x       y       z     vdW  Elec       q    Type
REMARK                         _______ _______ _______ _____ _____    ______ ____
ROOT
ATOM      1  C   UNL     1      -8.975  -3.327  -4.442  0.00  0.00    +0.228 C 
ATOM      2  O   UNL     1     -10.064  -3.729  -4.091  0.00  0.00    -0.275 OA
ATOM      3  N   UNL     1      -8.687  -3.222  -5.755  0.00  0.00    -0.279 N 
ATOM      4  H   UNL     1      -7.816  -2.901  -6.036  0.00  0.00    +0.155 HD
ENDROOT
BRANCH   3   5
ATOM      5  C   UNL     1      -9.635  -3.574  -6.704  0.00  0.00    +0.084 A 
ATOM      6  C   UNL     1      -9.514  -3.537  -8.084  0.00  0.00    +0.068 A 
ATOM      7  C   UNL     1     -10.664  -3.962  -8.863  0.00  0.00    -0.023 A 
ATOM      8  C   UNL     1     -11.723  -4.346  -8.119  0.00  0.00    -0.004 A 
ATOM      9  S   UNL     1     -11.191  -4.150  -6.444  0.00  0.00    -0.077 S 
ATOM     10  C   UNL     1     -13.046  -4.835  -8.623  0.00  0.00    +0.046 C 
ATOM     11  C   UNL     1     -12.893  -5.194 -10.109  0.00  0.00    -0.009 C 
ATOM     12  C   UNL     1     -12.178  -4.045 -10.825  0.00  0.00    +0.008 C 
ATOM     13  C   UNL     1     -10.713  -3.988 -10.383  0.00  0.00    +0.037 C 
ATOM     14  C   UNL     1     -14.276  -5.406 -10.729  0.00  0.00    +0.008 C 
BRANCH   6  15
ATOM     15  C   UNL     1      -8.277  -3.088  -8.730  0.00  0.00    +0.244 C 
ATOM     16  O   UNL     1      -7.401  -3.891  -8.993  0.00  0.00    -0.270 OA
ATOM     17  N   UNL     1      -8.110  -1.785  -9.033  0.00  0.00    -0.325 N 
ATOM     18  H   UNL     1      -8.807  -1.145  -8.823  0.00  0.00    +0.145 HD
ATOM     19  H   UNL     1      -7.291  -1.488  -9.460  0.00  0.00    +0.145 HD
ENDBRANCH   6  15
ENDBRANCH   3   5
BRANCH   1  20
ATOM     20  C   UNL     1      -7.945  -2.945  -3.411  0.00  0.00    +0.173 C 
BRANCH  20  21
ATOM     21  S   UNL     1      -8.630  -3.195  -1.750  0.00  0.00    -0.077 S 
BRANCH  21  26
ATOM     22  C   UNL     1      -5.401  -1.999   0.043  0.00  0.00    +0.182 A 
ATOM     23  N   UNL     1      -6.111  -2.260   1.117  0.00  0.00    -0.152 NA
ATOM     24  H   UNL     1      -8.107  -2.997   1.235  0.00  0.00    +0.191 HD
ATOM     25  N   UNL     1      -7.361  -2.723   0.678  0.00  0.00    -0.253 N 
ATOM     26  C   UNL     1      -7.323  -2.711  -0.673  0.00  0.00    +0.185 A 
ATOM     27  N   UNL     1      -6.141  -2.268  -1.042  0.00  0.00    -0.201 NA
BRANCH  22  31
ATOM     28  C   UNL     1      -1.412  -0.526   0.013  0.00  0.00    -0.048 A 
ATOM     29  C   UNL     1      -2.049  -0.765   1.217  0.00  0.00    +0.004 A 
ATOM     30  C   UNL     1      -3.343  -1.243   1.233  0.00  0.00    +0.012 A 
ATOM     31  C   UNL     1      -4.009  -1.484   0.032  0.00  0.00    +0.021 A 
ATOM     32  C   UNL     1      -3.362  -1.241  -1.178  0.00  0.00    +0.012 A 
ATOM     33  C   UNL     1      -2.070  -0.758  -1.182  0.00  0.00    +0.004 A 
BRANCH  28  35
ATOM     34  C   UNL     1      -0.019   1.526   0.010  0.00  0.00    +0.009 C 
ATOM     35  C   UNL     1       0.002  -0.004   0.002  0.00  0.00    +0.032 C 
ENDBRANCH  28  35
ENDBRANCH  22  31
ENDBRANCH  21  26
ENDBRANCH  20  21
ENDBRANCH   1  20
TORSDOF 7
