REMARK  Name = ZINC14473806
REMARK  2 active torsions:
REMARK  status: ('A' for Active; 'I' for Inactive)
REMARK    1  A    between atoms: C_4  and  O_24
REMARK    2  A    between atoms: C_5  and  C_7
REMARK                            x       y       z     vdW  Elec       q    Type
REMARK                         _______ _______ _______ _____ _____    ______ ____
ROOT
ATOM      1  C   UNL     1       3.607   1.795   0.417  0.00  0.00    +0.108 C 
ATOM      2  C   UNL     1       3.607   3.067  -0.435  0.00  0.00    +0.029 C 
ATOM      3  C   UNL     1       4.701   4.012   0.143  0.00  0.00    +0.033 C 
ATOM      4  C   UNL     1       4.003   4.687   1.308  0.00  0.00    -0.030 C 
ATOM      5  C   UNL     1       2.702   4.631   1.157  0.00  0.00    -0.023 C 
ATOM      6  C   UNL     1       2.354   3.909  -0.122  0.00  0.00    +0.049 C 
ATOM      7  C   UNL     1       1.119   3.080   0.036  0.00  0.00    -0.018 A 
ATOM      8  C   UNL     1      -0.113   3.719   0.068  0.00  0.00    +0.020 A 
ATOM      9  C   UNL     1      -1.277   2.991   0.209  0.00  0.00    +0.014 A 
ATOM     10  C   UNL     1      -1.230   1.613   0.314  0.00  0.00    +0.016 A 
ATOM     11  C   UNL     1      -0.010   0.966   0.289  0.00  0.00    +0.024 A 
ATOM     12  C   UNL     1       1.162   1.699   0.149  0.00  0.00    +0.031 A 
ATOM     13  N   UNL     1       2.391   1.029   0.127  0.00  0.00    -0.336 N 
ATOM     14  I   UNL     1      -3.125   3.978   0.255  0.00  0.00    -0.044 I 
ATOM     15  H   UNL     1       2.437   0.082  -0.076  0.00  0.00    +0.147 HD
ENDROOT
BRANCH   1  20
ATOM     16  C   UNL     1       6.989   0.134   0.664  0.00  0.00    +0.001 A 
ATOM     17  C   UNL     1       7.046  -0.562  -0.530  0.00  0.00    +0.004 A 
ATOM     18  C   UNL     1       5.991  -0.497  -1.420  0.00  0.00    +0.046 A 
ATOM     19  C   UNL     1       4.874   0.267  -1.115  0.00  0.00    +0.122 A 
ATOM     20  C   UNL     1       4.819   0.964   0.083  0.00  0.00    +0.014 A 
ATOM     21  C   UNL     1       5.878   0.900   0.967  0.00  0.00    +0.009 A 
BRANCH  19  22
ATOM     22  O   UNL     1       3.835   0.333  -1.989  0.00  0.00    -0.506 OA
ATOM     23  H   UNL     1       3.907   1.051  -2.632  0.00  0.00    +0.292 HD
ENDBRANCH  19  22
ENDBRANCH   1  20
TORSDOF 2
