REMARK  Name = ZINC03539783
REMARK  8 active torsions:
REMARK  status: ('A' for Active; 'I' for Inactive)
REMARK    1  A    between atoms: C_1  and  N_61
REMARK    2  A    between atoms: C_2  and  C_3
REMARK    3  A    between atoms: C_2  and  N_61
REMARK    4  A    between atoms: C_15  and  C_16
REMARK    5  A    between atoms: C_15  and  N_61
REMARK    6  A    between atoms: N_18  and  C_19
REMARK    7  A    between atoms: C_20  and  C_28
REMARK    8  A    between atoms: C_28  and  C_30
REMARK                            x       y       z     vdW  Elec       q    Type
REMARK                         _______ _______ _______ _____ _____    ______ ____
ROOT
ATOM      1  C   UNL     1      -1.540   7.696  -2.284  0.00  0.00    +0.201 C 
ATOM      2  O   UNL     1      -1.307   7.878  -1.108  0.00  0.00    -0.278 OA
ATOM      3  N   UNL     1      -1.579   6.443  -2.778  0.00  0.00    -0.281 N 
ATOM      4  H   UNL     1      -1.766   6.298  -3.718  0.00  0.00    +0.155 HD
ENDROOT
BRANCH   3   5
ATOM      5  C   UNL     1      -1.353   5.362  -1.942  0.00  0.00    +0.083 A 
ATOM      6  C   UNL     1      -1.250   4.016  -2.277  0.00  0.00    +0.054 A 
ATOM      7  C   UNL     1      -1.006   3.073  -1.198  0.00  0.00    -0.024 A 
ATOM      8  C   UNL     1      -0.905   3.620   0.032  0.00  0.00    -0.005 A 
ATOM      9  S   UNL     1      -1.128   5.358  -0.224  0.00  0.00    -0.077 S 
ATOM     10  C   UNL     1      -0.659   2.901   1.323  0.00  0.00    +0.043 C 
ATOM     11  C   UNL     1      -0.912   1.403   1.096  0.00  0.00    +0.005 C 
ATOM     12  C   UNL     1      -0.180   0.967  -0.177  0.00  0.00    +0.005 C 
ATOM     13  C   UNL     1      -0.868   1.570  -1.403  0.00  0.00    +0.037 C 
BRANCH   6  14
ATOM     14  C   UNL     1      -1.383   3.566  -3.665  0.00  0.00    +0.196 C 
ATOM     15  O   UNL     1      -0.415   3.576  -4.403  0.00  0.00    -0.287 OA
BRANCH  14  16
ATOM     16  C   UNL     1      -2.693   3.101  -4.169  0.00  0.00    +0.022 A 
ATOM     17  C   UNL     1      -3.826   3.185  -3.358  0.00  0.00    +0.012 A 
ATOM     18  C   UNL     1      -5.046   2.753  -3.836  0.00  0.00    +0.001 A 
ATOM     19  C   UNL     1      -5.146   2.228  -5.112  0.00  0.00    +0.000 A 
ATOM     20  C   UNL     1      -4.025   2.137  -5.919  0.00  0.00    +0.001 A 
ATOM     21  C   UNL     1      -2.800   2.570  -5.455  0.00  0.00    +0.012 A 
ENDBRANCH  14  16
ENDBRANCH   6  14
ENDBRANCH   3   5
BRANCH   1  22
ATOM     22  C   UNL     1      -1.787   8.872  -3.193  0.00  0.00    +0.019 C 
BRANCH  22  24
ATOM     23  C   UNL     1      -2.771  10.209  -1.431  0.00  0.00    -0.095 C 
ATOM     24  N   UNL     1      -1.665  10.118  -2.406  0.00  0.00    +0.388 N 
ATOM     25  H   UNL     1      -0.772  10.105  -1.899  0.00  0.00    -0.081 HD
BRANCH  24  26
ATOM     26  C   UNL     1      -1.688  11.289  -3.308  0.00  0.00    -0.003 C 
BRANCH  26  27
ATOM     27  C   UNL     1      -1.343  12.521  -2.512  0.00  0.00    +0.094 A 
ATOM     28  N   UNL     1      -1.290  13.714  -3.161  0.00  0.00    -0.312 N 
ATOM     29  H   UNL     1      -1.474  13.751  -4.112  0.00  0.00    +0.170 HD
ATOM     30  C   UNL     1      -0.986  14.850  -2.491  0.00  0.00    +0.259 A 
ATOM     31  O   UNL     1      -0.936  15.925  -3.060  0.00  0.00    -0.267 OA
ATOM     32  C   UNL     1      -0.718  14.735  -1.050  0.00  0.00    +0.065 A 
ATOM     33  C   UNL     1      -0.396  15.843  -0.269  0.00  0.00    +0.015 A 
ATOM     34  C   UNL     1      -0.154  15.678   1.077  0.00  0.00    +0.001 A 
ATOM     35  C   UNL     1      -0.230  14.419   1.659  0.00  0.00    +0.002 A 
ATOM     36  C   UNL     1      -0.547  13.312   0.906  0.00  0.00    +0.028 A 
ATOM     37  C   UNL     1      -0.795  13.453  -0.461  0.00  0.00    +0.078 A 
ATOM     38  N   UNL     1      -1.116  12.390  -1.240  0.00  0.00    -0.236 NA
ENDBRANCH  26  27
ENDBRANCH  24  26
ENDBRANCH  22  24
ENDBRANCH   1  22
TORSDOF 7
