REMARK  Name = ZINC45961482
REMARK  10 active torsions:
REMARK  status: ('A' for Active; 'I' for Inactive)
REMARK    1  A    between atoms: C_1  and  C_2
REMARK    2  A    between atoms: C_6  and  O_9
REMARK    3  A    between atoms: C_7  and  C_8
REMARK    4  A    between atoms: O_9  and  C_10
REMARK    5  A    between atoms: C_10  and  C_11
REMARK    6  A    between atoms: N_13  and  C_14
REMARK    7  A    between atoms: C_14  and  C_15
REMARK    8  A    between atoms: C_23  and  C_25
REMARK    9  A    between atoms: C_28  and  O_31
REMARK   10  A    between atoms: O_31  and  C_32
REMARK                            x       y       z     vdW  Elec       q    Type
REMARK                         _______ _______ _______ _____ _____    ______ ____
ROOT
ATOM      1  C   UNL     1       0.135  -8.198   5.090  0.00  0.00    +0.066 A 
ATOM      2  C   UNL     1       1.219  -8.914   5.550  0.00  0.00    +0.097 A 
ATOM      3  C   UNL     1       1.218 -10.306   5.458  0.00  0.00    +0.275 A 
ATOM      4  O   UNL     1       2.176 -10.946   5.864  0.00  0.00    -0.266 OA
ATOM      5  N   UNL     1       0.145 -10.952   4.915  0.00  0.00    -0.171 N 
ATOM      6  C   UNL     1      -0.888 -10.165   4.485  0.00  0.00    +0.199 A 
ATOM      7  N   UNL     1      -0.897  -8.859   4.571  0.00  0.00    -0.225 NA
ATOM      8  S   UNL     1      -2.053 -11.359   3.863  0.00  0.00    -0.028 S 
ATOM      9  C   UNL     1      -1.097 -12.825   4.214  0.00  0.00    +0.132 A 
ATOM     10  N   UNL     1      -0.015 -12.325   4.751  0.00  0.00    -0.154 NA
ENDROOT
BRANCH   9  11
ATOM     11  C   UNL     1      -1.440 -14.242   3.961  0.00  0.00    +0.009 A 
ATOM     12  C   UNL     1      -0.547 -15.253   4.318  0.00  0.00    +0.014 A 
ATOM     13  C   UNL     1      -0.870 -16.571   4.081  0.00  0.00    +0.046 A 
ATOM     14  C   UNL     1      -2.083 -16.895   3.487  0.00  0.00    +0.120 A 
ATOM     15  C   UNL     1      -2.974 -15.891   3.129  0.00  0.00    +0.046 A 
ATOM     16  C   UNL     1      -2.660 -14.571   3.369  0.00  0.00    +0.014 A 
BRANCH  14  17
ATOM     17  O   UNL     1      -2.398 -18.195   3.255  0.00  0.00    -0.495 OA
ATOM     18  C   UNL     1      -3.662 -18.457   2.640  0.00  0.00    +0.277 C 
ENDBRANCH  14  17
ENDBRANCH   9  11
BRANCH   1  19
ATOM     19  C   UNL     1       0.115  -6.694   5.179  0.00  0.00    +0.160 C 
BRANCH  19  22
ATOM     20  C   UNL     1       0.083  -4.787   3.662  0.00  0.00    +0.251 C 
ATOM     21  O   UNL     1       0.077  -4.055   4.629  0.00  0.00    -0.272 OA
ATOM     22  N   UNL     1       0.101  -6.125   3.830  0.00  0.00    -0.307 N 
ATOM     23  H   UNL     1       0.105  -6.710   3.056  0.00  0.00    +0.149 HD
BRANCH  20  24
ATOM     24  C   UNL     1       0.069  -4.202   2.274  0.00  0.00    +0.324 C 
BRANCH  24  25
ATOM     25  O   UNL     1       0.050  -2.776   2.358  0.00  0.00    -0.483 OA
BRANCH  25  31
ATOM     26  C   UNL     1      -0.018   1.503   0.010  0.00  0.00    +0.044 C 
ATOM     27  C   UNL     1       0.002  -0.004   0.002  0.00  0.00    -0.044 A 
ATOM     28  C   UNL     1       0.006  -0.688  -1.200  0.00  0.00    +0.004 A 
ATOM     29  C   UNL     1       0.024  -2.071  -1.211  0.00  0.00    +0.004 A 
ATOM     30  C   UNL     1       0.039  -2.772  -0.020  0.00  0.00    +0.046 A 
ATOM     31  C   UNL     1       0.035  -2.088   1.186  0.00  0.00    +0.124 A 
ATOM     32  C   UNL     1       0.023  -0.700   1.195  0.00  0.00    -0.006 A 
ATOM     33  C   UNL     1       0.026   0.046   2.504  0.00  0.00    +0.048 C 
ENDBRANCH  25  31
ENDBRANCH  24  25
ENDBRANCH  20  24
ENDBRANCH  19  22
ENDBRANCH   1  19
TORSDOF 7
