REMARK  Name = ZINC12672500
REMARK  3 active torsions:
REMARK  status: ('A' for Active; 'I' for Inactive)
REMARK    1  A    between atoms: C_9  and  N_11
REMARK    2  A    between atoms: C_12  and  C_14
REMARK    3  A    between atoms: C_15  and  C_16
REMARK                            x       y       z     vdW  Elec       q    Type
REMARK                         _______ _______ _______ _____ _____    ______ ____
ROOT
ATOM      1  N   UNL     1      -2.689   2.920   0.740  0.00  0.00    -0.309 N 
ATOM      2  C   UNL     1      -3.416   3.281   1.815  0.00  0.00    +0.237 C 
ATOM      3  O   UNL     1      -3.074   2.928   2.927  0.00  0.00    -0.271 OA
ATOM      4  H   UNL     1      -2.962   3.202  -0.147  0.00  0.00    +0.149 HD
ENDROOT
BRANCH   1  11
ATOM      5  C   UNL     1       0.450   0.091   0.085  0.00  0.00    +0.004 C 
ATOM      6  C   UNL     1       0.805   1.594   0.152  0.00  0.00    +0.005 C 
ATOM      7  C   UNL     1      -0.501   2.328  -0.278  0.00  0.00    +0.010 C 
ATOM      8  C   UNL     1      -1.074   1.310  -1.326  0.00  0.00    +0.009 C 
ATOM      9  C   UNL     1      -1.039   0.059  -0.380  0.00  0.00    -0.009 C 
ATOM     10  C   UNL     1      -1.843   0.579   0.850  0.00  0.00    +0.026 C 
ATOM     11  C   UNL     1      -1.485   2.102   0.911  0.00  0.00    +0.077 C 
ENDBRANCH   1  11
BRANCH   2  12
ATOM     12  C   UNL     1      -4.629   4.106   1.643  0.00  0.00    +0.074 C 
ATOM     13  C   UNL     1      -5.286   4.566   2.720  0.00  0.00    +0.101 C 
BRANCH  13  14
ATOM     14  C   UNL     1      -4.548   4.866   3.962  0.00  0.00    +0.380 C 
ATOM     15  O   UNL     1      -3.334   4.845   3.967  0.00  0.00    -0.241 OA
ATOM     16  O   UNL     1      -5.222   5.165   5.090  0.00  0.00    -0.241 OA
ENDBRANCH  13  14
ENDBRANCH   2  12
TORSDOF 3
