REMARK  Name = ZINC14396126
REMARK  9 active torsions:
REMARK  status: ('A' for Active; 'I' for Inactive)
REMARK    1  A    between atoms: C_1  and  C_2
REMARK    2  A    between atoms: C_3  and  C_32
REMARK    3  A    between atoms: C_4  and  C_25
REMARK    4  A    between atoms: C_10  and  C_11
REMARK    5  A    between atoms: C_14  and  N_16
REMARK    6  A    between atoms: C_32  and  O_34
REMARK    7  A    between atoms: O_34  and  C_35
REMARK    8  A    between atoms: C_35  and  C_36
REMARK    9  A    between atoms: C_35  and  C_37
REMARK                            x       y       z     vdW  Elec       q    Type
REMARK                         _______ _______ _______ _____ _____    ______ ____
ROOT
ATOM      1  C   UNL     1      -1.297  -0.767   0.093  0.00  0.00    +0.066 C 
ATOM      2  C   UNL     1      -0.007   0.007   0.184  0.00  0.00    +0.053 C 
ATOM      3  C   UNL     1       1.153  -0.644   0.504  0.00  0.00    +0.085 C 
ATOM      4  C   UNL     1       2.424   0.169   0.585  0.00  0.00    +0.162 C 
ATOM      5  N   UNL     1       2.316   1.628   0.308  0.00  0.00    -0.275 N 
ATOM      6  C   UNL     1       3.318   2.517   0.328  0.00  0.00    +0.268 A 
ATOM      7  O   UNL     1       4.457   2.171   0.590  0.00  0.00    -0.266 OA
ATOM      8  C   UNL     1       3.016   3.869   0.036  0.00  0.00    +0.084 A 
ATOM      9  C   UNL     1       3.857   4.962  -0.010  0.00  0.00    +0.067 C 
ATOM     10  S   UNL     1       1.258   3.780  -0.259  0.00  0.00    -0.046 S 
ATOM     11  C   UNL     1       1.053   2.081   0.006  0.00  0.00    +0.178 A 
ATOM     12  N   UNL     1      -0.007   1.313  -0.046  0.00  0.00    -0.228 NA
ENDROOT
BRANCH   4  13
ATOM     13  C   UNL     1       2.995   0.001   1.969  0.00  0.00    -0.020 A 
ATOM     14  C   UNL     1       2.482   0.736   3.022  0.00  0.00    +0.007 A 
ATOM     15  C   UNL     1       3.001   0.578   4.293  0.00  0.00    +0.020 A 
ATOM     16  C   UNL     1       4.042  -0.307   4.510  0.00  0.00    +0.041 A 
ATOM     17  C   UNL     1       4.559  -1.038   3.455  0.00  0.00    +0.020 A 
ATOM     18  C   UNL     1       4.035  -0.884   2.185  0.00  0.00    +0.007 A 
ATOM     19 CL   UNL     1       4.699  -0.502   6.105  0.00  0.00    -0.084 Cl
ENDBRANCH   4  13
BRANCH   9  20
ATOM     20  C   UNL     1       5.248   4.783   0.081  0.00  0.00    +0.131 A 
ATOM     21  C   UNL     1       6.194   5.790   0.186  0.00  0.00    +0.051 A 
ATOM     22  C   UNL     1       7.441   5.163   0.252  0.00  0.00    +0.066 A 
ATOM     23  C   UNL     1       7.221   3.818   0.178  0.00  0.00    +0.189 A 
ATOM     24  O   UNL     1       5.901   3.599   0.075  0.00  0.00    -0.442 OA
BRANCH  23  25
ATOM     25  N   UNL     1       8.197   2.842   0.204  0.00  0.00    -0.301 N 
ATOM     26  C   UNL     1       9.190   3.063  -0.855  0.00  0.00    +0.108 C 
ATOM     27  C   UNL     1      10.330   2.053  -0.705  0.00  0.00    +0.019 C 
ATOM     28  C   UNL     1       9.763   0.633  -0.800  0.00  0.00    +0.003 C 
ATOM     29  C   UNL     1       8.696   0.445   0.282  0.00  0.00    +0.019 C 
ATOM     30  C   UNL     1       7.604   1.502   0.104  0.00  0.00    +0.108 C 
ENDBRANCH  23  25
ENDBRANCH   9  20
BRANCH   3  31
ATOM     31  C   UNL     1       1.161  -2.025   0.750  0.00  0.00    +0.339 C 
ATOM     32  O   UNL     1       0.126  -2.663   0.680  0.00  0.00    -0.245 OA
BRANCH  31  33
ATOM     33  O   UNL     1       2.318  -2.648   1.063  0.00  0.00    -0.459 OA
BRANCH  33  34
ATOM     34  C   UNL     1       2.254  -4.056   1.301  0.00  0.00    +0.171 C 
ATOM     35  C   UNL     1       3.584  -4.701   0.906  0.00  0.00    +0.052 C 
ATOM     36  C   UNL     1       1.984  -4.311   2.785  0.00  0.00    +0.052 C 
ENDBRANCH  33  34
ENDBRANCH  31  33
ENDBRANCH   3  31
TORSDOF 6
