REMARK  Name = ZINC09446496
REMARK  14 active torsions:
REMARK  status: ('A' for Active; 'I' for Inactive)
REMARK    1  A    between atoms: C_1  and  C_2
REMARK    2  A    between atoms: C_2  and  O_3
REMARK    3  A    between atoms: O_3  and  C_4
REMARK    4  A    between atoms: C_7  and  C_13
REMARK    5  A    between atoms: C_9  and  O_10
REMARK    6  A    between atoms: O_10  and  C_11
REMARK    7  A    between atoms: C_11  and  C_12
REMARK    8  A    between atoms: C_16  and  C_28
REMARK    9  A    between atoms: N_23  and  C_24
REMARK   10  A    between atoms: C_24  and  C_25
REMARK   11  A    between atoms: C_25  and  C_26
REMARK   12  A    between atoms: C_26  and  O_27
REMARK   13  A    between atoms: C_31  and  C_35
REMARK   14  A    between atoms: C_33  and  O_34
REMARK                            x       y       z     vdW  Elec       q    Type
REMARK                         _______ _______ _______ _____ _____    ______ ____
ROOT
ATOM      1  C   UNL     1       1.107  -6.044  -1.844  0.00  0.00    +0.141 C 
ATOM      2  C   UNL     1       2.199  -6.586  -0.962  0.00  0.00    +0.035 A 
ATOM      3  C   UNL     1       3.518  -6.585  -0.636  0.00  0.00    +0.075 A 
ATOM      4  N   UNL     1       3.667  -7.468   0.395  0.00  0.00    -0.276 N 
ATOM      5  H   UNL     1       4.507  -7.673   0.835  0.00  0.00    +0.189 HD
ATOM      6  N   UNL     1       2.530  -7.986   0.696  0.00  0.00    -0.168 NA
ATOM      7  C   UNL     1       1.582  -7.504  -0.082  0.00  0.00    +0.153 A 
ATOM      8  C   UNL     1       0.143  -7.539  -0.401  0.00  0.00    +0.268 C 
ATOM      9  O   UNL     1      -0.677  -8.229   0.172  0.00  0.00    -0.268 OA
ATOM     10  N   UNL     1      -0.134  -6.700  -1.415  0.00  0.00    -0.285 N 
ENDROOT
BRANCH   3  11
ATOM     11  C   UNL     1       4.585  -5.783  -1.275  0.00  0.00    +0.043 A 
ATOM     12  C   UNL     1       5.608  -6.414  -1.982  0.00  0.00    +0.034 A 
ATOM     13  C   UNL     1       6.601  -5.660  -2.575  0.00  0.00    +0.045 A 
ATOM     14  C   UNL     1       6.584  -4.279  -2.471  0.00  0.00    -0.029 A 
ATOM     15  C   UNL     1       5.575  -3.644  -1.773  0.00  0.00    +0.050 A 
ATOM     16  C   UNL     1       4.569  -4.387  -1.177  0.00  0.00    +0.126 A 
ATOM     17  C   UNL     1       7.673  -3.465  -3.122  0.00  0.00    +0.045 C 
ATOM     18 CL   UNL     1       7.874  -6.446  -3.455  0.00  0.00    -0.083 Cl
BRANCH  16  19
ATOM     19  O   UNL     1       3.573  -3.763  -0.495  0.00  0.00    -0.506 OA
ATOM     20  H   UNL     1       3.764  -3.628   0.444  0.00  0.00    +0.292 HD
ENDBRANCH  16  19
ENDBRANCH   3  11
BRANCH   1  24
ATOM     21  C   UNL     1       0.777  -1.811  -1.336  0.00  0.00    +0.162 A 
ATOM     22  C   UNL     1       0.243  -2.669  -0.388  0.00  0.00    +0.050 A 
ATOM     23  C   UNL     1       0.352  -4.037  -0.555  0.00  0.00    +0.009 A 
ATOM     24  C   UNL     1       0.992  -4.552  -1.667  0.00  0.00    -0.019 A 
ATOM     25  C   UNL     1       1.526  -3.702  -2.616  0.00  0.00    +0.055 A 
ATOM     26  C   UNL     1       1.416  -2.330  -2.458  0.00  0.00    +0.162 A 
BRANCH  21  27
ATOM     27  O   UNL     1       0.671  -0.465  -1.174  0.00  0.00    -0.489 OA
BRANCH  27  29
ATOM     28  C   UNL     1      -0.019   1.526   0.010  0.00  0.00    +0.048 C 
ATOM     29  C   UNL     1       0.002  -0.004   0.002  0.00  0.00    +0.226 C 
ENDBRANCH  27  29
ENDBRANCH  21  27
BRANCH  26  30
ATOM     30  O   UNL     1       1.936  -1.492  -3.394  0.00  0.00    -0.489 OA
BRANCH  30  31
ATOM     31  C   UNL     1       2.578  -2.095  -4.520  0.00  0.00    +0.226 C 
ATOM     32  C   UNL     1       3.096  -1.002  -5.457  0.00  0.00    +0.048 C 
ENDBRANCH  30  31
ENDBRANCH  26  30
ENDBRANCH   1  24
BRANCH  10  33
ATOM     33  C   UNL     1      -1.460  -6.476  -1.998  0.00  0.00    +0.111 C 
BRANCH  33  34
ATOM     34  C   UNL     1      -1.685  -7.461  -3.146  0.00  0.00    +0.047 C 
BRANCH  34  35
ATOM     35  C   UNL     1      -3.070  -7.227  -3.754  0.00  0.00    +0.157 C 
BRANCH  35  36
ATOM     36  O   UNL     1      -3.281  -8.148  -4.827  0.00  0.00    -0.395 OA
ATOM     37  H   UNL     1      -4.140  -8.056  -5.260  0.00  0.00    +0.209 HD
ENDBRANCH  35  36
ENDBRANCH  34  35
ENDBRANCH  33  34
ENDBRANCH  10  33
TORSDOF 11
