REMARK  Name = ZINC66939631
REMARK  12 active torsions:
REMARK  status: ('A' for Active; 'I' for Inactive)
REMARK    1  A    between atoms: C_1  and  C_2
REMARK    2  A    between atoms: C_2  and  C_3
REMARK    3  A    between atoms: C_3  and  O_4
REMARK    4  A    between atoms: O_4  and  C_5
REMARK    5  A    between atoms: C_8  and  C_13
REMARK    6  A    between atoms: C_10  and  O_11
REMARK    7  A    between atoms: O_11  and  C_12
REMARK    8  A    between atoms: C_13  and  C_15
REMARK    9  A    between atoms: C_13  and  N_16
REMARK   10  A    between atoms: N_16  and  C_17
REMARK   11  A    between atoms: C_17  and  C_19
REMARK   12  A    between atoms: C_17  and  C_26
REMARK                            x       y       z     vdW  Elec       q    Type
REMARK                         _______ _______ _______ _____ _____    ______ ____
ROOT
ATOM      1  N   UNL     1       2.914  -3.692  -6.884  0.00  0.00    +0.394 N 
ATOM      2  H   UNL     1       1.911  -3.625  -6.978  0.00  0.00    -0.083 HD
ATOM      3  H   UNL     1       3.310  -2.765  -6.840  0.00  0.00    -0.083 HD
ENDROOT
BRANCH   1   4
ATOM      4  C   UNL     1       3.243  -4.423  -5.653  0.00  0.00    -0.042 C 
ATOM      5  C   UNL     1       4.759  -4.417  -5.446  0.00  0.00    -0.009 C 
BRANCH   4   9
ATOM      6  C   UNL     1       1.342  -2.530  -2.323  0.00  0.00    +0.162 A 
ATOM      7  C   UNL     1       1.908  -1.763  -3.329  0.00  0.00    +0.049 A 
ATOM      8  C   UNL     1       2.522  -2.378  -4.404  0.00  0.00    +0.006 A 
ATOM      9  C   UNL     1       2.573  -3.758  -4.479  0.00  0.00    -0.058 A 
ATOM     10  C   UNL     1       2.009  -4.529  -3.479  0.00  0.00    +0.051 A 
ATOM     11  C   UNL     1       1.397  -3.918  -2.396  0.00  0.00    +0.162 A 
BRANCH  11  12
ATOM     12  O   UNL     1       0.847  -4.675  -1.408  0.00  0.00    -0.491 OA
ATOM     13  C   UNL     1       0.942  -6.094  -1.549  0.00  0.00    +0.277 C 
ENDBRANCH  11  12
BRANCH   6  14
ATOM     14  O   UNL     1       0.738  -1.926  -1.265  0.00  0.00    -0.488 OA
BRANCH  14  15
ATOM     15  C   UNL     1       0.718  -0.497  -1.257  0.00  0.00    +0.229 C 
BRANCH  15  17
ATOM     16  C   UNL     1      -0.019   1.526   0.010  0.00  0.00    +0.007 C 
ATOM     17  C   UNL     1       0.002  -0.004   0.002  0.00  0.00    +0.038 C 
ENDBRANCH  15  17
ENDBRANCH  14  15
ENDBRANCH   6  14
ENDBRANCH   4   9
ENDBRANCH   1   4
BRANCH   1  18
ATOM     18  C   UNL     1       3.467  -4.407  -8.041  0.00  0.00    +0.047 C 
BRANCH  18  19
ATOM     19  C   UNL     1       3.237  -3.595  -9.290  0.00  0.00    -0.053 A 
ATOM     20  C   UNL     1       2.041  -2.924  -9.467  0.00  0.00    +0.005 A 
ATOM     21  C   UNL     1       1.829  -2.179 -10.611  0.00  0.00    +0.038 A 
ATOM     22  C   UNL     1       2.814  -2.106 -11.582  0.00  0.00    +0.123 A 
ATOM     23  C   UNL     1       4.011  -2.779 -11.404  0.00  0.00    +0.038 A 
ATOM     24  C   UNL     1       4.223  -3.518 -10.256  0.00  0.00    +0.005 A 
ATOM     25  F   UNL     1       2.607  -1.378 -12.701  0.00  0.00    -0.205 F 
ENDBRANCH  18  19
BRANCH  18  26
ATOM     26  C   UNL     1       2.786  -5.744  -8.178  0.00  0.00    +0.201 C 
ATOM     27  O   UNL     1       1.925  -6.069  -7.389  0.00  0.00    -0.277 OA
ATOM     28  N   UNL     1       3.135  -6.579  -9.178  0.00  0.00    -0.330 N 
ATOM     29  H   UNL     1       3.824  -6.318  -9.809  0.00  0.00    +0.145 HD
ATOM     30  H   UNL     1       2.696  -7.439  -9.266  0.00  0.00    +0.145 HD
ENDBRANCH  18  26
ENDBRANCH   1  18
TORSDOF 9
