REMARK  Name = ZINC65011100
REMARK  7 active torsions:
REMARK  status: ('A' for Active; 'I' for Inactive)
REMARK    1  A    between atoms: C_1  and  C_2
REMARK    2  A    between atoms: C_2  and  C_3
REMARK    3  A    between atoms: C_3  and  C_4
REMARK    4  A    between atoms: C_5  and  C_16
REMARK    5  A    between atoms: C_19  and  C_32
REMARK    6  A    between atoms: C_20  and  S_22
REMARK    7  A    between atoms: S_22  and  N_25
REMARK                            x       y       z     vdW  Elec       q    Type
REMARK                         _______ _______ _______ _____ _____    ______ ____
ROOT
ATOM      1  C   UNL     1      -1.494  -2.697   2.557  0.00  0.00    -0.011 A 
ATOM      2  C   UNL     1      -1.363  -2.137   3.827  0.00  0.00    +0.009 A 
ATOM      3  C   UNL     1      -2.467  -1.605   4.461  0.00  0.00    +0.006 A 
ATOM      4  C   UNL     1      -3.703  -1.626   3.838  0.00  0.00    -0.024 A 
ATOM      5  C   UNL     1      -3.838  -2.180   2.578  0.00  0.00    +0.109 A 
ATOM      6  C   UNL     1      -2.740  -2.710   1.932  0.00  0.00    +0.037 A 
ATOM      7  C   UNL     1      -4.905  -1.043   4.535  0.00  0.00    +0.046 C 
ENDROOT
BRANCH   1   9
ATOM      8  C   UNL     1       0.827  -2.562   1.443  0.00  0.00    +0.073 A 
ATOM      9  C   UNL     1      -0.311  -3.270   1.871  0.00  0.00    +0.045 A 
ATOM     10  C   UNL     1      -0.124  -4.606   1.533  0.00  0.00    +0.139 A 
ATOM     11  N   UNL     1       1.111  -4.703   0.978  0.00  0.00    -0.185 N 
ATOM     12  N   UNL     1       1.652  -3.405   0.893  0.00  0.00    -0.167 NA
ATOM     13  C   UNL     1       1.806  -5.800   0.607  0.00  0.00    +0.250 C 
ATOM     14  O   UNL     1       2.852  -5.650   0.021  0.00  0.00    -0.271 OA
ATOM     15  C   UNL     1       1.347  -7.173   0.885  0.00  0.00    +0.110 C 
ATOM     16  C   UNL     1       0.581  -7.330   2.173  0.00  0.00    +0.105 C 
ATOM     17  C   UNL     1      -0.831  -6.866   2.036  0.00  0.00    +0.219 C 
ATOM     18  O   UNL     1      -1.746  -7.647   2.190  0.00  0.00    -0.275 OA
ATOM     19  N   UNL     1      -1.086  -5.574   1.739  0.00  0.00    -0.270 N 
ATOM     20  H   UNL     1      -2.015  -5.306   1.664  0.00  0.00    +0.156 HD
BRANCH   8  21
ATOM     21  C   UNL     1       1.051  -1.079   1.591  0.00  0.00    +0.058 C 
BRANCH  21  23
ATOM     22  C   UNL     1       0.726   1.150   0.512  0.00  0.00    +0.004 C 
ATOM     23  C   UNL     1       0.500  -0.355   0.361  0.00  0.00    +0.003 C 
ENDBRANCH  21  23
ENDBRANCH   8  21
ENDBRANCH   1   9
BRANCH   5  24
ATOM     24  S   UNL     1      -5.416  -2.203   1.793  0.00  0.00    +0.061 S 
ATOM     25  O   UNL     1      -6.125  -3.307   2.338  0.00  0.00    -0.153 OA
ATOM     26  O   UNL     1      -5.916  -0.874   1.849  0.00  0.00    -0.153 OA
BRANCH  24  27
ATOM     27  N   UNL     1      -5.161  -2.546   0.193  0.00  0.00    -0.177 NA
ATOM     28  C   UNL     1      -4.896  -1.454  -0.716  0.00  0.00    +0.109 C 
ATOM     29  C   UNL     1      -6.232  -0.916  -1.285  0.00  0.00    +0.017 C 
ATOM     30  C   UNL     1      -6.814  -1.885  -2.227  0.00  0.00    +0.001 C 
ATOM     31  C   UNL     1      -7.183  -3.226  -1.601  0.00  0.00    +0.001 C 
ATOM     32  C   UNL     1      -5.967  -4.120  -1.578  0.00  0.00    +0.017 C 
ATOM     33  C   UNL     1      -5.209  -3.955  -0.244  0.00  0.00    +0.109 C 
ENDBRANCH  24  27
ENDBRANCH   5  24
TORSDOF 5
