REMARK  Name = ZINC04251869
REMARK  7 active torsions:
REMARK  status: ('A' for Active; 'I' for Inactive)
REMARK    1  A    between atoms: C_1  and  C_2
REMARK    2  A    between atoms: C_2  and  C_4
REMARK    3  A    between atoms: C_2  and  S_16
REMARK    4  A    between atoms: N_6  and  C_7
REMARK    5  A    between atoms: S_16  and  C_17
REMARK    6  A    between atoms: C_19  and  C_23
REMARK    7  A    between atoms: N_21  and  N_22
REMARK                            x       y       z     vdW  Elec       q    Type
REMARK                         _______ _______ _______ _____ _____    ______ ____
ROOT
ATOM      1  C   UNL     1       7.826  -2.097   2.503  0.00  0.00    +0.029 C 
ATOM      2  C   UNL     1       6.728  -1.853   3.541  0.00  0.00    +0.137 C 
ENDROOT
BRANCH   2   3
ATOM      3  C   UNL     1       5.391  -1.784   2.850  0.00  0.00    +0.230 C 
ATOM      4  O   UNL     1       4.657  -2.749   2.852  0.00  0.00    -0.274 OA
ATOM      5  N   UNL     1       5.011  -0.649   2.230  0.00  0.00    -0.284 N 
ATOM      6  H   UNL     1       5.628   0.097   2.161  0.00  0.00    +0.155 HD
BRANCH   5   7
ATOM      7  C   UNL     1       3.725  -0.547   1.683  0.00  0.00    +0.037 A 
ATOM      8  C   UNL     1       3.517   0.200   0.531  0.00  0.00    +0.027 A 
ATOM      9  C   UNL     1       2.250   0.302  -0.009  0.00  0.00    +0.051 A 
ATOM     10  C   UNL     1       1.182  -0.341   0.597  0.00  0.00    +0.166 A 
ATOM     11  C   UNL     1       1.387  -1.090   1.753  0.00  0.00    +0.168 A 
ATOM     12  C   UNL     1       2.658  -1.191   2.294  0.00  0.00    +0.072 A 
ATOM     13  O   UNL     1       0.191  -1.616   2.150  0.00  0.00    -0.453 OA
ATOM     14  C   UNL     1      -0.672  -1.519   1.002  0.00  0.00    +0.466 C 
ATOM     15  O   UNL     1      -0.143  -0.398   0.270  0.00  0.00    -0.453 OA
ENDBRANCH   5   7
ENDBRANCH   2   3
BRANCH   2  16
ATOM     16  S   UNL     1       6.719  -3.208   4.740  0.00  0.00    -0.074 S 
BRANCH  16  17
ATOM     17  C   UNL     1       8.297  -2.969   5.485  0.00  0.00    +0.187 A 
ATOM     18  N   UNL     1       9.159  -2.033   5.167  0.00  0.00    -0.221 NA
ATOM     19  C   UNL     1      10.259  -2.156   5.950  0.00  0.00    +0.092 A 
ATOM     20  C   UNL     1      10.067  -3.215   6.776  0.00  0.00    +0.138 A 
ATOM     21  N   UNL     1       8.828  -3.730   6.483  0.00  0.00    -0.251 N 
BRANCH  19  22
ATOM     22  C   UNL     1      11.462  -1.290   5.907  0.00  0.00    +0.002 A 
ATOM     23  C   UNL     1      12.528  -1.530   6.773  0.00  0.00    +0.010 A 
ATOM     24  C   UNL     1      13.647  -0.723   6.726  0.00  0.00    +0.001 A 
ATOM     25  C   UNL     1      13.708   0.328   5.828  0.00  0.00    +0.000 A 
ATOM     26  C   UNL     1      12.651   0.573   4.970  0.00  0.00    +0.001 A 
ATOM     27  C   UNL     1      11.529  -0.230   5.005  0.00  0.00    +0.010 A 
ENDBRANCH  19  22
BRANCH  21  28
ATOM     28  N   UNL     1       8.236  -4.806   7.081  0.00  0.00    -0.296 N 
ATOM     29  H   UNL     1       8.468  -5.661   6.599  0.00  0.00    +0.163 HD
ATOM     30  H   UNL     1       8.489  -4.861   8.057  0.00  0.00    +0.163 HD
ENDBRANCH  21  28
ENDBRANCH  16  17
ENDBRANCH   2  16
TORSDOF 6
