REMARK  Name = ZINC64704329
REMARK  11 active torsions:
REMARK  status: ('A' for Active; 'I' for Inactive)
REMARK    1  A    between atoms: C_1  and  C_2
REMARK    2  A    between atoms: C_2  and  C_3
REMARK    3  A    between atoms: C_2  and  C_4
REMARK    4  A    between atoms: C_2  and  N_5
REMARK    5  A    between atoms: N_5  and  C_6
REMARK    6  A    between atoms: C_7  and  C_28
REMARK    7  A    between atoms: N_14  and  C_15
REMARK    8  A    between atoms: N_14  and  C_16
REMARK    9  A    between atoms: C_16  and  C_17
REMARK   10  A    between atoms: N_19  and  C_20
REMARK   11  A    between atoms: C_20  and  C_21
REMARK                            x       y       z     vdW  Elec       q    Type
REMARK                         _______ _______ _______ _____ _____    ______ ____
ROOT
ATOM      1  C   UNL     1       1.986   0.354  -1.605  0.00  0.00    +0.150 A 
ATOM      2  C   UNL     1       2.752   0.165  -2.716  0.00  0.00    +0.114 A 
ATOM      3  N   UNL     1       3.880   0.909  -2.574  0.00  0.00    -0.218 NA
ATOM      4  C   UNL     1       3.827   1.533  -1.436  0.00  0.00    +0.199 A 
ATOM      5  N   UNL     1       2.661   1.236  -0.775  0.00  0.00    -0.190 N 
ATOM      6  N   UNL     1       2.477   1.848   0.460  0.00  0.00    -0.140 NA
ATOM      7  C   UNL     1       3.370   2.662   0.954  0.00  0.00    +0.184 A 
ATOM      8  S   UNL     1       4.630   2.651  -0.311  0.00  0.00    -0.013 S 
ATOM      9  N   UNL     1       3.349   3.351   2.156  0.00  0.00    -0.302 N 
ATOM     10  C   UNL     1       2.207   3.209   3.062  0.00  0.00    +0.132 C 
ENDROOT
BRANCH   2  11
ATOM     11  C   UNL     1       2.416  -0.698  -3.872  0.00  0.00    +0.004 A 
ATOM     12  C   UNL     1       1.714  -1.888  -3.678  0.00  0.00    +0.010 A 
ATOM     13  C   UNL     1       1.403  -2.687  -4.758  0.00  0.00    +0.001 A 
ATOM     14  C   UNL     1       1.786  -2.310  -6.034  0.00  0.00    +0.000 A 
ATOM     15  C   UNL     1       2.483  -1.131  -6.233  0.00  0.00    +0.001 A 
ATOM     16  C   UNL     1       2.795  -0.321  -5.161  0.00  0.00    +0.010 A 
ENDBRANCH   2  11
BRANCH   1  17
ATOM     17  N   UNL     1       0.742  -0.231  -1.352  0.00  0.00    -0.323 N 
ATOM     18  H   UNL     1       0.299  -0.748  -2.042  0.00  0.00    +0.148 HD
BRANCH  17  20
ATOM     19  C   UNL     1      -0.264   1.409   0.159  0.00  0.00    +0.031 C 
ATOM     20  C   UNL     1       0.107  -0.062  -0.042  0.00  0.00    +0.025 C 
ATOM     21  C   UNL     1       1.079  -0.497   1.056  0.00  0.00    +0.031 C 
ATOM     22  C   UNL     1      -1.157  -0.921   0.026  0.00  0.00    +0.031 C 
ENDBRANCH  17  20
ENDBRANCH   1  17
BRANCH   9  23
ATOM     23  C   UNL     1       4.469   4.223   2.520  0.00  0.00    +0.202 C 
BRANCH  23  24
ATOM     24  C   UNL     1       4.209   5.616   2.006  0.00  0.00    +0.231 C 
ATOM     25  O   UNL     1       3.189   5.856   1.396  0.00  0.00    -0.274 OA
ATOM     26  N   UNL     1       5.110   6.594   2.224  0.00  0.00    -0.310 N 
ATOM     27  H   UNL     1       5.926   6.401   2.712  0.00  0.00    +0.149 HD
BRANCH  26  28
ATOM     28  C   UNL     1       4.857   7.947   1.725  0.00  0.00    +0.141 C 
BRANCH  28  29
ATOM     29  C   UNL     1       6.009   8.844   2.099  0.00  0.00    -0.012 A 
ATOM     30  C   UNL     1       5.905   9.684   3.192  0.00  0.00    +0.006 A 
ATOM     31  C   UNL     1       6.961  10.506   3.536  0.00  0.00    +0.000 A 
ATOM     32  C   UNL     1       8.123  10.490   2.787  0.00  0.00    +0.001 A 
ATOM     33  C   UNL     1       8.229   9.651   1.693  0.00  0.00    +0.020 A 
ATOM     34  C   UNL     1       7.173   8.823   1.352  0.00  0.00    +0.046 A 
ATOM     35 CL   UNL     1       7.308   7.764  -0.017  0.00  0.00    -0.083 Cl
ENDBRANCH  28  29
ENDBRANCH  26  28
ENDBRANCH  23  24
ENDBRANCH   9  23
TORSDOF 7
