REMARK  Name = ZINC59645482
REMARK  11 active torsions:
REMARK  status: ('A' for Active; 'I' for Inactive)
REMARK    1  A    between atoms: C_1  and  O_2
REMARK    2  A    between atoms: O_2  and  C_3
REMARK    3  A    between atoms: C_5  and  C_16
REMARK    4  A    between atoms: C_8  and  O_9
REMARK    5  A    between atoms: O_9  and  C_10
REMARK    6  A    between atoms: C_10  and  C_11
REMARK    7  A    between atoms: C_11  and  O_13
REMARK    8  A    between atoms: O_13  and  C_14
REMARK    9  A    between atoms: N_17  and  N_18
REMARK   10  A    between atoms: C_19  and  C_21
REMARK   11  A    between atoms: C_21  and  C_22
REMARK                            x       y       z     vdW  Elec       q    Type
REMARK                         _______ _______ _______ _____ _____    ______ ____
ROOT
ATOM      1  C   UNL     1       0.606  -0.608  -1.056  0.00  0.00    +0.163 A 
ATOM      2  C   UNL     1       1.171   0.159  -2.059  0.00  0.00    +0.059 A 
ATOM      3  C   UNL     1       1.791  -0.464  -3.145  0.00  0.00    -0.001 A 
ATOM      4  C   UNL     1       1.838  -1.859  -3.212  0.00  0.00    +0.027 A 
ATOM      5  C   UNL     1       1.272  -2.617  -2.208  0.00  0.00    +0.059 A 
ATOM      6  C   UNL     1       0.661  -1.998  -1.127  0.00  0.00    +0.176 A 
ATOM      7  I   UNL     1       1.343  -4.708  -2.312  0.00  0.00    -0.040 I 
ENDROOT
BRANCH   1   9
ATOM      8  C   UNL     1      -0.017   1.425   0.010  0.00  0.00    +0.277 C 
ATOM      9  O   UNL     1       0.002  -0.004   0.002  0.00  0.00    -0.491 OA
ENDBRANCH   1   9
BRANCH   3  10
ATOM     10  C   UNL     1       2.395   0.348  -4.217  0.00  0.00    +0.138 C 
ATOM     11  N   UNL     1       2.971  -0.232  -5.225  0.00  0.00    -0.188 NA
BRANCH  11  12
ATOM     12  N   UNL     1       3.544   0.540  -6.244  0.00  0.00    -0.207 N 
ATOM     13  C   UNL     1       4.142  -0.063  -7.290  0.00  0.00    +0.238 C 
ATOM     14  O   UNL     1       4.184  -1.274  -7.350  0.00  0.00    -0.274 OA
ATOM     15  H   UNL     1       3.511   1.508  -6.196  0.00  0.00    +0.177 HD
BRANCH  13  16
ATOM     16  C   UNL     1       4.759   0.767  -8.386  0.00  0.00    +0.153 C 
BRANCH  16  17
ATOM     17  C   UNL     1       5.357  -0.141  -9.429  0.00  0.00    +0.059 A 
ATOM     18  C   UNL     1       5.013  -0.041 -10.736  0.00  0.00    +0.072 A 
ATOM     19  S   UNL     1       6.017  -1.336 -11.445  0.00  0.00    -0.061 S 
ATOM     20  C   UNL     1       6.757  -1.860 -10.027  0.00  0.00    +0.156 A 
ATOM     21  N   UNL     1       6.244  -1.068  -9.111  0.00  0.00    -0.230 NA
ATOM     22  N   UNL     1       7.686  -2.877  -9.865  0.00  0.00    -0.338 N 
ATOM     23  H   UNL     1       7.986  -3.386 -10.634  0.00  0.00    +0.144 HD
ATOM     24  H   UNL     1       8.035  -3.078  -8.983  0.00  0.00    +0.144 HD
ENDBRANCH  16  17
ENDBRANCH  13  16
ENDBRANCH  11  12
ENDBRANCH   3  10
BRANCH   6  25
ATOM     25  O   UNL     1       0.110  -2.749  -0.138  0.00  0.00    -0.476 OA
BRANCH  25  26
ATOM     26  C   UNL     1      -1.262  -3.119  -0.292  0.00  0.00    +0.349 C 
BRANCH  26  27
ATOM     27  C   UNL     1      -1.696  -3.944   0.893  0.00  0.00    +0.345 C 
ATOM     28  O   UNL     1      -0.911  -4.189   1.778  0.00  0.00    -0.247 OA
BRANCH  27  29
ATOM     29  O   UNL     1      -2.954  -4.405   0.965  0.00  0.00    -0.466 OA
ATOM     30  C   UNL     1      -3.296  -5.180   2.116  0.00  0.00    +0.280 C 
ENDBRANCH  27  29
ENDBRANCH  26  27
ENDBRANCH  25  26
ENDBRANCH   6  25
TORSDOF 9
