REMARK  Name = ZINC08733559
REMARK  6 active torsions:
REMARK  status: ('A' for Active; 'I' for Inactive)
REMARK    1  A    between atoms: C_6  and  C_7
REMARK    2  A    between atoms: N_15  and  C_16
REMARK    3  A    between atoms: C_16  and  C_17
REMARK    4  A    between atoms: C_17  and  N_18
REMARK    5  A    between atoms: N_18  and  C_19
REMARK    6  A    between atoms: C_22  and  C_24
REMARK                            x       y       z     vdW  Elec       q    Type
REMARK                         _______ _______ _______ _____ _____    ______ ____
ROOT
ATOM      1  C   UNL     1       1.157   3.163   0.008  0.00  0.00    +0.014 A 
ATOM      2  C   UNL     1      -0.032   3.859   0.023  0.00  0.00    +0.028 A 
ATOM      3  C   UNL     1      -1.240   3.168   0.031  0.00  0.00    +0.070 A 
ATOM      4  C   UNL     1      -1.237   1.761   0.018  0.00  0.00    +0.090 A 
ATOM      5  C   UNL     1      -0.013   1.076   0.008  0.00  0.00    +0.042 A 
ATOM      6  C   UNL     1       1.160   1.774   0.001  0.00  0.00    +0.057 A 
ATOM      7  N   UNL     1      -2.395   1.073   0.030  0.00  0.00    -0.229 NA
ATOM      8  C   UNL     1      -3.543   1.690   0.044  0.00  0.00    +0.195 A 
ATOM      9  C   UNL     1      -3.593   3.158   0.053  0.00  0.00    +0.289 A 
ATOM     10  O   UNL     1      -4.664   3.738   0.066  0.00  0.00    -0.264 OA
ATOM     11  N   UNL     1      -2.437   3.856   0.046  0.00  0.00    -0.303 N 
ATOM     12 CL   UNL     1      -5.018   0.773   0.053  0.00  0.00    -0.056 Cl
ENDROOT
BRANCH   6  13
ATOM     13  C   UNL     1       2.471   1.031  -0.017  0.00  0.00    +0.417 C 
ATOM     14  F   UNL     1       2.863   0.809  -1.341  0.00  0.00    -0.166 F 
ATOM     15  F   UNL     1       3.446   1.791   0.638  0.00  0.00    -0.166 F 
ATOM     16  F   UNL     1       2.320  -0.196   0.637  0.00  0.00    -0.166 F 
ENDBRANCH   6  13
BRANCH  11  17
ATOM     17  C   UNL     1      -2.453   5.321   0.053  0.00  0.00    +0.144 C 
BRANCH  17  18
ATOM     18  C   UNL     1      -2.472   5.838  -1.386  0.00  0.00    +0.124 C 
BRANCH  18  19
ATOM     19  N   UNL     1      -2.488   7.303  -1.379  0.00  0.00    -0.328 N 
ATOM     20  H   UNL     1      -2.485   7.784  -0.536  0.00  0.00    +0.148 HD
BRANCH  19  21
ATOM     21  C   UNL     1      -2.507   8.005  -2.579  0.00  0.00    +0.115 A 
ATOM     22  C   UNL     1      -2.528   9.397  -2.565  0.00  0.00    +0.079 A 
ATOM     23  C   UNL     1      -2.541  10.082  -3.768  0.00  0.00    +0.037 A 
ATOM     24  C   UNL     1      -2.544   9.349  -4.947  0.00  0.00    +0.072 A 
ATOM     25  C   UNL     1      -2.528   7.970  -4.887  0.00  0.00    +0.096 A 
ATOM     26 CL   UNL     1      -2.531  10.262  -1.060  0.00  0.00    -0.080 Cl
ATOM     27  N   UNL     1      -2.509   7.264  -3.725  0.00  0.00    -0.348 N 
ATOM     28  H   UNL     1      -2.498   6.237  -3.711  0.00  0.00    +0.167 HD
BRANCH  24  29
ATOM     29  C   UNL     1      -2.563  10.052  -6.280  0.00  0.00    +0.419 C 
ATOM     30  F   UNL     1      -2.562   9.103  -7.308  0.00  0.00    -0.166 F 
ATOM     31  F   UNL     1      -3.715  10.840  -6.375  0.00  0.00    -0.166 F 
ATOM     32  F   UNL     1      -1.431  10.865  -6.395  0.00  0.00    -0.166 F 
ENDBRANCH  24  29
ENDBRANCH  19  21
ENDBRANCH  18  19
ENDBRANCH  17  18
ENDBRANCH  11  17
TORSDOF 6
