REMARK  Name = ZINC08442119
REMARK  8 active torsions:
REMARK  status: ('A' for Active; 'I' for Inactive)
REMARK    1  A    between atoms: C_1  and  C_2
REMARK    2  A    between atoms: C_5  and  S_8
REMARK    3  A    between atoms: S_8  and  C_9
REMARK    4  A    between atoms: C_9  and  C_10
REMARK    5  A    between atoms: C_17  and  N_34
REMARK    6  A    between atoms: C_18  and  C_32
REMARK    7  A    between atoms: N_26  and  C_29
REMARK    8  A    between atoms: C_29  and  C_30
REMARK                            x       y       z     vdW  Elec       q    Type
REMARK                         _______ _______ _______ _____ _____    ______ ____
ROOT
ATOM      1  C   UNL     1      -0.116  -6.549   1.499  0.00  0.00    +0.055 A 
ATOM      2  C   UNL     1      -1.249  -7.266   1.527  0.00  0.00    +0.062 A 
ATOM      3  C   UNL     1      -0.901  -8.636   1.552  0.00  0.00    +0.245 A 
ATOM      4  N   UNL     1       0.397  -8.721   1.540  0.00  0.00    -0.135 NA
ATOM      5  N   UNL     1       0.920  -7.419   1.501  0.00  0.00    -0.277 N 
ATOM      6  H   UNL     1       1.861  -7.184   1.480  0.00  0.00    +0.189 HD
ATOM      7  O   UNL     1      -1.843  -9.616   1.581  0.00  0.00    -0.421 OA
ATOM      8  C   UNL     1      -3.119  -9.270   1.322  0.00  0.00    +0.201 C 
ATOM      9  C   UNL     1      -3.572  -7.996   1.284  0.00  0.00    +0.110 C 
ATOM     10  C   UNL     1      -2.682  -6.811   1.534  0.00  0.00    +0.145 C 
ATOM     11  C   UNL     1      -3.029  -6.129   2.818  0.00  0.00    -0.001 A 
ATOM     12  C   UNL     1      -3.027  -6.577   4.122  0.00  0.00    +0.007 A 
ATOM     13  C   UNL     1      -3.412  -5.668   5.102  0.00  0.00    +0.000 A 
ATOM     14  C   UNL     1      -3.779  -4.377   4.780  0.00  0.00    +0.002 A 
ATOM     15  C   UNL     1      -3.785  -3.920   3.472  0.00  0.00    +0.024 A 
ATOM     16  C   UNL     1      -3.401  -4.822   2.478  0.00  0.00    +0.041 A 
ATOM     17  N   UNL     1      -3.317  -4.639   1.110  0.00  0.00    -0.266 N 
ATOM     18  C   UNL     1      -2.904  -5.755   0.473  0.00  0.00    +0.241 C 
ATOM     19  O   UNL     1      -2.741  -5.887  -0.721  0.00  0.00    -0.274 OA
ENDROOT
BRANCH   8  20
ATOM     20  N   UNL     1      -4.020 -10.277   1.081  0.00  0.00    -0.328 N 
ATOM     21  H   UNL     1      -3.730 -11.202   1.101  0.00  0.00    +0.145 HD
ATOM     22  H   UNL     1      -4.947 -10.063   0.892  0.00  0.00    +0.145 HD
ENDBRANCH   8  20
BRANCH   9  23
ATOM     23  C   UNL     1      -4.956  -7.768   0.994  0.00  0.00    +0.102 C 
ATOM     24  N   UNL     1      -6.053  -7.587   0.764  0.00  0.00    -0.191 NA
ENDBRANCH   9  23
BRANCH   1  25
ATOM     25  C   UNL     1      -0.015  -5.046   1.466  0.00  0.00    +0.129 C 
BRANCH  25  26
ATOM     26  S   UNL     1       0.207  -4.417   3.153  0.00  0.00    -0.119 S 
BRANCH  26  31
ATOM     27  C   UNL     1       1.150   1.497   2.395  0.00  0.00    +0.044 C 
ATOM     28  C   UNL     1       0.914   0.020   2.584  0.00  0.00    -0.050 A 
ATOM     29  C   UNL     1       0.782  -0.499   3.859  0.00  0.00    +0.004 A 
ATOM     30  C   UNL     1       0.566  -1.852   4.036  0.00  0.00    +0.015 A 
ATOM     31  C   UNL     1       0.482  -2.691   2.932  0.00  0.00    +0.008 A 
ATOM     32  C   UNL     1       0.615  -2.165   1.652  0.00  0.00    +0.015 A 
ATOM     33  C   UNL     1       0.825  -0.811   1.482  0.00  0.00    +0.004 A 
ENDBRANCH  26  31
ENDBRANCH  25  26
ENDBRANCH   1  25
BRANCH  17  34
ATOM     34  C   UNL     1      -3.638  -3.381   0.431  0.00  0.00    +0.140 C 
BRANCH  34  35
ATOM     35  C   UNL     1      -2.424  -2.488   0.427  0.00  0.00    -0.015 C 
ATOM     36  C   UNL     1      -1.961  -2.017  -0.705  0.00  0.00    +0.005 C 
ENDBRANCH  34  35
ENDBRANCH  17  34
TORSDOF 7
