REMARK  Name = ZINC20530365
REMARK  7 active torsions:
REMARK  status: ('A' for Active; 'I' for Inactive)
REMARK    1  A    between atoms: C_4  and  C_7
REMARK    2  A    between atoms: C_10  and  C_13
REMARK    3  A    between atoms: C_13  and  C_15
REMARK    4  A    between atoms: C_15  and  O_16
REMARK    5  A    between atoms: O_16  and  C_17
REMARK    6  A    between atoms: C_17  and  C_19
REMARK    7  A    between atoms: C_32  and  C_35
REMARK                            x       y       z     vdW  Elec       q    Type
REMARK                         _______ _______ _______ _____ _____    ______ ____
ROOT
ATOM      1  C   UNL     1      -0.024  -2.781   0.015  0.00  0.00    +0.059 A 
ATOM      2  C   UNL     1      -1.224  -2.063   0.000  0.00  0.00    +0.017 A 
ATOM      3  C   UNL     1      -1.206  -0.699  -0.006  0.00  0.00    +0.024 A 
ATOM      4  C   UNL     1       0.002  -0.004   0.002  0.00  0.00    +0.031 A 
ATOM      5  C   UNL     1       1.209  -0.720   0.004  0.00  0.00    -0.019 A 
ATOM      6  C   UNL     1       1.194  -2.093   0.017  0.00  0.00    +0.021 A 
ATOM      7  C   UNL     1       2.465   0.059  -0.018  0.00  0.00    +0.049 C 
ATOM      8  C   UNL     1       3.729  -0.465   0.557  0.00  0.00    -0.023 C 
ATOM      9  C   UNL     1       4.445   0.557   1.010  0.00  0.00    -0.030 C 
ATOM     10  C   UNL     1       3.681   1.865   0.797  0.00  0.00    +0.033 C 
ATOM     11  C   UNL     1       2.235   1.362   0.805  0.00  0.00    +0.029 C 
ATOM     12  C   UNL     1       1.236   2.175   0.002  0.00  0.00    +0.105 C 
ATOM     13  N   UNL     1      -0.017   1.390   0.010  0.00  0.00    -0.336 N 
ATOM     14  H   UNL     1      -0.989   1.904   0.022  0.00  0.00    +0.147 HD
ENDROOT
BRANCH  12  15
ATOM     15  C   UNL     1       1.013   3.516   0.653  0.00  0.00    -0.027 A 
ATOM     16  C   UNL     1       0.221   3.613   1.782  0.00  0.00    +0.007 A 
ATOM     17  C   UNL     1       0.021   4.841   2.383  0.00  0.00    +0.020 A 
ATOM     18  C   UNL     1       0.605   5.976   1.848  0.00  0.00    +0.041 A 
ATOM     19  C   UNL     1       1.393   5.879   0.715  0.00  0.00    +0.020 A 
ATOM     20  C   UNL     1       1.597   4.649   0.118  0.00  0.00    +0.007 A 
ATOM     21 CL   UNL     1       0.349   7.520   2.599  0.00  0.00    -0.084 Cl
ENDBRANCH  12  15
BRANCH   1  22
ATOM     22  C   UNL     1      -0.042  -4.255   0.029  0.00  0.00    +0.340 C 
ATOM     23  O   UNL     1       1.003  -4.875   0.043  0.00  0.00    -0.245 OA
BRANCH  22  24
ATOM     24  O   UNL     1      -1.218  -4.914   0.027  0.00  0.00    -0.453 OA
BRANCH  24  25
ATOM     25  C   UNL     1      -1.160  -6.365   0.042  0.00  0.00    +0.311 C 
BRANCH  25  26
ATOM     26  C   UNL     1      -2.559  -6.923   0.037  0.00  0.00    +0.200 C 
ATOM     27  O   UNL     1      -3.512  -6.172   0.023  0.00  0.00    -0.288 OA
BRANCH  26  31
ATOM     28  C   UNL     1      -3.167 -11.118   0.074  0.00  0.00    -0.018 A 
ATOM     29  C   UNL     1      -4.264 -10.255   0.058  0.00  0.00    +0.009 A 
ATOM     30  C   UNL     1      -4.070  -8.898   0.046  0.00  0.00    +0.012 A 
ATOM     31  C   UNL     1      -2.770  -8.378   0.050  0.00  0.00    +0.021 A 
ATOM     32  C   UNL     1      -1.671  -9.245   0.061  0.00  0.00    +0.012 A 
ATOM     33  C   UNL     1      -1.871 -10.602   0.078  0.00  0.00    +0.009 A 
BRANCH  28  37
ATOM     34  C   UNL     1      -3.777 -15.325   0.109  0.00  0.00    +0.000 A 
ATOM     35  C   UNL     1      -2.491 -14.815   0.113  0.00  0.00    +0.001 A 
ATOM     36  C   UNL     1      -2.287 -13.450   0.102  0.00  0.00    +0.008 A 
ATOM     37  C   UNL     1      -3.380 -12.585   0.086  0.00  0.00    -0.018 A 
ATOM     38  C   UNL     1      -4.674 -13.104   0.088  0.00  0.00    +0.008 A 
ATOM     39  C   UNL     1      -4.866 -14.471   0.094  0.00  0.00    +0.001 A 
ENDBRANCH  28  37
ENDBRANCH  26  31
ENDBRANCH  25  26
ENDBRANCH  24  25
ENDBRANCH  22  24
ENDBRANCH   1  22
TORSDOF 7
