REMARK  Name = ZINC40521067
REMARK  5 active torsions:
REMARK  status: ('A' for Active; 'I' for Inactive)
REMARK    1  A    between atoms: C_1  and  C_2
REMARK    2  A    between atoms: C_8  and  N_10
REMARK    3  A    between atoms: C_11  and  C_13
REMARK    4  A    between atoms: N_22  and  C_23
REMARK    5  A    between atoms: N_22  and  C_24
REMARK                            x       y       z     vdW  Elec       q    Type
REMARK                         _______ _______ _______ _____ _____    ______ ____
ROOT
ATOM      1  N   UNL     1      -0.042  -0.566   2.444  0.00  0.00    -0.312 N 
ATOM      2  C   UNL     1       0.608   0.076   3.436  0.00  0.00    +0.218 C 
ATOM      3  O   UNL     1       1.820   0.106   3.446  0.00  0.00    -0.275 OA
ATOM      4  H   UNL     1      -1.011  -0.590   2.436  0.00  0.00    +0.149 HD
ENDROOT
BRANCH   2   5
ATOM      5  C   UNL     1      -0.172   0.755   4.532  0.00  0.00    +0.092 C 
ATOM      6  C   UNL     1       0.797   1.401   5.524  0.00  0.00    +0.016 C 
ATOM      7  C   UNL     1       0.006   2.118   6.620  0.00  0.00    +0.020 C 
ATOM      8  C   UNL     1      -0.852   1.099   7.375  0.00  0.00    +0.109 C 
ATOM      9  N   UNL     1      -1.684   0.371   6.408  0.00  0.00    -0.285 N 
ATOM     10  C   UNL     1      -1.033  -0.280   5.263  0.00  0.00    +0.122 C 
ATOM     11  C   UNL     1      -3.021   0.302   6.567  0.00  0.00    +0.304 C 
ATOM     12  O   UNL     1      -3.733   0.036   5.618  0.00  0.00    -0.252 OA
ATOM     13  N   UNL     1      -3.568   0.528   7.778  0.00  0.00    -0.292 N 
ATOM     14  C   UNL     1      -5.024   0.595   7.923  0.00  0.00    +0.133 C 
ATOM     15  C   UNL     1      -2.706   0.706   8.949  0.00  0.00    +0.133 C 
ENDBRANCH   2   5
BRANCH   1  22
ATOM     16  C   UNL     1      -0.543   0.089  -0.333  0.00  0.00    +0.009 C 
ATOM     17  C   UNL     1      -0.148  -1.319   0.119  0.00  0.00    +0.006 C 
ATOM     18  C   UNL     1      -1.409  -2.129   0.425  0.00  0.00    +0.005 C 
ATOM     19  C   UNL     1      -1.013  -3.536   0.877  0.00  0.00    +0.000 C 
ATOM     20  C   UNL     1      -0.149  -3.443   2.136  0.00  0.00    +0.002 C 
ATOM     21  C   UNL     1       1.112  -2.633   1.830  0.00  0.00    +0.022 C 
ATOM     22  C   UNL     1       0.717  -1.226   1.378  0.00  0.00    +0.076 C 
ENDBRANCH   1  22
TORSDOF 2
