REMARK  Name = ZINC09113403
REMARK  12 active torsions:
REMARK  status: ('A' for Active; 'I' for Inactive)
REMARK    1  A    between atoms: C_1  and  C_2
REMARK    2  A    between atoms: C_2  and  O_3
REMARK    3  A    between atoms: O_3  and  C_4
REMARK    4  A    between atoms: C_6  and  C_12
REMARK    5  A    between atoms: C_9  and  O_10
REMARK    6  A    between atoms: C_17  and  C_21
REMARK    7  A    between atoms: C_17  and  C_22
REMARK    8  A    between atoms: C_24  and  C_36
REMARK    9  A    between atoms: C_25  and  C_26
REMARK   10  A    between atoms: C_26  and  O_28
REMARK   11  A    between atoms: O_28  and  C_29
REMARK   12  A    between atoms: C_29  and  C_30
REMARK                            x       y       z     vdW  Elec       q    Type
REMARK                         _______ _______ _______ _____ _____    ______ ____
ROOT
ATOM      1  C   UNL     1       1.143   3.596   0.010  0.00  0.00    +0.092 C 
ATOM      2  C   UNL     1       0.411   4.085  -1.214  0.00  0.00    +0.024 C 
ATOM      3  C   UNL     1      -0.858   4.535  -1.125  0.00  0.00    +0.016 C 
ATOM      4  C   UNL     1      -1.596   5.028  -2.345  0.00  0.00    +0.058 C 
ATOM      5  C   UNL     1      -1.098   4.281  -3.584  0.00  0.00    -0.023 C 
ATOM      6  C   UNL     1       0.412   4.509  -3.714  0.00  0.00    +0.086 C 
ATOM      7  C   UNL     1       1.086   4.057  -2.448  0.00  0.00    +0.162 C 
ATOM      8  O   UNL     1       2.233   3.660  -2.491  0.00  0.00    -0.292 OA
ATOM      9  C   UNL     1      -1.381   2.785  -3.431  0.00  0.00    +0.011 C 
ATOM     10  C   UNL     1      -1.809   4.817  -4.828  0.00  0.00    +0.011 C 
ATOM     11  N   UNL     1      -1.504   4.557   0.082  0.00  0.00    -0.321 N 
ATOM     12  C   UNL     1      -0.796   4.517   1.251  0.00  0.00    +0.016 C 
ATOM     13  C   UNL     1       0.471   4.071   1.265  0.00  0.00    +0.065 C 
ATOM     14  C   UNL     1      -1.442   4.978   2.533  0.00  0.00    +0.061 C 
ATOM     15  H   UNL     1      -2.602   4.606   0.118  0.00  0.00    +0.152 HD
ENDROOT
BRANCH   1  18
ATOM     16  C   UNL     1       2.405   0.035  -0.021  0.00  0.00    +0.163 A 
ATOM     17  C   UNL     1       2.379   1.421  -0.013  0.00  0.00    +0.054 A 
ATOM     18  C   UNL     1       1.169   2.089   0.002  0.00  0.00    -0.030 A 
ATOM     19  C   UNL     1      -0.017   1.379   0.010  0.00  0.00    +0.028 A 
ATOM     20  C   UNL     1       0.002  -0.004   0.002  0.00  0.00    +0.086 A 
ATOM     21  C   UNL     1       1.212  -0.680  -0.013  0.00  0.00    +0.177 A 
ATOM     22 CL   UNL     1      -1.489  -0.893   0.011  0.00  0.00    -0.080 Cl
BRANCH  21  23
ATOM     23  O   UNL     1       1.233  -2.041  -0.020  0.00  0.00    -0.502 OA
ATOM     24  H   UNL     1       0.289  -2.605  -0.014  0.00  0.00    +0.292 HD
ENDBRANCH  21  23
BRANCH  16  25
ATOM     25  O   UNL     1       3.595  -0.624  -0.035  0.00  0.00    -0.489 OA
BRANCH  25  27
ATOM     26  C   UNL     1       6.009  -0.735  -0.058  0.00  0.00    +0.048 C 
ATOM     27  C   UNL     1       4.779   0.176  -0.042  0.00  0.00    +0.226 C 
ENDBRANCH  25  27
ENDBRANCH  16  25
ENDBRANCH   1  18
BRANCH  13  28
ATOM     28  C   UNL     1       1.186   4.048   2.485  0.00  0.00    +0.338 C 
ATOM     29  O   UNL     1       0.652   4.430   3.510  0.00  0.00    -0.245 OA
BRANCH  28  30
ATOM     30  O   UNL     1       2.459   3.602   2.514  0.00  0.00    -0.459 OA
BRANCH  30  31
ATOM     31  C   UNL     1       3.120   3.607   3.781  0.00  0.00    +0.264 C 
BRANCH  31  32
ATOM     32  C   UNL     1       4.544   3.071   3.615  0.00  0.00    +0.156 C 
ATOM     33  C   UNL     1       5.227   2.964   4.996  0.00  0.00    +0.037 C 
ATOM     34  C   UNL     1       6.676   3.429   4.683  0.00  0.00    +0.031 C 
ATOM     35  C   UNL     1       6.413   4.494   3.589  0.00  0.00    +0.160 C 
ATOM     36  O   UNL     1       5.315   3.979   2.820  0.00  0.00    -0.373 OA
ENDBRANCH  31  32
ENDBRANCH  30  31
ENDBRANCH  28  30
ENDBRANCH  13  28
TORSDOF 8
