REMARK  Name = ZINC36038420
REMARK  12 active torsions:
REMARK  status: ('A' for Active; 'I' for Inactive)
REMARK    1  A    between atoms: C_1  and  C_2
REMARK    2  A    between atoms: C_2  and  C_3
REMARK    3  A    between atoms: C_2  and  C_4
REMARK    4  A    between atoms: C_4  and  C_5
REMARK    5  A    between atoms: N_9  and  C_30
REMARK    6  A    between atoms: N_14  and  S_17
REMARK    7  A    between atoms: S_17  and  C_20
REMARK    8  A    between atoms: C_24  and  C_26
REMARK    9  A    between atoms: C_30  and  C_31
REMARK   10  A    between atoms: C_31  and  C_32
REMARK   11  A    between atoms: C_32  and  O_33
REMARK   12  A    between atoms: O_33  and  C_34
REMARK                            x       y       z     vdW  Elec       q    Type
REMARK                         _______ _______ _______ _____ _____    ______ ____
ROOT
ATOM      1  C   UNL     1      -1.080  -2.303  -0.616  0.00  0.00    +0.019 C 
ATOM      2  C   UNL     1      -2.517  -2.698  -0.350  0.00  0.00    +0.200 C 
ATOM      3  O   UNL     1      -3.231  -2.235   0.513  0.00  0.00    -0.277 OA
ATOM      4  N   UNL     1      -2.869  -3.653  -1.236  0.00  0.00    -0.314 N 
ATOM      5  C   UNL     1      -1.733  -3.950  -2.112  0.00  0.00    +0.006 C 
ATOM      6  N   UNL     1      -0.789  -2.819  -1.976  0.00  0.00    +0.401 N 
ATOM      7  C   UNL     1      -2.199  -4.062  -3.563  0.00  0.00    +0.023 C 
ATOM      8  C   UNL     1      -3.203  -5.214  -3.687  0.00  0.00    +0.109 C 
ATOM      9  N   UNL     1      -2.591  -6.434  -3.143  0.00  0.00    -0.177 NA
ATOM     10  C   UNL     1      -2.045  -6.405  -1.780  0.00  0.00    +0.109 C 
ATOM     11  C   UNL     1      -1.050  -5.244  -1.673  0.00  0.00    +0.023 C 
ATOM     12  H   UNL     1      -0.976  -2.113  -2.672  0.00  0.00    -0.082 HD
ATOM     13  H   UNL     1       0.166  -3.139  -2.038  0.00  0.00    -0.082 HD
ENDROOT
BRANCH   9  14
ATOM     14  S   UNL     1      -2.519  -7.817  -4.051  0.00  0.00    +0.061 S 
ATOM     15  O   UNL     1      -2.421  -8.899  -3.135  0.00  0.00    -0.153 OA
ATOM     16  O   UNL     1      -3.562  -7.726  -5.013  0.00  0.00    -0.153 OA
BRANCH  14  17
ATOM     17  C   UNL     1      -1.003  -7.775  -4.947  0.00  0.00    +0.106 A 
ATOM     18  C   UNL     1      -0.955  -7.189  -6.198  0.00  0.00    +0.028 A 
ATOM     19  C   UNL     1       0.235  -7.156  -6.900  0.00  0.00    +0.002 A 
ATOM     20  C   UNL     1       1.378  -7.708  -6.351  0.00  0.00    +0.012 A 
ATOM     21  C   UNL     1       1.330  -8.293  -5.100  0.00  0.00    +0.057 A 
ATOM     22  C   UNL     1       0.141  -8.322  -4.395  0.00  0.00    +0.041 A 
BRANCH  21  23
ATOM     23  C   UNL     1       2.575  -8.895  -4.502  0.00  0.00    +0.417 C 
ATOM     24  F   UNL     1       3.642  -8.741  -5.393  0.00  0.00    -0.166 F 
ATOM     25  F   UNL     1       2.875  -8.246  -3.299  0.00  0.00    -0.166 F 
ATOM     26  F   UNL     1       2.364 -10.256  -4.257  0.00  0.00    -0.166 F 
ENDBRANCH  21  23
ENDBRANCH  14  17
ENDBRANCH   9  14
BRANCH   1  27
ATOM     27  C   UNL     1      -0.931  -0.781  -0.580  0.00  0.00    -0.004 C 
BRANCH  27  29
ATOM     28  C   UNL     1       0.667   1.115  -0.889  0.00  0.00    +0.007 C 
ATOM     29  C   UNL     1       0.536  -0.407  -0.800  0.00  0.00    -0.018 C 
ATOM     30  C   UNL     1       1.376  -0.924   0.370  0.00  0.00    +0.007 C 
ENDBRANCH  27  29
ENDBRANCH   1  27
BRANCH   4  31
ATOM     31  C   UNL     1      -4.184  -4.294  -1.311  0.00  0.00    +0.108 C 
BRANCH  31  32
ATOM     32  C   UNL     1      -5.099  -3.475  -2.224  0.00  0.00    +0.047 C 
BRANCH  32  33
ATOM     33  C   UNL     1      -6.426  -4.214  -2.412  0.00  0.00    +0.161 C 
BRANCH  33  34
ATOM     34  O   UNL     1      -7.280  -3.450  -3.265  0.00  0.00    -0.383 OA
ATOM     35  C   UNL     1      -8.552  -4.054  -3.506  0.00  0.00    +0.193 C 
ENDBRANCH  33  34
ENDBRANCH  32  33
ENDBRANCH  31  32
ENDBRANCH   4  31
TORSDOF 9
