REMARK  Name = ZINC35684674
REMARK  4 active torsions:
REMARK  status: ('A' for Active; 'I' for Inactive)
REMARK    1  A    between atoms: C_4  and  C_7
REMARK    2  A    between atoms: C_13  and  O_29
REMARK    3  A    between atoms: C_15  and  C_17
REMARK    4  A    between atoms: N_19  and  C_20
REMARK                            x       y       z     vdW  Elec       q    Type
REMARK                         _______ _______ _______ _____ _____    ______ ____
ROOT
ATOM      1  C   UNL     1       3.680  -0.695  -0.028  0.00  0.00    +0.046 A 
ATOM      2  C   UNL     1       4.763  -0.447  -0.897  0.00  0.00    +0.145 A 
ATOM      3  N   UNL     1       5.733  -1.278  -0.603  0.00  0.00    -0.176 NA
ATOM      4  N   UNL     1       5.332  -2.087   0.452  0.00  0.00    -0.234 N 
ATOM      5  C   UNL     1       4.059  -1.723   0.809  0.00  0.00    +0.163 A 
ATOM      6  N   UNL     1       3.387  -2.341   1.819  0.00  0.00    -0.197 NA
ATOM      7  C   UNL     1       4.067  -3.059   2.668  0.00  0.00    +0.191 C 
ATOM      8  C   UNL     1       5.559  -3.202   2.596  0.00  0.00    +0.131 C 
ATOM      9  C   UNL     1       6.054  -3.159   1.143  0.00  0.00    +0.204 C 
ENDROOT
BRANCH   1  13
ATOM     10  C   UNL     1      -0.044   1.354   0.011  0.00  0.00    +0.000 A 
ATOM     11  C   UNL     1       1.138   2.073   0.013  0.00  0.00    +0.001 A 
ATOM     12  C   UNL     1       2.350   1.413  -0.000  0.00  0.00    +0.008 A 
ATOM     13  C   UNL     1       2.382   0.020  -0.014  0.00  0.00    -0.013 A 
ATOM     14  C   UNL     1       1.187  -0.700  -0.015  0.00  0.00    +0.008 A 
ATOM     15  C   UNL     1      -0.019  -0.029  -0.003  0.00  0.00    +0.001 A 
ENDBRANCH   1  13
BRANCH   9  16
ATOM     16  C   UNL     1       5.785  -4.476   0.461  0.00  0.00    +0.242 C 
ATOM     17  O   UNL     1       5.059  -4.519  -0.510  0.00  0.00    -0.273 OA
ATOM     18  N   UNL     1       6.350  -5.606   0.931  0.00  0.00    -0.281 N 
ATOM     19  H   UNL     1       6.992  -5.561   1.656  0.00  0.00    +0.155 HD
BRANCH  18  20
ATOM     20  C   UNL     1       6.010  -6.845   0.371  0.00  0.00    +0.072 A 
ATOM     21  C   UNL     1       4.785  -7.008  -0.262  0.00  0.00    +0.029 A 
ATOM     22  C   UNL     1       4.450  -8.230  -0.814  0.00  0.00    +0.043 A 
ATOM     23  C   UNL     1       5.334  -9.293  -0.736  0.00  0.00    +0.161 A 
ATOM     24  C   UNL     1       6.558  -9.134  -0.104  0.00  0.00    +0.195 A 
ATOM     25  C   UNL     1       6.900  -7.909   0.444  0.00  0.00    +0.182 A 
ATOM     26  F   UNL     1       8.095  -7.752   1.055  0.00  0.00    -0.200 F 
ATOM     27  F   UNL     1       7.419 -10.172  -0.029  0.00  0.00    -0.199 F 
ATOM     28  F   UNL     1       5.003 -10.486  -1.276  0.00  0.00    -0.202 F 
ENDBRANCH  18  20
ENDBRANCH   9  16
BRANCH   7  29
ATOM     29  O   UNL     1       3.402  -3.699   3.652  0.00  0.00    -0.495 OA
ATOM     30  H   UNL     1       2.445  -3.560   3.635  0.00  0.00    +0.293 HD
ENDBRANCH   7  29
TORSDOF 4
