REMARK  Name = ZINC37414461
REMARK  2 active torsions:
REMARK  status: ('A' for Active; 'I' for Inactive)
REMARK    1  A    between atoms: C_5  and  C_6
REMARK    2  A    between atoms: C_18  and  C_20
REMARK                            x       y       z     vdW  Elec       q    Type
REMARK                         _______ _______ _______ _____ _____    ______ ____
ROOT
ATOM      1  C   UNL     1      -1.123  -0.943   0.008  0.00  0.00    +0.254 C 
ATOM      2  O   UNL     1      -2.260  -0.528   0.135  0.00  0.00    -0.269 OA
ATOM      3  N   UNL     1      -0.896  -2.266  -0.103  0.00  0.00    -0.280 N 
ATOM      4  C   UNL     1      -1.904  -3.308  -0.220  0.00  0.00    +0.080 C 
ATOM      5  C   UNL     1      -3.236  -3.080   0.462  0.00  0.00    +0.023 C 
ATOM      6  C   UNL     1      -4.123  -4.298   0.155  0.00  0.00    +0.002 C 
ATOM      7  C   UNL     1      -3.465  -5.595   0.615  0.00  0.00    +0.000 C 
ATOM      8  C   UNL     1      -2.060  -5.758   0.014  0.00  0.00    +0.005 C 
ATOM      9  C   UNL     1      -1.251  -4.544   0.457  0.00  0.00    +0.012 C 
ATOM     10  C   UNL     1       0.164  -4.465  -0.138  0.00  0.00    +0.039 C 
ATOM     11  C   UNL     1       0.427  -2.934  -0.135  0.00  0.00    +0.190 C 
ENDROOT
BRANCH   1  16
ATOM     12  C   UNL     1       0.000   1.367   0.199  0.00  0.00    +0.022 A 
ATOM     13  C   UNL     1       1.222   1.988   0.099  0.00  0.00    +0.028 A 
ATOM     14  C   UNL     1       2.317   1.244  -0.203  0.00  0.00    +0.079 A 
ATOM     15  S   UNL     1       1.722  -0.319  -0.360  0.00  0.00    -0.072 S 
ATOM     16  C   UNL     1       0.000  -0.002  -0.024  0.00  0.00    +0.075 A 
ATOM     17 CL   UNL     1       3.956   1.785  -0.386  0.00  0.00    -0.076 Cl
ENDBRANCH   1  16
BRANCH  11  18
ATOM     18  C   UNL     1       1.223  -2.555   1.088  0.00  0.00    +0.376 C 
ATOM     19  O   UNL     1       0.693  -1.929   1.990  0.00  0.00    -0.244 OA
ATOM     20  O   UNL     1       2.396  -2.874   1.174  0.00  0.00    -0.244 OA
ENDBRANCH  11  18
TORSDOF 2
