REMARK  Name = ZINC04284958
REMARK  5 active torsions:
REMARK  status: ('A' for Active; 'I' for Inactive)
REMARK    1  A    between atoms: C_1  and  N_2
REMARK    2  A    between atoms: C_4  and  C_11
REMARK    3  A    between atoms: C_5  and  C_7
REMARK    4  A    between atoms: N_12  and  N_13
REMARK    5  A    between atoms: N_13  and  C_14
REMARK                            x       y       z     vdW  Elec       q    Type
REMARK                         _______ _______ _______ _____ _____    ______ ____
ROOT
ATOM      1  C   UNL     1      -3.587   2.922   3.188  0.00  0.00    +0.174 C 
ATOM      2  N   UNL     1      -2.271   2.554   2.663  0.00  0.00    -0.255 N 
ATOM      3  C   UNL     1      -1.111   2.576   3.351  0.00  0.00    +0.136 A 
ATOM      4  C   UNL     1      -0.115   2.158   2.493  0.00  0.00    +0.063 A 
ATOM      5  C   UNL     1      -0.722   1.881   1.250  0.00  0.00    +0.175 A 
ATOM      6  N   UNL     1      -2.001   2.124   1.358  0.00  0.00    -0.165 NA
ATOM      7 CL   UNL     1      -0.909   3.042   5.011  0.00  0.00    -0.062 Cl
ENDROOT
BRANCH   5   8
ATOM      8  C   UNL     1      -0.017   1.395   0.010  0.00  0.00    +0.437 C 
ATOM      9  F   UNL     1       0.002  -0.004   0.002  0.00  0.00    -0.164 F 
ATOM     10  F   UNL     1       1.296   1.879  -0.000  0.00  0.00    -0.164 F 
ATOM     11  F   UNL     1      -0.694   1.858  -1.124  0.00  0.00    -0.164 F 
ENDBRANCH   5   8
BRANCH   4  12
ATOM     12  C   UNL     1       1.320   2.027   2.815  0.00  0.00    +0.143 C 
ATOM     13  N   UNL     1       1.746   2.317   4.005  0.00  0.00    -0.190 NA
BRANCH  13  14
ATOM     14  N   UNL     1       3.108   2.193   4.311  0.00  0.00    -0.238 N 
ATOM     15  H   UNL     1       3.732   1.889   3.633  0.00  0.00    +0.174 HD
BRANCH  14  16
ATOM     16  C   UNL     1       3.567   2.505   5.591  0.00  0.00    +0.048 A 
ATOM     17  C   UNL     1       2.676   2.945   6.562  0.00  0.00    +0.025 A 
ATOM     18  C   UNL     1       3.133   3.248   7.830  0.00  0.00    +0.002 A 
ATOM     19  C   UNL     1       4.478   3.125   8.129  0.00  0.00    +0.000 A 
ATOM     20  C   UNL     1       5.368   2.692   7.164  0.00  0.00    +0.002 A 
ATOM     21  C   UNL     1       4.918   2.382   5.896  0.00  0.00    +0.025 A 
ENDBRANCH  14  16
ENDBRANCH  13  14
ENDBRANCH   4  12
TORSDOF 4
