REMARK  Name = ZINC20673918
REMARK  3 active torsions:
REMARK  status: ('A' for Active; 'I' for Inactive)
REMARK    1  A    between atoms: C_1  and  C_2
REMARK    2  A    between atoms: C_2  and  C_3
REMARK    3  A    between atoms: C_6  and  C_9
REMARK                            x       y       z     vdW  Elec       q    Type
REMARK                         _______ _______ _______ _____ _____    ______ ____
ROOT
ATOM      1  C   UNL     1       2.368   3.857   0.005  0.00  0.00    +0.092 C 
ATOM      2  C   UNL     1       1.101   3.054   0.007  0.00  0.00    +0.069 A 
ATOM      3  C   UNL     1       1.149   1.655   0.000  0.00  0.00    +0.259 A 
ATOM      4  O   UNL     1       2.221   1.070  -0.013  0.00  0.00    -0.267 OA
ATOM      5  N   UNL     1      -0.011   0.966   0.007  0.00  0.00    -0.295 N 
ATOM      6  H   UNL     1       0.002  -0.134   0.006  0.00  0.00    +0.172 HD
ATOM      7  C   UNL     1      -1.200   1.629   0.017  0.00  0.00    +0.200 A 
ATOM      8  N   UNL     1      -1.251   2.944   0.028  0.00  0.00    -0.200 NA
ATOM      9  C   UNL     1      -0.133   3.679   0.020  0.00  0.00    +0.136 A 
ATOM     10  N   UNL     1      -0.202   5.058   0.021  0.00  0.00    -0.302 N 
ATOM     11  C   UNL     1       0.870   5.809  -0.381  0.00  0.00    +0.017 C 
ATOM     12  C   UNL     1       2.111   5.283  -0.416  0.00  0.00    +0.024 C 
ATOM     13  C   UNL     1       3.211   6.048  -0.844  0.00  0.00    +0.162 C 
ATOM     14  O   UNL     1       4.318   5.547  -0.854  0.00  0.00    -0.292 OA
ATOM     15  C   UNL     1       3.043   7.475  -1.289  0.00  0.00    +0.080 C 
ATOM     16  C   UNL     1       1.631   7.659  -1.853  0.00  0.00    +0.014 C 
ATOM     17  C   UNL     1       0.623   7.244  -0.779  0.00  0.00    +0.051 C 
ATOM     18  N   UNL     1      -2.366   0.912   0.020  0.00  0.00    -0.301 N 
ATOM     19  C   UNL     1      -2.367  -0.097  -1.047  0.00  0.00    +0.108 C 
ATOM     20  C   UNL     1      -3.617  -0.972  -0.923  0.00  0.00    +0.019 C 
ATOM     21  C   UNL     1      -4.864  -0.089  -1.029  0.00  0.00    +0.003 C 
ATOM     22  C   UNL     1      -4.815   0.983   0.063  0.00  0.00    +0.019 C 
ATOM     23  C   UNL     1      -3.530   1.801  -0.090  0.00  0.00    +0.108 C 
ATOM     24  H   UNL     1      -1.123   5.563   0.346  0.00  0.00    +0.153 HD
ENDROOT
BRANCH   1  28
ATOM     25  C   UNL     1       4.045   3.837   3.933  0.00  0.00    -0.048 A 
ATOM     26  C   UNL     1       4.767   3.328   2.871  0.00  0.00    +0.004 A 
ATOM     27  C   UNL     1       4.224   3.334   1.599  0.00  0.00    +0.005 A 
ATOM     28  C   UNL     1       2.959   3.850   1.391  0.00  0.00    -0.035 A 
ATOM     29  C   UNL     1       2.239   4.365   2.452  0.00  0.00    +0.005 A 
ATOM     30  C   UNL     1       2.780   4.354   3.724  0.00  0.00    +0.004 A 
BRANCH  25  32
ATOM     31  C   UNL     1       5.407   5.133   5.551  0.00  0.00    +0.009 C 
ATOM     32  C   UNL     1       4.637   3.831   5.319  0.00  0.00    +0.032 C 
ENDBRANCH  25  32
ENDBRANCH   1  28
TORSDOF 2
