REMARK  Name = ZINC49741107
REMARK  5 active torsions:
REMARK  status: ('A' for Active; 'I' for Inactive)
REMARK    1  A    between atoms: C_1  and  C_2
REMARK    2  A    between atoms: C_5  and  O_8
REMARK    3  A    between atoms: O_8  and  C_9
REMARK    4  A    between atoms: C_9  and  C_10
REMARK    5  A    between atoms: N_12  and  C_13
REMARK                            x       y       z     vdW  Elec       q    Type
REMARK                         _______ _______ _______ _____ _____    ______ ____
ROOT
ATOM      1  C   UNL     1       0.033  -8.496   1.972  0.00  0.00    +0.034 A 
ATOM      2  C   UNL     1       0.045  -9.076   0.710  0.00  0.00    +0.025 A 
ATOM      3  C   UNL     1      -0.028 -10.446   0.573  0.00  0.00    +0.025 A 
ATOM      4  C   UNL     1      -0.114 -11.260   1.700  0.00  0.00    +0.038 A 
ATOM      5  C   UNL     1      -0.124 -10.672   2.961  0.00  0.00    -0.009 A 
ATOM      6  C   UNL     1      -0.047  -9.304   3.099  0.00  0.00    +0.029 A 
ATOM      7  C   UNL     1      -0.220 -11.805   3.946  0.00  0.00    +0.074 C 
ATOM      8  C   UNL     1      -1.482 -11.680   4.811  0.00  0.00    +0.021 C 
ATOM      9  C   UNL     1      -1.042 -12.218   6.197  0.00  0.00    +0.001 C 
ATOM     10  C   UNL     1       0.413 -11.698   6.322  0.00  0.00    +0.001 C 
ATOM     11  C   UNL     1       0.984 -11.821   4.893  0.00  0.00    +0.021 C 
ATOM     12  C   UNL     1      -0.265 -13.050   3.100  0.00  0.00    +0.228 C 
ATOM     13  O   UNL     1      -0.344 -14.193   3.500  0.00  0.00    -0.274 OA
ATOM     14  N   UNL     1      -0.199 -12.651   1.816  0.00  0.00    -0.284 N 
ATOM     15  H   UNL     1      -0.209 -13.258   1.060  0.00  0.00    +0.155 HD
ENDROOT
BRANCH   1  18
ATOM     16  C   UNL     1      -0.493  -6.306   1.202  0.00  0.00    +0.255 C 
ATOM     17  O   UNL     1      -1.024  -6.790   0.224  0.00  0.00    -0.272 OA
ATOM     18  N   UNL     1       0.106  -7.104   2.108  0.00  0.00    -0.283 N 
ATOM     19  H   UNL     1       0.588  -6.714   2.854  0.00  0.00    +0.155 HD
BRANCH  16  20
ATOM     20  C   UNL     1      -0.505  -4.813   1.403  0.00  0.00    +0.324 C 
BRANCH  20  21
ATOM     21  O   UNL     1      -1.194  -4.191   0.317  0.00  0.00    -0.483 OA
BRANCH  21  26
ATOM     22  C   UNL     1      -1.614   1.425   0.436  0.00  0.00    +0.044 C 
ATOM     23  C   UNL     1      -1.501  -0.078   0.404  0.00  0.00    -0.050 A 
ATOM     24  C   UNL     1      -2.053  -0.789  -0.645  0.00  0.00    +0.007 A 
ATOM     25  C   UNL     1      -1.952  -2.166  -0.677  0.00  0.00    +0.046 A 
ATOM     26  C   UNL     1      -1.295  -2.836   0.346  0.00  0.00    +0.121 A 
ATOM     27  C   UNL     1      -0.742  -2.120   1.397  0.00  0.00    +0.046 A 
ATOM     28  C   UNL     1      -0.842  -0.742   1.421  0.00  0.00    +0.007 A 
ENDBRANCH  21  26
ENDBRANCH  20  21
ENDBRANCH  16  20
ENDBRANCH   1  18
TORSDOF 4
