REMARK  Name = ZINC59001449
REMARK  5 active torsions:
REMARK  status: ('A' for Active; 'I' for Inactive)
REMARK    1  A    between atoms: C_9  and  C_12
REMARK    2  A    between atoms: C_12  and  N_13
REMARK    3  A    between atoms: C_14  and  C_16
REMARK    4  A    between atoms: C_16  and  N_17
REMARK    5  A    between atoms: C_20  and  C_23
REMARK                            x       y       z     vdW  Elec       q    Type
REMARK                         _______ _______ _______ _____ _____    ______ ____
ROOT
ATOM      1  N   UNL     1       9.680  -2.336  -0.966  0.00  0.00    +0.388 N 
ATOM      2  C   UNL     1      10.785  -1.599  -1.598  0.00  0.00    -0.073 C 
ATOM      3  C   UNL     1      12.106  -2.103  -1.011  0.00  0.00    +0.017 C 
ATOM      4  C   UNL     1      12.140  -3.606  -1.063  0.00  0.00    -0.046 C 
ATOM      5  C   UNL     1      11.055  -4.329  -1.255  0.00  0.00    -0.041 C 
ATOM      6  C   UNL     1       9.694  -3.723  -1.445  0.00  0.00    -0.050 C 
ATOM      7  H   UNL     1       9.793  -2.324   0.037  0.00  0.00    -0.081 HD
ENDROOT
BRANCH   4   8
ATOM      8  C   UNL     1      13.433  -4.296  -0.892  0.00  0.00    +0.003 A 
ATOM      9  C   UNL     1      14.433  -4.382  -1.807  0.00  0.00    +0.091 A 
ATOM     10  N   UNL     1      15.472  -5.098  -1.287  0.00  0.00    -0.360 N 
ATOM     11  H   UNL     1      16.300  -5.293  -1.754  0.00  0.00    +0.165 HD
ATOM     12  C   UNL     1      15.176  -5.504  -0.004  0.00  0.00    +0.050 A 
ATOM     13  C   UNL     1      13.894  -5.019   0.306  0.00  0.00    +0.007 A 
ATOM     14  C   UNL     1      13.332  -5.277   1.555  0.00  0.00    +0.013 A 
ATOM     15  C   UNL     1      14.040  -6.005   2.484  0.00  0.00    +0.039 A 
ATOM     16  C   UNL     1      15.309  -6.483   2.182  0.00  0.00    +0.125 A 
ATOM     17  C   UNL     1      15.874  -6.243   0.946  0.00  0.00    +0.064 A 
ATOM     18  F   UNL     1      15.993  -7.196   3.103  0.00  0.00    -0.205 F 
ENDBRANCH   4   8
BRANCH   1  19
ATOM     19  C   UNL     1       8.401  -1.706  -1.323  0.00  0.00    +0.019 C 
BRANCH  19  21
ATOM     20  N   UNL     1       6.008  -1.982  -0.760  0.00  0.00    -0.313 N 
ATOM     21  C   UNL     1       7.280  -2.393  -0.587  0.00  0.00    +0.197 C 
ATOM     22  O   UNL     1       7.522  -3.317   0.162  0.00  0.00    -0.278 OA
ATOM     23  H   UNL     1       5.815  -1.243  -1.358  0.00  0.00    +0.149 HD
BRANCH  20  24
ATOM     24  C   UNL     1       4.918  -2.649  -0.044  0.00  0.00    +0.152 C 
BRANCH  24  33
ATOM     25  C   UNL     1      -0.017   1.378   0.010  0.00  0.00    +0.004 A 
ATOM     26  C   UNL     1       1.170   2.088   0.002  0.00  0.00    +0.004 A 
ATOM     27  C   UNL     1       2.378   1.418  -0.012  0.00  0.00    +0.049 A 
ATOM     28  C   UNL     1       2.404   0.031  -0.019  0.00  0.00    +0.163 A 
ATOM     29  C   UNL     1       1.212  -0.683  -0.014  0.00  0.00    +0.162 A 
ATOM     30  C   UNL     1       0.002  -0.004   0.002  0.00  0.00    +0.049 A 
ATOM     31  O   UNL     1       1.214  -2.043  -0.029  0.00  0.00    -0.485 OA
ATOM     32  C   UNL     1       2.441  -2.689   0.331  0.00  0.00    +0.275 C 
ATOM     33  C   UNL     1       3.587  -1.993  -0.416  0.00  0.00    +0.228 C 
ATOM     34  O   UNL     1       3.602  -0.615  -0.029  0.00  0.00    -0.480 OA
ENDBRANCH  24  33
ENDBRANCH  20  24
ENDBRANCH  19  21
ENDBRANCH   1  19
TORSDOF 5
