REMARK  Name = ZINC46425804
REMARK  7 active torsions:
REMARK  status: ('A' for Active; 'I' for Inactive)
REMARK    1  A    between atoms: C_1  and  C_2
REMARK    2  A    between atoms: C_5  and  C_32
REMARK    3  A    between atoms: N_8  and  C_10
REMARK    4  A    between atoms: C_10  and  C_11
REMARK    5  A    between atoms: C_11  and  C_12
REMARK    6  A    between atoms: C_12  and  N_13
REMARK    7  A    between atoms: C_19  and  C_22
REMARK                            x       y       z     vdW  Elec       q    Type
REMARK                         _______ _______ _______ _____ _____    ______ ____
ROOT
ATOM      1  N   UNL     1       5.198  -2.113   3.295  0.00  0.00    -0.299 N 
ATOM      2  C   UNL     1       6.100  -2.446   4.238  0.00  0.00    +0.302 C 
ATOM      3  O   UNL     1       5.739  -3.011   5.253  0.00  0.00    -0.253 OA
ATOM      4  N   UNL     1       7.404  -2.153   4.058  0.00  0.00    -0.282 N 
ATOM      5  C   UNL     1       8.429  -2.603   5.015  0.00  0.00    +0.114 C 
ATOM      6  C   UNL     1       9.389  -3.538   4.274  0.00  0.00    +0.054 C 
ATOM      7  C   UNL     1       9.773  -2.950   2.949  0.00  0.00    -0.039 C 
ATOM      8  C   UNL     1       9.101  -2.004   2.335  0.00  0.00    -0.004 C 
ATOM      9  C   UNL     1       7.859  -1.377   2.896  0.00  0.00    +0.137 C 
ATOM     10  H   UNL     1       5.473  -1.598   2.521  0.00  0.00    +0.150 HD
ENDROOT
BRANCH   7  11
ATOM     11  C   UNL     1      10.987  -3.470   2.290  0.00  0.00    +0.005 A 
ATOM     12  C   UNL     1      12.274  -3.209   2.637  0.00  0.00    +0.093 A 
ATOM     13  N   UNL     1      13.121  -3.871   1.795  0.00  0.00    -0.345 N 
ATOM     14  H   UNL     1      14.089  -3.839   1.845  0.00  0.00    +0.167 HD
ATOM     15  C   UNL     1      12.406  -4.589   0.865  0.00  0.00    +0.139 A 
ATOM     16  C   UNL     1      11.042  -4.378   1.133  0.00  0.00    +0.026 A 
ATOM     17  C   UNL     1      10.080  -4.998   0.337  0.00  0.00    +0.013 A 
ATOM     18  C   UNL     1      10.515  -5.809  -0.695  0.00  0.00    +0.020 A 
ATOM     19  C   UNL     1      11.875  -5.976  -0.902  0.00  0.00    +0.113 A 
ATOM     20  N   UNL     1      12.766  -5.375  -0.142  0.00  0.00    -0.237 NA
ENDBRANCH   7  11
BRANCH   1  21
ATOM     21  C   UNL     1       3.801  -2.530   3.438  0.00  0.00    +0.104 C 
BRANCH  21  22
ATOM     22  C   UNL     1       2.993  -2.026   2.240  0.00  0.00    +0.000 C 
BRANCH  22  23
ATOM     23  C   UNL     1       1.534  -2.461   2.389  0.00  0.00    -0.077 C 
BRANCH  23  29
ATOM     24  C   UNL     1      -0.022   1.530   0.019  0.00  0.00    +0.005 C 
ATOM     25  C   UNL     1       0.000   0.000   0.007  0.00  0.00    -0.031 C 
ATOM     26  C   UNL     1      -1.436  -0.532   0.019  0.00  0.00    +0.003 C 
ATOM     27  C   UNL     1      -1.402  -2.062   0.086  0.00  0.00    -0.031 C 
ATOM     28  C   UNL     1      -0.613  -2.495   1.323  0.00  0.00    -0.076 C 
ATOM     29  N   UNL     1       0.758  -1.978   1.239  0.00  0.00    +0.380 N 
ATOM     30  C   UNL     1       0.739  -0.510   1.247  0.00  0.00    -0.076 C 
ATOM     31  C   UNL     1      -2.831  -2.601   0.176  0.00  0.00    +0.005 C 
ATOM     32  H   UNL     1       1.188  -2.302   0.386  0.00  0.00    -0.082 HD
ENDBRANCH  23  29
ENDBRANCH  22  23
ENDBRANCH  21  22
ENDBRANCH   1  21
TORSDOF 5
