REMARK  Name = ZINC27668931
REMARK  13 active torsions:
REMARK  status: ('A' for Active; 'I' for Inactive)
REMARK    1  A    between atoms: C_1  and  C_2
REMARK    2  A    between atoms: C_2  and  C_3
REMARK    3  A    between atoms: C_3  and  C_5
REMARK    4  A    between atoms: C_3  and  N_6
REMARK    5  A    between atoms: N_6  and  S_7
REMARK    6  A    between atoms: S_7  and  C_10
REMARK    7  A    between atoms: C_13  and  C_16
REMARK    8  A    between atoms: N_18  and  C_19
REMARK    9  A    between atoms: C_19  and  C_20
REMARK   10  A    between atoms: C_20  and  C_22
REMARK   11  A    between atoms: C_20  and  N_30
REMARK   12  A    between atoms: C_25  and  O_28
REMARK   13  A    between atoms: O_28  and  C_29
REMARK                            x       y       z     vdW  Elec       q    Type
REMARK                         _______ _______ _______ _____ _____    ______ ____
ROOT
ATOM      1  C   UNL     1      -3.145   2.647   3.755  0.00  0.00    +0.244 C 
ATOM      2  O   UNL     1      -2.721   3.569   4.424  0.00  0.00    -0.270 OA
ATOM      3  N   UNL     1      -2.286   1.825   3.119  0.00  0.00    -0.313 N 
ATOM      4  H   UNL     1      -2.670   0.990   2.514  0.00  0.00    +0.149 HD
ENDROOT
BRANCH   1   8
ATOM      5  C   UNL     1      -7.332   2.015   3.418  0.00  0.00    +0.105 A 
ATOM      6  C   UNL     1      -6.853   3.066   4.180  0.00  0.00    +0.029 A 
ATOM      7  C   UNL     1      -5.494   3.276   4.294  0.00  0.00    +0.015 A 
ATOM      8  C   UNL     1      -4.602   2.427   3.637  0.00  0.00    +0.037 A 
ATOM      9  C   UNL     1      -5.092   1.372   2.865  0.00  0.00    +0.015 A 
ATOM     10  C   UNL     1      -6.453   1.169   2.764  0.00  0.00    +0.029 A 
BRANCH   5  11
ATOM     11  S   UNL     1      -9.069   1.753   3.279  0.00  0.00    +0.059 S 
ATOM     12  O   UNL     1      -9.248   0.381   2.954  0.00  0.00    -0.153 OA
ATOM     13  O   UNL     1      -9.662   2.349   4.424  0.00  0.00    -0.153 OA
BRANCH  11  14
ATOM     14  N   UNL     1      -9.592   2.621   1.969  0.00  0.00    -0.187 NA
ATOM     15  H   UNL     1     -10.149   3.555   2.131  0.00  0.00    +0.148 HD
BRANCH  14  16
ATOM     16  C   UNL     1      -9.130   2.267   0.624  0.00  0.00    +0.073 C 
ATOM     17  C   UNL     1     -10.154   1.343  -0.039  0.00  0.00    +0.025 C 
BRANCH  16  19
ATOM     18  C   UNL     1      -7.862   4.405   0.382  0.00  0.00    +0.005 C 
ATOM     19  C   UNL     1      -8.973   3.538  -0.212  0.00  0.00    +0.017 C 
ENDBRANCH  16  19
ENDBRANCH  14  16
ENDBRANCH  11  14
ENDBRANCH   5  11
ENDBRANCH   1   8
BRANCH   3  20
ATOM     20  C   UNL     1      -0.842   2.042   3.235  0.00  0.00    +0.094 C 
BRANCH  20  21
ATOM     21  C   UNL     1      -0.099   0.979   2.425  0.00  0.00    -0.020 C 
BRANCH  21  22
ATOM     22  N   UNL     1      -0.584   0.992   1.038  0.00  0.00    +0.385 N 
ATOM     23  C   UNL     1       0.033  -0.085   0.254  0.00  0.00    -0.078 C 
ATOM     24  C   UNL     1      -0.600  -0.132  -1.138  0.00  0.00    -0.019 C 
ATOM     25  C   UNL     1      -0.391   1.215  -1.834  0.00  0.00    -0.004 C 
ATOM     26  C   UNL     1      -1.000   2.326  -0.974  0.00  0.00    -0.019 C 
ATOM     27  C   UNL     1      -0.355   2.301   0.414  0.00  0.00    -0.078 C 
ATOM     28  H   UNL     1      -1.669   0.814   1.056  0.00  0.00    -0.081 HD
ENDBRANCH  21  22
BRANCH  21  29
ATOM     29  C   UNL     1       1.379   1.274   2.443  0.00  0.00    -0.059 A 
ATOM     30  C   UNL     1       1.833   2.542   2.131  0.00  0.00    +0.005 A 
ATOM     31  C   UNL     1       3.186   2.817   2.153  0.00  0.00    +0.046 A 
ATOM     32  C   UNL     1       4.091   1.817   2.477  0.00  0.00    +0.120 A 
ATOM     33  C   UNL     1       3.633   0.544   2.784  0.00  0.00    +0.046 A 
ATOM     34  C   UNL     1       2.278   0.275   2.767  0.00  0.00    +0.005 A 
BRANCH  32  35
ATOM     35  O   UNL     1       5.424   2.083   2.492  0.00  0.00    -0.495 OA
ATOM     36  C   UNL     1       5.823   3.416   2.165  0.00  0.00    +0.277 C 
ENDBRANCH  32  35
ENDBRANCH  21  29
ENDBRANCH  20  21
ENDBRANCH   3  20
TORSDOF 10
