REMARK  Name = ZINC40376916
REMARK  8 active torsions:
REMARK  status: ('A' for Active; 'I' for Inactive)
REMARK    1  A    between atoms: C_1  and  C_2
REMARK    2  A    between atoms: C_2  and  C_3
REMARK    3  A    between atoms: C_3  and  C_4
REMARK    4  A    between atoms: C_4  and  C_6
REMARK    5  A    between atoms: C_4  and  N_10
REMARK    6  A    between atoms: N_7  and  O_8
REMARK    7  A    between atoms: N_10  and  S_11
REMARK    8  A    between atoms: S_11  and  C_14
REMARK                            x       y       z     vdW  Elec       q    Type
REMARK                         _______ _______ _______ _____ _____    ______ ____
ROOT
ATOM      1  C   UNL     1      -1.413  -2.063   0.004  0.00  0.00    +0.143 C 
ENDROOT
BRANCH   1   2
ATOM      2  C   UNL     1      -2.820  -2.586   0.139  0.00  0.00    +0.150 C 
ATOM      3  N   UNL     1      -3.564  -2.713  -0.909  0.00  0.00    -0.075 NA
ATOM      4  N   UNL     1      -3.312  -2.927   1.379  0.00  0.00    -0.343 N 
ATOM      5  H   UNL     1      -2.753  -2.831   2.166  0.00  0.00    +0.144 HD
ATOM      6  H   UNL     1      -4.218  -3.263   1.466  0.00  0.00    +0.144 HD
BRANCH   3   7
ATOM      7  O   UNL     1      -4.886  -3.204  -0.783  0.00  0.00    -0.408 OA
ATOM      8  H   UNL     1      -5.365  -3.264  -1.621  0.00  0.00    +0.328 HD
ENDBRANCH   3   7
ENDBRANCH   1   2
BRANCH   1   9
ATOM      9  N   UNL     1      -0.834  -2.537  -1.256  0.00  0.00    -0.179 NA
ATOM     10  H   UNL     1      -0.995  -2.048  -2.077  0.00  0.00    +0.149 HD
BRANCH   9  11
ATOM     11  S   UNL     1       0.094  -3.908  -1.277  0.00  0.00    +0.065 S 
ATOM     12  O   UNL     1       0.480  -4.117  -2.628  0.00  0.00    -0.153 OA
ATOM     13  O   UNL     1       1.042  -3.773  -0.226  0.00  0.00    -0.153 OA
BRANCH  11  14
ATOM     14  C   UNL     1      -0.955  -5.255  -0.839  0.00  0.00    +0.144 A 
ATOM     15  C   UNL     1      -1.696  -6.055  -1.642  0.00  0.00    +0.038 A 
ATOM     16  C   UNL     1      -2.453  -7.062  -1.072  0.00  0.00    +0.030 A 
ATOM     17  C   UNL     1      -2.431  -7.217   0.275  0.00  0.00    +0.080 A 
ATOM     18  S   UNL     1      -1.310  -5.922   0.778  0.00  0.00    -0.057 S 
ATOM     19 CL   UNL     1      -3.270  -8.379   1.256  0.00  0.00    -0.076 Cl
ENDBRANCH  11  14
ENDBRANCH   9  11
ENDBRANCH   1   9
BRANCH   1  20
ATOM     20  C   UNL     1      -1.433  -0.534   0.013  0.00  0.00    +0.028 C 
BRANCH  20  22
ATOM     21  C   UNL     1      -0.019   1.526   0.010  0.00  0.00    +0.004 C 
ATOM     22  C   UNL     1       0.002  -0.004   0.002  0.00  0.00    -0.001 C 
ENDBRANCH  20  22
ENDBRANCH   1  20
TORSDOF 7
