REMARK  Name = ZINC39898561
REMARK  11 active torsions:
REMARK  status: ('A' for Active; 'I' for Inactive)
REMARK    1  A    between atoms: C_1  and  C_2
REMARK    2  A    between atoms: C_2  and  C_3
REMARK    3  A    between atoms: C_3  and  C_4
REMARK    4  A    between atoms: C_4  and  C_5
REMARK    5  A    between atoms: C_5  and  N_6
REMARK    6  A    between atoms: C_7  and  C_25
REMARK    7  A    between atoms: C_10  and  C_17
REMARK    8  A    between atoms: C_22  and  O_23
REMARK    9  A    between atoms: C_28  and  O_31
REMARK   10  A    between atoms: O_31  and  C_32
REMARK   11  A    between atoms: C_32  and  C_33
REMARK                            x       y       z     vdW  Elec       q    Type
REMARK                         _______ _______ _______ _____ _____    ______ ____
ROOT
ATOM      1  N   UNL     1       1.523  -4.012   2.465  0.00  0.00    -0.285 N 
ATOM      2  C   UNL     1       0.506  -4.890   3.060  0.00  0.00    +0.141 C 
ATOM      3  C   UNL     1       0.965  -6.298   2.795  0.00  0.00    +0.035 A 
ATOM      4  C   UNL     1       0.717  -7.667   2.943  0.00  0.00    +0.102 A 
ATOM      5  N   UNL     1       1.710  -8.312   2.365  0.00  0.00    -0.173 NA
ATOM      6  N   UNL     1       2.561  -7.487   1.866  0.00  0.00    -0.272 N 
ATOM      7  H   UNL     1       3.370  -7.739   1.394  0.00  0.00    +0.189 HD
ATOM      8  C   UNL     1       2.155  -6.204   2.100  0.00  0.00    +0.126 A 
ATOM      9  C   UNL     1       2.472  -4.785   1.906  0.00  0.00    +0.265 C 
ATOM     10  O   UNL     1       3.454  -4.365   1.324  0.00  0.00    -0.268 OA
ENDROOT
BRANCH   4  11
ATOM     11  C   UNL     1      -0.450  -8.279   3.626  0.00  0.00    +0.045 A 
ATOM     12  C   UNL     1      -1.433  -7.471   4.191  0.00  0.00    +0.033 A 
ATOM     13  C   UNL     1      -2.517  -8.045   4.825  0.00  0.00    +0.042 A 
ATOM     14  C   UNL     1      -2.630  -9.424   4.901  0.00  0.00    +0.023 A 
ATOM     15  C   UNL     1      -1.659 -10.234   4.343  0.00  0.00    +0.047 A 
ATOM     16  C   UNL     1      -0.570  -9.669   3.699  0.00  0.00    +0.126 A 
ATOM     17 CL   UNL     1      -3.742  -7.037   5.530  0.00  0.00    -0.084 Cl
BRANCH  16  18
ATOM     18  O   UNL     1       0.382 -10.466   3.145  0.00  0.00    -0.506 OA
ATOM     19  H   UNL     1       1.103 -10.694   3.748  0.00  0.00    +0.292 HD
ENDBRANCH  16  18
ENDBRANCH   4  11
BRANCH   2  20
ATOM     20  C   UNL     1       0.413  -4.644   4.543  0.00  0.00    -0.022 A 
ATOM     21  C   UNL     1       1.562  -4.425   5.280  0.00  0.00    +0.009 A 
ATOM     22  C   UNL     1       1.480  -4.199   6.641  0.00  0.00    +0.046 A 
ATOM     23  C   UNL     1       0.242  -4.192   7.267  0.00  0.00    +0.121 A 
ATOM     24  C   UNL     1      -0.910  -4.412   6.526  0.00  0.00    +0.046 A 
ATOM     25  C   UNL     1      -0.822  -4.632   5.165  0.00  0.00    +0.009 A 
BRANCH  23  26
ATOM     26  O   UNL     1       0.158  -3.971   8.606  0.00  0.00    -0.487 OA
BRANCH  26  27
ATOM     27  C   UNL     1      -1.149  -3.978   9.184  0.00  0.00    +0.264 C 
BRANCH  27  28
ATOM     28  C   UNL     1      -1.045  -3.718  10.664  0.00  0.00    -0.010 A 
ATOM     29  C   UNL     1      -0.897  -4.774  11.543  0.00  0.00    +0.007 A 
ATOM     30  C   UNL     1      -0.801  -4.535  12.901  0.00  0.00    +0.000 A 
ATOM     31  C   UNL     1      -0.854  -3.240  13.381  0.00  0.00    +0.000 A 
ATOM     32  C   UNL     1      -1.001  -2.183  12.502  0.00  0.00    +0.000 A 
ATOM     33  C   UNL     1      -1.092  -2.422  11.143  0.00  0.00    +0.007 A 
ENDBRANCH  27  28
ENDBRANCH  26  27
ENDBRANCH  23  26
ENDBRANCH   2  20
BRANCH   1  34
ATOM     34  C   UNL     1       1.503  -2.548   2.473  0.00  0.00    +0.109 C 
BRANCH  34  35
ATOM     35  C   UNL     1       0.763  -2.041   1.233  0.00  0.00    +0.019 C 
BRANCH  35  36
ATOM     36  C   UNL     1       0.742  -0.511   1.242  0.00  0.00    +0.001 C 
BRANCH  36  38
ATOM     37  C   UNL     1      -0.019   1.526   0.010  0.00  0.00    +0.004 C 
ATOM     38  C   UNL     1       0.002  -0.004   0.002  0.00  0.00    -0.003 C 
ENDBRANCH  36  38
ENDBRANCH  35  36
ENDBRANCH  34  35
ENDBRANCH   1  34
TORSDOF 10
