REMARK  Name = ZINC14623389
REMARK  13 active torsions:
REMARK  status: ('A' for Active; 'I' for Inactive)
REMARK    1  A    between atoms: C_1  and  C_2
REMARK    2  A    between atoms: C_2  and  C_3
REMARK    3  A    between atoms: C_3  and  C_4
REMARK    4  A    between atoms: C_4  and  N_5
REMARK    5  A    between atoms: C_6  and  N_33
REMARK    6  A    between atoms: C_7  and  N_14
REMARK    7  A    between atoms: N_14  and  C_15
REMARK    8  A    between atoms: C_15  and  C_16
REMARK    9  A    between atoms: C_16  and  C_17
REMARK   10  A    between atoms: C_17  and  C_18
REMARK   11  A    between atoms: C_17  and  C_19
REMARK   12  A    between atoms: C_20  and  C_22
REMARK   13  A    between atoms: C_29  and  C_32
REMARK                            x       y       z     vdW  Elec       q    Type
REMARK                         _______ _______ _______ _____ _____    ______ ____
ROOT
ATOM      1  N   UNL     1      -0.916   2.314   5.948  0.00  0.00    -0.260 N 
ATOM      2  C   UNL     1      -1.750   2.758   4.988  0.00  0.00    +0.258 C 
ATOM      3  O   UNL     1      -2.839   3.212   5.290  0.00  0.00    -0.269 OA
ENDROOT
BRANCH   2   4
ATOM      4  C   UNL     1      -1.348   2.695   3.580  0.00  0.00    +0.075 A 
ATOM      5  C   UNL     1      -2.089   2.980   2.446  0.00  0.00    +0.024 A 
ATOM      6  C   UNL     1      -1.474   2.843   1.211  0.00  0.00    -0.036 A 
ATOM      7  C   UNL     1      -0.172   2.431   1.216  0.00  0.00    -0.006 A 
ATOM      8  S   UNL     1       0.226   2.228   2.879  0.00  0.00    -0.088 S 
ATOM      9  C   UNL     1       0.708   2.209   0.024  0.00  0.00    +0.043 C 
ATOM     10  C   UNL     1       0.049   2.870  -1.195  0.00  0.00    +0.009 C 
ATOM     11  C   UNL     1      -1.425   2.457  -1.242  0.00  0.00    -0.009 C 
ATOM     12  C   UNL     1      -2.192   3.131  -0.105  0.00  0.00    +0.039 C 
ATOM     13  C   UNL     1      -2.028   2.880  -2.583  0.00  0.00    +0.008 C 
ENDBRANCH   2   4
BRANCH   1  16
ATOM     14  N   UNL     1      -1.971   3.486   9.267  0.00  0.00    -0.280 N 
ATOM     15  C   UNL     1      -1.572   3.512   7.950  0.00  0.00    +0.127 A 
ATOM     16  C   UNL     1      -1.326   2.321   7.298  0.00  0.00    +0.140 A 
ATOM     17  C   UNL     1      -1.497   1.113   8.000  0.00  0.00    +0.277 A 
ATOM     18  O   UNL     1      -1.292   0.047   7.446  0.00  0.00    -0.266 OA
ATOM     19  N   UNL     1      -1.884   1.144   9.290  0.00  0.00    -0.273 N 
ATOM     20  H   UNL     1      -1.998   0.287   9.793  0.00  0.00    +0.173 HD
ATOM     21  C   UNL     1      -2.119   2.314   9.910  0.00  0.00    +0.331 A 
ATOM     22  O   UNL     1      -2.473   2.313  11.074  0.00  0.00    -0.246 OA
BRANCH  15  23
ATOM     23  N   UNL     1      -1.420   4.709   7.293  0.00  0.00    -0.343 N 
ATOM     24  H   UNL     1      -1.198   4.720   6.349  0.00  0.00    +0.144 HD
ATOM     25  H   UNL     1      -1.535   5.544   7.774  0.00  0.00    +0.144 HD
ENDBRANCH  15  23
BRANCH  14  26
ATOM     26  C   UNL     1      -2.235   4.743   9.972  0.00  0.00    +0.128 C 
BRANCH  26  27
ATOM     27  C   UNL     1      -3.706   5.125   9.799  0.00  0.00    +0.021 C 
BRANCH  27  29
ATOM     28  C   UNL     1      -5.453   6.821  10.362  0.00  0.00    +0.004 C 
ATOM     29  C   UNL     1      -3.982   6.438  10.535  0.00  0.00    -0.002 C 
ENDBRANCH  27  29
ENDBRANCH  26  27
ENDBRANCH  14  26
ENDBRANCH   1  16
BRANCH   1  30
ATOM     30  C   UNL     1       0.418   1.824   5.590  0.00  0.00    +0.114 C 
BRANCH  30  31
ATOM     31  C   UNL     1       1.376   3.009   5.452  0.00  0.00    +0.022 C 
BRANCH  31  32
ATOM     32  C   UNL     1       2.769   2.497   5.079  0.00  0.00    -0.016 C 
ATOM     33  C   UNL     1       3.696   3.686   4.818  0.00  0.00    +0.007 C 
ATOM     34  C   UNL     1       3.328   1.656   6.228  0.00  0.00    +0.007 C 
ENDBRANCH  31  32
ENDBRANCH  30  31
ENDBRANCH   1  30
TORSDOF 9
