REMARK  Name = ZINC39570631
REMARK  6 active torsions:
REMARK  status: ('A' for Active; 'I' for Inactive)
REMARK    1  A    between atoms: C_1  and  C_2
REMARK    2  A    between atoms: C_2  and  C_3
REMARK    3  A    between atoms: C_2  and  C_4
REMARK    4  A    between atoms: C_2  and  C_5
REMARK    5  A    between atoms: N_15  and  C_16
REMARK    6  A    between atoms: C_16  and  C_17
REMARK                            x       y       z     vdW  Elec       q    Type
REMARK                         _______ _______ _______ _____ _____    ______ ____
ROOT
ATOM      1  C   UNL     1       0.594  -0.193  -1.097  0.00  0.00    +0.216 C 
ATOM      2  N   UNL     1      -0.086   0.410  -2.250  0.00  0.00    -0.258 NA
ATOM      3  C   UNL     1       0.808   1.059  -2.939  0.00  0.00    +0.083 C 
ATOM      4  C   UNL     1       0.717   1.848  -4.177  0.00  0.00    +0.031 C 
ATOM      5  C   UNL     1       1.829   2.422  -4.677  0.00  0.00    +0.027 C 
ATOM      6  C   UNL     1       3.120   2.274  -4.012  0.00  0.00    +0.037 C 
ATOM      7  C   UNL     1       3.258   1.556  -2.869  0.00  0.00    +0.052 C 
ATOM      8  C   UNL     1       2.135   0.922  -2.280  0.00  0.00    +0.077 C 
ATOM      9  N   UNL     1       2.008   0.189  -1.203  0.00  0.00    -0.222 NA
ATOM     10  N   UNL     1       4.237   2.882  -4.565  0.00  0.00    -0.384 N 
ATOM     11  H   UNL     1       5.081   2.871  -4.088  0.00  0.00    +0.160 HD
ENDROOT
BRANCH   1  13
ATOM     12  C   UNL     1       0.129   1.873   0.230  0.00  0.00    +0.014 C 
ATOM     13  C   UNL     1       0.000   0.348   0.205  0.00  0.00    +0.003 C 
ATOM     14  C   UNL     1       0.755  -0.247   1.395  0.00  0.00    +0.014 C 
ATOM     15  C   UNL     1      -1.477  -0.040   0.291  0.00  0.00    +0.014 C 
ENDBRANCH   1  13
BRANCH  10  16
ATOM     16  C   UNL     1       4.141   3.542  -5.870  0.00  0.00    +0.116 C 
BRANCH  16  17
ATOM     17  C   UNL     1       4.362   5.046  -5.699  0.00  0.00    +0.008 C 
ATOM     18  C   UNL     1       3.225   5.636  -4.862  0.00  0.00    +0.005 C 
ATOM     19  C   UNL     1       3.446   7.141  -4.690  0.00  0.00    +0.000 C 
ATOM     20  C   UNL     1       3.470   7.812  -6.065  0.00  0.00    +0.000 C 
ATOM     21  C   UNL     1       4.607   7.222  -6.901  0.00  0.00    +0.000 C 
ATOM     22  C   UNL     1       4.386   5.718  -7.073  0.00  0.00    +0.005 C 
ENDBRANCH  16  17
ENDBRANCH  10  16
TORSDOF 3
