REMARK  Name = ZINC21405343
REMARK  8 active torsions:
REMARK  status: ('A' for Active; 'I' for Inactive)
REMARK    1  A    between atoms: C_1  and  C_2
REMARK    2  A    between atoms: C_5  and  N_9
REMARK    3  A    between atoms: C_6  and  C_8
REMARK    4  A    between atoms: C_13  and  S_14
REMARK    5  A    between atoms: S_14  and  C_15
REMARK    6  A    between atoms: C_15  and  C_17
REMARK    7  A    between atoms: C_15  and  C_18
REMARK    8  A    between atoms: N_23  and  C_24
REMARK                            x       y       z     vdW  Elec       q    Type
REMARK                         _______ _______ _______ _____ _____    ______ ____
ROOT
ATOM      1  C   UNL     1      -4.962   2.899   4.714  0.00  0.00    +0.233 C 
ATOM      2  O   UNL     1      -4.260   1.968   5.047  0.00  0.00    -0.274 OA
ATOM      3  N   UNL     1      -5.818   3.447   5.599  0.00  0.00    -0.239 N 
ATOM      4  C   UNL     1      -5.896   2.959   6.853  0.00  0.00    +0.306 C 
ATOM      5  O   UNL     1      -5.193   2.025   7.186  0.00  0.00    -0.252 OA
ATOM      6  N   UNL     1      -6.753   3.506   7.737  0.00  0.00    -0.294 N 
ATOM      7  H   UNL     1      -6.455   4.292   5.297  0.00  0.00    +0.159 HD
ATOM      8  H   UNL     1      -7.389   4.351   7.436  0.00  0.00    +0.151 HD
ENDROOT
BRANCH   6   9
ATOM      9  C   UNL     1      -6.837   2.976   9.100  0.00  0.00    +0.037 C 
ATOM     10  C   UNL     1      -7.248   1.503   9.050  0.00  0.00    +0.029 C 
ATOM     11  C   UNL     1      -7.336   0.949  10.473  0.00  0.00    -0.008 C 
ATOM     12  C   UNL     1      -8.377   1.742  11.266  0.00  0.00    +0.007 C 
ATOM     13  C   UNL     1      -7.965   3.215  11.316  0.00  0.00    -0.008 C 
ATOM     14  C   UNL     1      -7.877   3.769   9.893  0.00  0.00    +0.029 C 
ATOM     15  C   UNL     1      -6.601   3.340  11.998  0.00  0.00    +0.007 C 
ATOM     16  C   UNL     1      -5.560   2.547  11.205  0.00  0.00    -0.008 C 
ATOM     17  C   UNL     1      -5.972   1.074  11.154  0.00  0.00    +0.007 C 
ATOM     18  C   UNL     1      -5.473   3.101   9.781  0.00  0.00    +0.029 C 
ENDBRANCH   6   9
BRANCH   1  19
ATOM     19  C   UNL     1      -4.875   3.445   3.312  0.00  0.00    +0.137 C 
ATOM     20  C   UNL     1      -6.031   2.891   2.477  0.00  0.00    +0.029 C 
BRANCH  19  21
ATOM     21  S   UNL     1      -3.301   2.949   2.568  0.00  0.00    -0.073 S 
BRANCH  21  26
ATOM     22  N   UNL     1      -2.459   3.824   0.044  0.00  0.00    -0.277 N 
ATOM     23  C   UNL     1      -2.962   4.641  -0.934  0.00  0.00    +0.230 A 
ATOM     24  N   UNL     1      -4.120   5.072  -0.522  0.00  0.00    -0.137 NA
ATOM     25  N   UNL     1      -4.381   4.595   0.643  0.00  0.00    -0.122 NA
ATOM     26  C   UNL     1      -3.397   3.822   1.041  0.00  0.00    +0.197 A 
BRANCH  22  31
ATOM     27  C   UNL     1       2.490   1.045  -0.016  0.00  0.00    +0.044 C 
ATOM     28  C   UNL     1       1.176   1.783   0.000  0.00  0.00    -0.050 A 
ATOM     29  C   UNL     1       1.161   3.166   0.007  0.00  0.00    +0.005 A 
ATOM     30  C   UNL     1      -0.042   3.844   0.022  0.00  0.00    +0.027 A 
ATOM     31  C   UNL     1      -1.237   3.137   0.030  0.00  0.00    +0.053 A 
ATOM     32  C   UNL     1      -1.219   1.750   0.017  0.00  0.00    -0.026 A 
ATOM     33  C   UNL     1      -0.013   1.076   0.008  0.00  0.00    +0.008 A 
ATOM     34  C   UNL     1      -2.513   0.978   0.019  0.00  0.00    +0.046 C 
ENDBRANCH  22  31
ENDBRANCH  21  26
ENDBRANCH  19  21
ENDBRANCH   1  19
TORSDOF 5
