REMARK  Name = ZINC62642184
REMARK  3 active torsions:
REMARK  status: ('A' for Active; 'I' for Inactive)
REMARK    1  A    between atoms: C_3  and  N_23
REMARK    2  A    between atoms: C_6  and  N_7
REMARK    3  A    between atoms: C_8  and  C_10
REMARK                            x       y       z     vdW  Elec       q    Type
REMARK                         _______ _______ _______ _____ _____    ______ ____
ROOT
ATOM      1  N   UNL     1      -1.172  -0.769   0.104  0.00  0.00    -0.278 N 
ATOM      2  C   UNL     1      -1.276  -2.109   0.203  0.00  0.00    +0.303 C 
ATOM      3  O   UNL     1      -0.300  -2.776   0.478  0.00  0.00    -0.265 OA
ATOM      4  H   UNL     1      -1.964  -0.231  -0.049  0.00  0.00    +0.155 HD
ENDROOT
BRANCH   2   5
ATOM      5  C   UNL     1      -2.594  -2.774  -0.025  0.00  0.00    +0.302 C 
ATOM      6  O   UNL     1      -3.593  -2.103  -0.183  0.00  0.00    -0.265 OA
ATOM      7  N   UNL     1      -2.674  -4.119  -0.054  0.00  0.00    -0.290 N 
ATOM      8  C   UNL     1      -3.957  -4.722  -0.276  0.00  0.00    +0.112 C 
ATOM      9  C   UNL     1      -4.131  -6.016   0.460  0.00  0.00    +0.007 C 
ATOM     10  C   UNL     1      -3.671  -5.941   1.906  0.00  0.00    +0.008 C 
ATOM     11  C   UNL     1      -2.200  -6.245   2.109  0.00  0.00    -0.009 C 
ATOM     12  C   UNL     1      -1.806  -7.545   1.403  0.00  0.00    +0.007 C 
ATOM     13  C   UNL     1      -2.109  -7.362  -0.086  0.00  0.00    -0.009 C 
ATOM     14  C   UNL     1      -3.623  -7.236  -0.256  0.00  0.00    +0.008 C 
ATOM     15  C   UNL     1      -1.391  -6.162  -0.658  0.00  0.00    +0.026 C 
ATOM     16  C   UNL     1      -1.456  -4.888   0.134  0.00  0.00    +0.077 C 
ATOM     17  C   UNL     1      -1.276  -5.131   1.639  0.00  0.00    +0.026 C 
ENDBRANCH   2   5
BRANCH   1  23
ATOM     18  C   UNL     1       0.376   0.968  -0.540  0.00  0.00    +0.025 A 
ATOM     19  C   UNL     1       1.610   1.575  -0.424  0.00  0.00    +0.025 A 
ATOM     20  C   UNL     1       2.556   1.061   0.454  0.00  0.00    +0.036 A 
ATOM     21  C   UNL     1       2.260  -0.062   1.215  0.00  0.00    +0.025 A 
ATOM     22  C   UNL     1       1.026  -0.669   1.099  0.00  0.00    +0.025 A 
ATOM     23  C   UNL     1       0.079  -0.155   0.221  0.00  0.00    +0.034 A 
BRANCH  20  24
ATOM     24  N   UNL     1       3.809   1.676   0.572  0.00  0.00    -0.271 N 
ATOM     25  C   UNL     1       4.835   1.286   1.546  0.00  0.00    +0.114 C 
ATOM     26  C   UNL     1       6.151   1.910   1.031  0.00  0.00    +0.029 C 
ATOM     27  C   UNL     1       5.629   3.106   0.202  0.00  0.00    +0.098 C 
ATOM     28  C   UNL     1       4.228   2.696  -0.196  0.00  0.00    +0.220 C 
ATOM     29  O   UNL     1       3.577   3.214  -1.079  0.00  0.00    -0.275 OA
ENDBRANCH  20  24
ENDBRANCH   1  23
TORSDOF 3
