REMARK  Name = ZINC39915976
REMARK  15 active torsions:
REMARK  status: ('A' for Active; 'I' for Inactive)
REMARK    1  A    between atoms: C_1  and  C_2
REMARK    2  A    between atoms: C_2  and  C_3
REMARK    3  A    between atoms: C_2  and  C_4
REMARK    4  A    between atoms: C_2  and  C_5
REMARK    5  A    between atoms: C_8  and  O_11
REMARK    6  A    between atoms: O_11  and  C_12
REMARK    7  A    between atoms: C_12  and  C_13
REMARK    8  A    between atoms: C_13  and  N_14
REMARK    9  A    between atoms: C_22  and  S_23
REMARK   10  A    between atoms: S_23  and  C_24
REMARK   11  A    between atoms: C_26  and  O_39
REMARK   12  A    between atoms: C_28  and  O_38
REMARK   13  A    between atoms: C_30  and  O_37
REMARK   14  A    between atoms: C_32  and  C_35
REMARK   15  A    between atoms: C_35  and  O_36
REMARK                            x       y       z     vdW  Elec       q    Type
REMARK                         _______ _______ _______ _____ _____    ______ ____
ROOT
ATOM      1  N   UNL     1       5.940  -1.600  -6.280  0.00  0.00    -0.315 N 
ATOM      2  C   UNL     1       6.388  -0.457  -6.922  0.00  0.00    +0.070 A 
ATOM      3  C   UNL     1       5.754   0.598  -7.561  0.00  0.00    +0.028 A 
ATOM      4  C   UNL     1       6.503   1.615  -8.116  0.00  0.00    +0.002 A 
ATOM      5  C   UNL     1       7.887   1.589  -8.040  0.00  0.00    +0.002 A 
ATOM      6  C   UNL     1       8.534   0.550  -7.411  0.00  0.00    +0.030 A 
ATOM      7  C   UNL     1       7.790  -0.487  -6.842  0.00  0.00    +0.090 A 
ATOM      8  N   UNL     1       8.128  -1.620  -6.172  0.00  0.00    -0.222 NA
ATOM      9  C   UNL     1       7.043  -2.273  -5.835  0.00  0.00    +0.172 A 
ENDROOT
BRANCH   1  10
ATOM     10  C   UNL     1       4.544  -2.009  -6.106  0.00  0.00    +0.165 C 
BRANCH  10  11
ATOM     11  C   UNL     1       4.000  -1.423  -4.801  0.00  0.00    +0.250 C 
BRANCH  11  12
ATOM     12  O   UNL     1       2.639  -1.822  -4.631  0.00  0.00    -0.490 OA
BRANCH  12  16
ATOM     13  C   UNL     1       0.707  -0.490  -1.238  0.00  0.00    -0.042 A 
ATOM     14  C   UNL     1       0.035  -1.284  -2.148  0.00  0.00    +0.008 A 
ATOM     15  C   UNL     1       0.679  -1.732  -3.285  0.00  0.00    +0.046 A 
ATOM     16  C   UNL     1       2.002  -1.383  -3.514  0.00  0.00    +0.121 A 
ATOM     17  C   UNL     1       2.675  -0.585  -2.599  0.00  0.00    +0.046 A 
ATOM     18  C   UNL     1       2.024  -0.136  -1.466  0.00  0.00    +0.008 A 
BRANCH  13  20
ATOM     19  C   UNL     1      -0.019   1.526   0.010  0.00  0.00    +0.015 C 
ATOM     20  C   UNL     1       0.002  -0.004   0.002  0.00  0.00    -0.013 C 
ATOM     21  C   UNL     1       0.742  -0.511   1.242  0.00  0.00    +0.015 C 
ATOM     22  C   UNL     1      -1.433  -0.534   0.013  0.00  0.00    +0.015 C 
ENDBRANCH  13  20
ENDBRANCH  12  16
ENDBRANCH  11  12
ENDBRANCH  10  11
ENDBRANCH   1  10
BRANCH   9  23
ATOM     23  S   UNL     1       7.011  -3.794  -4.946  0.00  0.00    -0.054 S 
BRANCH  23  24
ATOM     24  C   UNL     1       8.762  -4.164  -4.647  0.00  0.00    +0.214 C 
ATOM     25  C   UNL     1       8.896  -5.587  -4.098  0.00  0.00    +0.185 C 
ATOM     26  C   UNL     1      10.370  -5.871  -3.792  0.00  0.00    +0.177 C 
ATOM     27  C   UNL     1      10.888  -4.816  -2.809  0.00  0.00    +0.176 C 
ATOM     28  C   UNL     1      10.677  -3.424  -3.408  0.00  0.00    +0.176 C 
ATOM     29  O   UNL     1       9.290  -3.236  -3.698  0.00  0.00    -0.355 OA
BRANCH  27  30
ATOM     30  O   UNL     1      10.173  -4.921  -1.576  0.00  0.00    -0.386 OA
ATOM     31  H   UNL     1      10.259  -5.781  -1.143  0.00  0.00    +0.210 HD
ENDBRANCH  27  30
BRANCH  26  32
ATOM     32  O   UNL     1      10.496  -7.170  -3.212  0.00  0.00    -0.386 OA
ATOM     33  H   UNL     1      10.180  -7.887  -3.780  0.00  0.00    +0.210 HD
ENDBRANCH  26  32
BRANCH  25  34
ATOM     34  O   UNL     1       8.126  -5.711  -2.901  0.00  0.00    -0.386 OA
ATOM     35  H   UNL     1       7.182  -5.540  -3.021  0.00  0.00    +0.210 HD
ENDBRANCH  25  34
BRANCH  28  36
ATOM     36  C   UNL     1      11.137  -2.362  -2.407  0.00  0.00    +0.190 C 
BRANCH  36  37
ATOM     37  O   UNL     1      11.049  -1.069  -3.009  0.00  0.00    -0.392 OA
ATOM     38  H   UNL     1      11.326  -0.346  -2.430  0.00  0.00    +0.210 HD
ENDBRANCH  36  37
ENDBRANCH  28  36
ENDBRANCH  23  24
ENDBRANCH   9  23
TORSDOF 12
