REMARK  Name = ZINC62476438
REMARK  6 active torsions:
REMARK  status: ('A' for Active; 'I' for Inactive)
REMARK    1  A    between atoms: C_1  and  C_2
REMARK    2  A    between atoms: C_4  and  C_29
REMARK    3  A    between atoms: C_9  and  C_10
REMARK    4  A    between atoms: C_10  and  N_11
REMARK    5  A    between atoms: C_17  and  C_20
REMARK    6  A    between atoms: N_22  and  C_23
REMARK                            x       y       z     vdW  Elec       q    Type
REMARK                         _______ _______ _______ _____ _____    ______ ____
ROOT
ATOM      1  N   UNL     1      -1.348   0.143   2.991  0.00  0.00    -0.295 N 
ATOM      2  C   UNL     1      -1.592   0.762   4.163  0.00  0.00    +0.302 C 
ATOM      3  O   UNL     1      -0.666   1.147   4.851  0.00  0.00    -0.253 OA
ATOM      4  N   UNL     1      -2.861   0.954   4.573  0.00  0.00    -0.286 N 
ATOM      5  C   UNL     1      -3.986   0.394   3.813  0.00  0.00    +0.110 C 
ATOM      6  C   UNL     1      -4.973   1.520   3.490  0.00  0.00    +0.032 C 
ATOM      7  C   UNL     1      -5.379   2.224   4.787  0.00  0.00    +0.078 C 
ATOM      8  C   UNL     1      -4.142   2.840   5.445  0.00  0.00    +0.032 C 
ATOM      9  C   UNL     1      -3.146   1.723   5.793  0.00  0.00    +0.110 C 
ATOM     10  H   UNL     1      -2.083  -0.229   2.478  0.00  0.00    +0.151 HD
ENDROOT
BRANCH   7  11
ATOM     11  C   UNL     1      -6.376   3.311   4.477  0.00  0.00    +0.216 C 
ATOM     12  O   UNL     1      -6.727   3.504   3.332  0.00  0.00    -0.276 OA
ATOM     13  N   UNL     1      -6.878   4.069   5.473  0.00  0.00    -0.312 N 
ATOM     14  H   UNL     1      -6.597   3.915   6.388  0.00  0.00    +0.149 HD
BRANCH  13  15
ATOM     15  C   UNL     1      -7.847   5.125   5.171  0.00  0.00    +0.073 C 
ATOM     16  C   UNL     1      -7.103   6.402   4.773  0.00  0.00    +0.022 C 
ATOM     17  C   UNL     1      -8.115   7.505   4.458  0.00  0.00    +0.002 C 
ATOM     18  C   UNL     1      -8.971   7.780   5.696  0.00  0.00    +0.000 C 
ATOM     19  C   UNL     1      -9.715   6.504   6.095  0.00  0.00    +0.002 C 
ATOM     20  C   UNL     1      -8.703   5.400   6.409  0.00  0.00    +0.022 C 
ENDBRANCH  13  15
ENDBRANCH   7  11
BRANCH   1  21
ATOM     21  C   UNL     1       0.025   0.032   2.492  0.00  0.00    +0.146 C 
BRANCH  21  30
ATOM     22  C   UNL     1      -0.021   1.506   0.010  0.00  0.00    +0.044 C 
ATOM     23  C   UNL     1       0.001  -0.001   0.001  0.00  0.00    -0.039 A 
ATOM     24  C   UNL     1       0.005  -0.702  -1.213  0.00  0.00    +0.024 A 
ATOM     25  C   UNL     1       0.025  -2.055  -1.211  0.00  0.00    +0.016 A 
ATOM     26  N   UNL     1       0.041  -2.747  -0.043  0.00  0.00    -0.326 N 
ATOM     27  H   UNL     1       0.055  -3.716  -0.060  0.00  0.00    +0.169 HD
ATOM     28  C   UNL     1       0.038  -2.102   1.139  0.00  0.00    +0.254 A 
ATOM     29  O   UNL     1       0.053  -2.737   2.181  0.00  0.00    -0.268 OA
ATOM     30  C   UNL     1       0.022  -0.697   1.173  0.00  0.00    +0.037 A 
ATOM     31  C   UNL     1       0.028  -2.802  -2.520  0.00  0.00    +0.063 C 
ENDBRANCH  21  30
ENDBRANCH   1  21
TORSDOF 4
