REMARK  Name = ZINC36215609
REMARK  12 active torsions:
REMARK  status: ('A' for Active; 'I' for Inactive)
REMARK    1  A    between atoms: C_1  and  N_2
REMARK    2  A    between atoms: N_2  and  C_3
REMARK    3  A    between atoms: N_2  and  C_4
REMARK    4  A    between atoms: C_4  and  C_5
REMARK    5  A    between atoms: C_5  and  N_6
REMARK    6  A    between atoms: C_7  and  C_9
REMARK    7  A    between atoms: C_11  and  C_25
REMARK    8  A    between atoms: N_16  and  C_17
REMARK    9  A    between atoms: C_17  and  C_18
REMARK   10  A    between atoms: C_28  and  N_31
REMARK   11  A    between atoms: C_32  and  C_34
REMARK   12  A    between atoms: C_34  and  C_35
REMARK                            x       y       z     vdW  Elec       q    Type
REMARK                         _______ _______ _______ _____ _____    ______ ____
ROOT
ATOM      1  C   UNL     1      -4.347  -4.189  -0.183  0.00  0.00    +0.210 C 
ATOM      2  C   UNL     1      -4.901  -4.539   1.219  0.00  0.00    +0.238 C 
ATOM      3  O   UNL     1      -4.617  -5.949   1.311  0.00  0.00    -0.440 OA
ATOM      4  C   UNL     1      -4.572  -6.446   0.063  0.00  0.00    +0.405 C 
ATOM      5  O   UNL     1      -4.679  -7.628  -0.193  0.00  0.00    -0.226 OA
ATOM      6  N   UNL     1      -4.396  -5.491  -0.877  0.00  0.00    -0.248 N 
ENDROOT
BRANCH   2   7
ATOM      7  C   UNL     1      -6.385  -4.283   1.290  0.00  0.00    -0.005 A 
ATOM      8  C   UNL     1      -7.274  -5.254   0.867  0.00  0.00    +0.009 A 
ATOM      9  C   UNL     1      -8.634  -5.023   0.931  0.00  0.00    +0.024 A 
ATOM     10  C   UNL     1      -9.108  -3.813   1.422  0.00  0.00    +0.033 A 
ATOM     11  C   UNL     1      -8.213  -2.841   1.847  0.00  0.00    +0.024 A 
ATOM     12  C   UNL     1      -6.854  -3.080   1.785  0.00  0.00    +0.009 A 
BRANCH  10  13
ATOM     13  N   UNL     1     -10.486  -3.576   1.488  0.00  0.00    -0.285 N 
ATOM     14  C   UNL     1     -11.334  -4.593   1.740  0.00  0.00    +0.222 C 
ATOM     15  O   UNL     1     -10.899  -5.694   2.003  0.00  0.00    -0.275 OA
ATOM     16  H   UNL     1     -10.830  -2.679   1.353  0.00  0.00    +0.155 HD
BRANCH  14  17
ATOM     17  C   UNL     1     -12.822  -4.361   1.693  0.00  0.00    +0.131 C 
BRANCH  17  18
ATOM     18  C   UNL     1     -13.540  -5.648   2.009  0.00  0.00    -0.039 A 
ATOM     19  C   UNL     1     -13.872  -6.522   0.991  0.00  0.00    +0.004 A 
ATOM     20  C   UNL     1     -14.531  -7.702   1.280  0.00  0.00    +0.000 A 
ATOM     21  C   UNL     1     -14.858  -8.009   2.588  0.00  0.00    +0.000 A 
ATOM     22  C   UNL     1     -14.525  -7.135   3.606  0.00  0.00    +0.000 A 
ATOM     23  C   UNL     1     -13.862  -5.957   3.317  0.00  0.00    +0.004 A 
ENDBRANCH  17  18
ENDBRANCH  14  17
ENDBRANCH  10  13
ENDBRANCH   2   7
BRANCH   1  25
ATOM     24  N   UNL     1      -2.695  -2.392   0.213  0.00  0.00    -0.315 N 
ATOM     25  C   UNL     1      -2.931  -3.684  -0.089  0.00  0.00    +0.238 C 
ATOM     26  O   UNL     1      -2.003  -4.440  -0.285  0.00  0.00    -0.274 OA
ATOM     27  H   UNL     1      -3.436  -1.787   0.370  0.00  0.00    +0.149 HD
BRANCH  24  28
ATOM     28  C   UNL     1      -1.317  -1.901   0.304  0.00  0.00    +0.085 C 
BRANCH  28  29
ATOM     29  C   UNL     1      -1.329  -0.412   0.657  0.00  0.00    -0.061 C 
BRANCH  29  31
ATOM     30  C   UNL     1       0.041   1.532   0.970  0.00  0.00    -0.097 C 
ATOM     31  N   UNL     1       0.052   0.080   0.749  0.00  0.00    +0.377 N 
ATOM     32  C   UNL     1       0.734  -0.580   1.870  0.00  0.00    -0.097 C 
ATOM     33  H   UNL     1       0.540  -0.126  -0.110  0.00  0.00    -0.083 HD
ENDBRANCH  29  31
ENDBRANCH  28  29
ENDBRANCH  24  28
ENDBRANCH   1  25
BRANCH   6  34
ATOM     34  C   UNL     1      -4.277  -5.705  -2.321  0.00  0.00    +0.147 C 
BRANCH  34  35
ATOM     35  C   UNL     1      -2.827  -5.903  -2.682  0.00  0.00    -0.030 A 
ATOM     36  C   UNL     1      -2.041  -4.814  -3.006  0.00  0.00    +0.008 A 
ATOM     37  C   UNL     1      -0.711  -4.994  -3.336  0.00  0.00    +0.038 A 
ATOM     38  C   UNL     1      -0.166  -6.267  -3.342  0.00  0.00    +0.123 A 
ATOM     39  C   UNL     1      -0.955  -7.358  -3.017  0.00  0.00    +0.038 A 
ATOM     40  C   UNL     1      -2.283  -7.174  -2.682  0.00  0.00    +0.008 A 
ATOM     41  F   UNL     1       1.133  -6.445  -3.665  0.00  0.00    -0.205 F 
ENDBRANCH  34  35
ENDBRANCH   6  34
TORSDOF 10
