REMARK  Name = ZINC05456935
REMARK  3 active torsions:
REMARK  status: ('A' for Active; 'I' for Inactive)
REMARK    1  A    between atoms: C_4  and  C_7
REMARK    2  A    between atoms: C_9  and  C_13
REMARK    3  A    between atoms: C_19  and  C_22
REMARK                            x       y       z     vdW  Elec       q    Type
REMARK                         _______ _______ _______ _____ _____    ______ ____
ROOT
ATOM      1  C   UNL     1       5.847  -3.675  -0.082  0.00  0.00    +0.203 A 
ATOM      2  N   UNL     1       5.260  -4.828   0.181  0.00  0.00    -0.125 NA
ATOM      3  N   UNL     1       6.109  -5.795   0.068  0.00  0.00    -0.120 NA
ATOM      4  C   UNL     1       7.266  -5.322  -0.269  0.00  0.00    +0.213 A 
ATOM      5  N   UNL     1       7.152  -3.950  -0.379  0.00  0.00    -0.185 N 
ATOM      6  N   UNL     1       8.220  -3.127  -0.717  0.00  0.00    -0.166 NA
ATOM      7  C   UNL     1       9.298  -3.536  -1.282  0.00  0.00    +0.079 C 
ATOM      8  C   UNL     1       9.598  -4.939  -1.720  0.00  0.00    +0.135 C 
ATOM      9  S   UNL     1       8.806  -6.126  -0.581  0.00  0.00    -0.078 S 
ENDROOT
BRANCH   7  10
ATOM     10  C   UNL     1      10.345  -2.526  -1.524  0.00  0.00    -0.001 A 
ATOM     11  C   UNL     1      11.544  -2.893  -2.139  0.00  0.00    +0.012 A 
ATOM     12  C   UNL     1      12.520  -1.945  -2.363  0.00  0.00    +0.039 A 
ATOM     13  C   UNL     1      12.312  -0.629  -1.979  0.00  0.00    +0.123 A 
ATOM     14  C   UNL     1      11.125  -0.259  -1.367  0.00  0.00    +0.039 A 
ATOM     15  C   UNL     1      10.140  -1.198  -1.143  0.00  0.00    +0.012 A 
ATOM     16  F   UNL     1      13.272   0.296  -2.200  0.00  0.00    -0.205 F 
ENDBRANCH   7  10
BRANCH   1  19
ATOM     17  C   UNL     1       3.699  -0.689  -0.037  0.00  0.00    +0.093 A 
ATOM     18  C   UNL     1       3.862  -2.084  -0.052  0.00  0.00    +0.061 A 
ATOM     19  C   UNL     1       5.215  -2.345  -0.065  0.00  0.00    +0.105 A 
ATOM     20  N   UNL     1       5.860  -1.141  -0.058  0.00  0.00    -0.273 N 
ATOM     21  H   UNL     1       6.821  -1.009  -0.064  0.00  0.00    +0.189 HD
ATOM     22  N   UNL     1       4.891  -0.131  -0.047  0.00  0.00    -0.173 NA
BRANCH  17  26
ATOM     23  C   UNL     1      -0.017   1.379   0.010  0.00  0.00    +0.000 A 
ATOM     24  C   UNL     1       1.169   2.092   0.002  0.00  0.00    +0.001 A 
ATOM     25  C   UNL     1       2.377   1.425  -0.013  0.00  0.00    +0.010 A 
ATOM     26  C   UNL     1       2.402   0.033  -0.021  0.00  0.00    +0.002 A 
ATOM     27  C   UNL     1       1.205  -0.680  -0.013  0.00  0.00    +0.010 A 
ATOM     28  C   UNL     1       0.002  -0.004   0.002  0.00  0.00    +0.001 A 
ENDBRANCH  17  26
ENDBRANCH   1  19
TORSDOF 3
