REMARK  Name = ZINC14275064
REMARK  9 active torsions:
REMARK  status: ('A' for Active; 'I' for Inactive)
REMARK    1  A    between atoms: C_1  and  C_2
REMARK    2  A    between atoms: C_4  and  C_33
REMARK    3  A    between atoms: C_9  and  C_11
REMARK    4  A    between atoms: C_14  and  N_18
REMARK    5  A    between atoms: C_16  and  O_17
REMARK    6  A    between atoms: N_18  and  C_19
REMARK    7  A    between atoms: C_19  and  N_21
REMARK    8  A    between atoms: C_22  and  C_24
REMARK    9  A    between atoms: C_25  and  C_26
REMARK                            x       y       z     vdW  Elec       q    Type
REMARK                         _______ _______ _______ _____ _____    ______ ____
ROOT
ATOM      1  C   UNL     1       2.689  -6.822  -0.224  0.00  0.00    +0.078 A 
ATOM      2  C   UNL     1       1.432  -6.212  -0.235  0.00  0.00    +0.018 A 
ATOM      3  C   UNL     1       1.332  -4.840  -0.173  0.00  0.00    +0.024 A 
ATOM      4  C   UNL     1       2.481  -4.058  -0.098  0.00  0.00    +0.036 A 
ATOM      5  C   UNL     1       3.735  -4.655  -0.092  0.00  0.00    +0.069 A 
ATOM      6  C   UNL     1       3.845  -6.033  -0.149  0.00  0.00    +0.131 A 
ENDROOT
BRANCH   1  15
ATOM      7  C   UNL     1       4.678 -13.922  -0.500  0.00  0.00    +0.044 C 
ATOM      8  C   UNL     1       3.829 -12.678  -0.468  0.00  0.00    -0.048 A 
ATOM      9  C   UNL     1       2.447 -12.784  -0.518  0.00  0.00    +0.010 A 
ATOM     10  C   UNL     1       1.656 -11.654  -0.489  0.00  0.00    -0.006 A 
ATOM     11  C   UNL     1       2.244 -10.402  -0.410  0.00  0.00    +0.159 A 
ATOM     12  C   UNL     1       3.642 -10.289  -0.359  0.00  0.00    +0.110 A 
ATOM     13  C   UNL     1       4.430 -11.441  -0.389  0.00  0.00    +0.035 A 
ATOM     14  N   UNL     1       3.924  -8.962  -0.286  0.00  0.00    -0.209 NA
ATOM     15  C   UNL     1       2.798  -8.291  -0.290  0.00  0.00    +0.232 A 
ATOM     16  O   UNL     1       1.756  -9.142  -0.359  0.00  0.00    -0.435 OA
ATOM     17  C   UNL     1       0.155 -11.782  -0.544  0.00  0.00    +0.047 C 
ENDBRANCH   1  15
BRANCH   6  18
ATOM     18  O   UNL     1       5.070  -6.619  -0.138  0.00  0.00    -0.506 OA
ATOM     19  H   UNL     1       5.453  -6.747  -1.016  0.00  0.00    +0.292 HD
ENDBRANCH   6  18
BRANCH   4  20
ATOM     20  N   UNL     1       2.373  -2.667  -0.035  0.00  0.00    -0.296 N 
ATOM     21  H   UNL     1       1.730  -2.205  -0.596  0.00  0.00    +0.154 HD
BRANCH  20  22
ATOM     22  C   UNL     1       3.160  -1.968   0.805  0.00  0.00    +0.141 C 
ATOM     23  S   UNL     1       4.192  -2.790   1.896  0.00  0.00    -0.018 S 
BRANCH  22  24
ATOM     24  N   UNL     1       3.136  -0.620   0.787  0.00  0.00    -0.264 N 
ATOM     25  C   UNL     1       3.924   0.080   1.627  0.00  0.00    +0.242 C 
ATOM     26  O   UNL     1       4.657  -0.505   2.402  0.00  0.00    -0.270 OA
ATOM     27  H   UNL     1       2.551  -0.154   0.169  0.00  0.00    +0.157 HD
BRANCH  25  28
ATOM     28  C   UNL     1       3.897   1.542   1.607  0.00  0.00    +0.068 C 
ATOM     29  C   UNL     1       4.681   2.243   2.453  0.00  0.00    +0.013 C 
BRANCH  29  30
ATOM     30  C   UNL     1       4.654   3.713   2.433  0.00  0.00    -0.025 A 
ATOM     31  C   UNL     1       3.821   4.389   1.535  0.00  0.00    +0.009 A 
ATOM     32  C   UNL     1       3.798   5.767   1.525  0.00  0.00    +0.020 A 
ATOM     33  C   UNL     1       4.605   6.483   2.394  0.00  0.00    +0.041 A 
ATOM     34  C   UNL     1       5.436   5.821   3.283  0.00  0.00    +0.020 A 
ATOM     35  C   UNL     1       5.466   4.443   3.307  0.00  0.00    +0.009 A 
ATOM     36 CL   UNL     1       4.574   8.219   2.369  0.00  0.00    -0.084 Cl
ENDBRANCH  29  30
ENDBRANCH  25  28
ENDBRANCH  22  24
ENDBRANCH  20  22
ENDBRANCH   4  20
TORSDOF 7
