REMARK  Name = ZINC03446583
REMARK  8 active torsions:
REMARK  status: ('A' for Active; 'I' for Inactive)
REMARK    1  A    between atoms: C_2  and  C_3
REMARK    2  A    between atoms: C_3  and  N_4
REMARK    3  A    between atoms: C_14  and  S_15
REMARK    4  A    between atoms: S_15  and  C_16
REMARK    5  A    between atoms: C_16  and  C_17
REMARK    6  A    between atoms: N_19  and  C_20
REMARK    7  A    between atoms: C_23  and  S_26
REMARK    8  A    between atoms: S_26  and  N_29
REMARK                            x       y       z     vdW  Elec       q    Type
REMARK                         _______ _______ _______ _____ _____    ______ ____
ROOT
ATOM      1  C   UNL     1      -0.016   1.080   0.008  0.00  0.00    +0.173 C 
ENDROOT
BRANCH   1   2
ATOM      2  C   UNL     1      -0.717   1.573   1.248  0.00  0.00    +0.227 C 
ATOM      3  O   UNL     1      -1.709   2.264   1.150  0.00  0.00    -0.275 OA
ATOM      4  N   UNL     1      -0.242   1.246   2.466  0.00  0.00    -0.285 N 
ATOM      5  H   UNL     1       0.511   0.639   2.546  0.00  0.00    +0.155 HD
BRANCH   4   6
ATOM      6  C   UNL     1      -0.833   1.782   3.615  0.00  0.00    +0.034 A 
ATOM      7  C   UNL     1      -0.052   2.086   4.722  0.00  0.00    +0.025 A 
ATOM      8  C   UNL     1      -0.639   2.621   5.853  0.00  0.00    +0.030 A 
ATOM      9  C   UNL     1      -2.003   2.842   5.887  0.00  0.00    +0.105 A 
ATOM     10  C   UNL     1      -2.784   2.535   4.788  0.00  0.00    +0.030 A 
ATOM     11  C   UNL     1      -2.203   2.006   3.652  0.00  0.00    +0.025 A 
BRANCH   9  12
ATOM     12  S   UNL     1      -2.748   3.518   7.334  0.00  0.00    +0.056 S 
ATOM     13  O   UNL     1      -1.728   4.226   8.023  0.00  0.00    -0.153 OA
ATOM     14  O   UNL     1      -3.957   4.137   6.917  0.00  0.00    -0.153 OA
BRANCH  12  15
ATOM     15  N   UNL     1      -3.178   2.245   8.303  0.00  0.00    -0.204 NA
ATOM     16  H   UNL     1      -3.000   1.336   8.017  0.00  0.00    +0.144 HD
ATOM     17  H   UNL     1      -3.608   2.410   9.156  0.00  0.00    +0.144 HD
ENDBRANCH  12  15
ENDBRANCH   9  12
ENDBRANCH   4   6
ENDBRANCH   1   2
BRANCH   1  18
ATOM     18  S   UNL     1      -0.889   1.683  -1.458  0.00  0.00    -0.078 S 
BRANCH  18  29
ATOM     19  N   UNL     1      -0.223   1.209  -4.027  0.00  0.00    -0.283 N 
ATOM     20  C   UNL     1       0.519   0.688  -5.031  0.00  0.00    +0.263 A 
ATOM     21  O   UNL     1       0.230   0.885  -6.197  0.00  0.00    -0.267 OA
ATOM     22  C   UNL     1       1.687  -0.124  -4.663  0.00  0.00    +0.066 A 
ATOM     23  C   UNL     1       2.513  -0.703  -5.625  0.00  0.00    +0.035 A 
ATOM     24  C   UNL     1       3.596  -1.456  -5.223  0.00  0.00    +0.042 A 
ATOM     25  C   UNL     1       3.866  -1.639  -3.872  0.00  0.00    +0.022 A 
ATOM     26  C   UNL     1       3.069  -1.080  -2.914  0.00  0.00    +0.030 A 
ATOM     27  C   UNL     1       1.964  -0.312  -3.290  0.00  0.00    +0.079 A 
ATOM     28  N   UNL     1       1.153   0.262  -2.370  0.00  0.00    -0.223 NA
ATOM     29  C   UNL     1       0.115   0.979  -2.723  0.00  0.00    +0.173 A 
ATOM     30 CL   UNL     1       4.630  -2.181  -6.414  0.00  0.00    -0.084 Cl
BRANCH  19  31
ATOM     31  C   UNL     1      -1.397   2.027  -4.339  0.00  0.00    +0.154 C 
BRANCH  31  33
ATOM     32  C   UNL     1      -1.264   4.151  -5.537  0.00  0.00    +0.005 C 
ATOM     33  C   UNL     1      -0.988   3.473  -4.450  0.00  0.00    -0.013 C 
ENDBRANCH  31  33
ENDBRANCH  19  31
ENDBRANCH  18  29
ENDBRANCH   1  18
TORSDOF 8
