REMARK  Name = ZINC12920263
REMARK  8 active torsions:
REMARK  status: ('A' for Active; 'I' for Inactive)
REMARK    1  A    between atoms: C_4  and  C_7
REMARK    2  A    between atoms: C_7  and  O_8
REMARK    3  A    between atoms: O_8  and  C_9
REMARK    4  A    between atoms: N_11  and  C_12
REMARK    5  A    between atoms: C_12  and  C_14
REMARK    6  A    between atoms: C_12  and  C_25
REMARK    7  A    between atoms: C_14  and  C_15
REMARK    8  A    between atoms: N_27  and  C_28
REMARK                            x       y       z     vdW  Elec       q    Type
REMARK                         _______ _______ _______ _____ _____    ______ ____
ROOT
ATOM      1  C   UNL     1      -0.167   1.198   4.821  0.00  0.00    +0.167 C 
ENDROOT
BRANCH   1   4
ATOM      2  C   UNL     1      -0.169   1.187   2.385  0.00  0.00    +0.401 C 
ATOM      3  O   UNL     1       0.828   0.493   2.416  0.00  0.00    -0.226 OA
ATOM      4  N   UNL     1      -0.744   1.593   3.534  0.00  0.00    -0.269 N 
ATOM      5  H   UNL     1      -1.540   2.147   3.509  0.00  0.00    +0.153 HD
BRANCH   2   6
ATOM      6  O   UNL     1      -0.700   1.550   1.201  0.00  0.00    -0.446 OA
BRANCH   6   7
ATOM      7  C   UNL     1      -0.028   1.076   0.005  0.00  0.00    +0.269 C 
BRANCH   7  11
ATOM      8  C   UNL     1      -2.099   2.499  -3.450  0.00  0.00    +0.000 A 
ATOM      9  C   UNL     1      -1.080   3.251  -2.896  0.00  0.00    +0.000 A 
ATOM     10  C   UNL     1      -0.410   2.791  -1.778  0.00  0.00    +0.007 A 
ATOM     11  C   UNL     1      -0.759   1.578  -1.214  0.00  0.00    -0.010 A 
ATOM     12  C   UNL     1      -1.774   0.823  -1.771  0.00  0.00    +0.007 A 
ATOM     13  C   UNL     1      -2.447   1.286  -2.886  0.00  0.00    +0.000 A 
ENDBRANCH   7  11
ENDBRANCH   6   7
ENDBRANCH   2   6
ENDBRANCH   1   4
BRANCH   1  14
ATOM     14  C   UNL     1      -0.688  -0.161   5.210  0.00  0.00    +0.238 C 
ATOM     15  O   UNL     1      -1.466  -0.743   4.483  0.00  0.00    -0.273 OA
ATOM     16  N   UNL     1      -0.291  -0.730   6.365  0.00  0.00    -0.284 N 
ATOM     17  H   UNL     1       0.381  -0.296   6.913  0.00  0.00    +0.155 HD
BRANCH  16  18
ATOM     18  C   UNL     1      -0.848  -1.948   6.773  0.00  0.00    +0.036 A 
ATOM     19  C   UNL     1      -1.189  -2.908   5.829  0.00  0.00    +0.023 A 
ATOM     20  C   UNL     1      -1.738  -4.109   6.233  0.00  0.00    +0.005 A 
ATOM     21  C   UNL     1      -1.948  -4.357   7.577  0.00  0.00    +0.038 A 
ATOM     22  C   UNL     1      -1.609  -3.403   8.521  0.00  0.00    +0.125 A 
ATOM     23  C   UNL     1      -1.055  -2.200   8.122  0.00  0.00    +0.061 A 
ATOM     24  F   UNL     1      -1.815  -3.649   9.834  0.00  0.00    -0.205 F 
ENDBRANCH  16  18
ENDBRANCH   1  14
BRANCH   1  25
ATOM     25  C   UNL     1      -0.559   2.220   5.891  0.00  0.00    +0.069 C 
BRANCH  25  26
ATOM     26  C   UNL     1       0.065   3.552   5.566  0.00  0.00    -0.020 A 
ATOM     27  C   UNL     1       1.222   4.031   6.049  0.00  0.00    +0.087 A 
ATOM     28  N   UNL     1       1.468   5.272   5.527  0.00  0.00    -0.360 N 
ATOM     29  H   UNL     1       2.245   5.817   5.727  0.00  0.00    +0.165 HD
ATOM     30  C   UNL     1       0.444   5.635   4.681  0.00  0.00    +0.047 A 
ATOM     31  C   UNL     1      -0.480   4.574   4.668  0.00  0.00    +0.003 A 
ATOM     32  C   UNL     1      -1.633   4.664   3.886  0.00  0.00    +0.010 A 
ATOM     33  C   UNL     1      -1.858   5.784   3.136  0.00  0.00    +0.001 A 
ATOM     34  C   UNL     1      -0.951   6.833   3.146  0.00  0.00    +0.002 A 
ATOM     35  C   UNL     1       0.194   6.766   3.910  0.00  0.00    +0.026 A 
ENDBRANCH  25  26
ENDBRANCH   1  25
TORSDOF 8
