REMARK  Name = ZINC59422752
REMARK  8 active torsions:
REMARK  status: ('A' for Active; 'I' for Inactive)
REMARK    1  A    between atoms: C_4  and  C_7
REMARK    2  A    between atoms: C_8  and  C_9
REMARK    3  A    between atoms: N_11  and  C_12
REMARK    4  A    between atoms: C_14  and  C_18
REMARK    5  A    between atoms: C_20  and  C_23
REMARK    6  A    between atoms: C_25  and  N_29
REMARK    7  A    between atoms: C_30  and  C_32
REMARK    8  A    between atoms: C_33  and  C_34
REMARK                            x       y       z     vdW  Elec       q    Type
REMARK                         _______ _______ _______ _____ _____    ______ ____
ROOT
ATOM      1  C   UNL     1       7.655  -8.203   0.084  0.00  0.00    +0.249 A 
ATOM      2  O   UNL     1       8.791  -8.928   0.146  0.00  0.00    -0.416 OA
ATOM      3  C   UNL     1       8.418 -10.223   0.088  0.00  0.00    +0.249 A 
ATOM      4  N   UNL     1       7.108 -10.252  -0.004  0.00  0.00    -0.107 NA
ATOM      5  N   UNL     1       6.653  -9.049  -0.001  0.00  0.00    -0.107 NA
ENDROOT
BRANCH   1   8
ATOM      6  C   UNL     1       6.222  -4.727   0.077  0.00  0.00    +0.034 A 
ATOM      7  C   UNL     1       6.307  -6.111   0.048  0.00  0.00    +0.036 A 
ATOM      8  C   UNL     1       7.555  -6.729   0.114  0.00  0.00    +0.040 A 
ATOM      9  C   UNL     1       8.711  -5.951   0.209  0.00  0.00    +0.013 A 
ATOM     10  C   UNL     1       8.615  -4.575   0.237  0.00  0.00    +0.003 A 
ATOM     11  C   UNL     1       7.378  -3.962   0.166  0.00  0.00    +0.023 A 
BRANCH   6  14
ATOM     12  C   UNL     1       3.903  -4.669   0.604  0.00  0.00    +0.241 C 
ATOM     13  O   UNL     1       4.005  -5.764   1.124  0.00  0.00    -0.270 OA
ATOM     14  N   UNL     1       4.973  -4.102   0.011  0.00  0.00    -0.282 N 
ATOM     15  H   UNL     1       4.876  -3.261  -0.462  0.00  0.00    +0.155 HD
BRANCH  12  17
ATOM     16  C   UNL     1       1.549  -4.534   1.215  0.00  0.00    +0.013 C 
ATOM     17  C   UNL     1       2.619  -3.967   0.622  0.00  0.00    +0.068 C 
BRANCH  16  21
ATOM     18  C   UNL     1      -2.173  -2.498   1.268  0.00  0.00    +0.000 A 
ATOM     19  C   UNL     1      -2.061  -3.744   1.860  0.00  0.00    +0.001 A 
ATOM     20  C   UNL     1      -0.855  -4.412   1.847  0.00  0.00    +0.008 A 
ATOM     21  C   UNL     1       0.257  -3.828   1.233  0.00  0.00    -0.025 A 
ATOM     22  C   UNL     1       0.136  -2.569   0.636  0.00  0.00    +0.008 A 
ATOM     23  C   UNL     1      -1.077  -1.913   0.658  0.00  0.00    +0.001 A 
ENDBRANCH  16  21
ENDBRANCH  12  17
ENDBRANCH   6  14
ENDBRANCH   1   8
BRANCH   3  24
ATOM     24  C   UNL     1       9.319 -11.394   0.122  0.00  0.00    +0.040 A 
ATOM     25  C   UNL     1       8.793 -12.684   0.048  0.00  0.00    +0.036 A 
ATOM     26  C   UNL     1       9.644 -13.777   0.080  0.00  0.00    +0.034 A 
ATOM     27  C   UNL     1      11.017 -13.587   0.184  0.00  0.00    +0.023 A 
ATOM     28  C   UNL     1      11.538 -12.309   0.258  0.00  0.00    +0.003 A 
ATOM     29  C   UNL     1      10.700 -11.213   0.222  0.00  0.00    +0.013 A 
BRANCH  26  30
ATOM     30  N   UNL     1       9.121 -15.072   0.006  0.00  0.00    -0.282 N 
ATOM     31  C   UNL     1       8.035 -15.319  -0.752  0.00  0.00    +0.241 C 
ATOM     32  O   UNL     1       7.459 -14.401  -1.306  0.00  0.00    -0.270 OA
ATOM     33  H   UNL     1       9.541 -15.793   0.501  0.00  0.00    +0.155 HD
BRANCH  31  34
ATOM     34  C   UNL     1       7.548 -16.691  -0.910  0.00  0.00    +0.068 C 
ATOM     35  C   UNL     1       6.461 -16.937  -1.669  0.00  0.00    +0.013 C 
BRANCH  35  36
ATOM     36  C   UNL     1       5.972 -18.316  -1.827  0.00  0.00    -0.025 A 
ATOM     37  C   UNL     1       6.628 -19.373  -1.187  0.00  0.00    +0.008 A 
ATOM     38  C   UNL     1       6.163 -20.662  -1.341  0.00  0.00    +0.001 A 
ATOM     39  C   UNL     1       5.051 -20.912  -2.125  0.00  0.00    +0.000 A 
ATOM     40  C   UNL     1       4.396 -19.871  -2.761  0.00  0.00    +0.001 A 
ATOM     41  C   UNL     1       4.845 -18.576  -2.613  0.00  0.00    +0.008 A 
ENDBRANCH  35  36
ENDBRANCH  31  34
ENDBRANCH  26  30
ENDBRANCH   3  24
TORSDOF 8
