REMARK  Name = ZINC12938308
REMARK  7 active torsions:
REMARK  status: ('A' for Active; 'I' for Inactive)
REMARK    1  A    between atoms: C_1  and  C_2
REMARK    2  A    between atoms: C_4  and  C_32
REMARK    3  A    between atoms: C_6  and  N_13
REMARK    4  A    between atoms: C_14  and  C_16
REMARK    5  A    between atoms: C_16  and  S_17
REMARK    6  A    between atoms: S_17  and  C_18
REMARK    7  A    between atoms: N_30  and  C_31
REMARK                            x       y       z     vdW  Elec       q    Type
REMARK                         _______ _______ _______ _____ _____    ______ ____
ROOT
ATOM      1  N   UNL     1       3.316   8.241   0.010  0.00  0.00    -0.255 N 
ATOM      2  C   UNL     1       4.101   7.146  -0.003  0.00  0.00    +0.230 C 
ATOM      3  O   UNL     1       5.308   7.265  -0.015  0.00  0.00    -0.274 OA
ATOM      4  H   UNL     1       2.350   8.146   0.019  0.00  0.00    +0.158 HD
ENDROOT
BRANCH   1  10
ATOM      5  C   UNL     1       4.820  14.262   0.024  0.00  0.00    +0.068 C 
ATOM      6  C   UNL     1       3.806  13.147   0.029  0.00  0.00    +0.070 A 
ATOM      7  C   UNL     1       4.249  11.750   0.018  0.00  0.00    +0.053 A 
ATOM      8  C   UNL     1       5.430  11.097   0.003  0.00  0.00    +0.114 A 
ATOM      9  O   UNL     1       5.202   9.771   0.004  0.00  0.00    -0.445 OA
ATOM     10  C   UNL     1       3.887   9.502   0.010  0.00  0.00    +0.206 A 
ATOM     11  C   UNL     1       3.205  10.695   0.022  0.00  0.00    +0.110 A 
ATOM     12  C   UNL     1       1.811  11.125   0.037  0.00  0.00    +0.277 A 
ATOM     13  O   UNL     1       0.909  10.306   0.042  0.00  0.00    -0.266 OA
ATOM     14  N   UNL     1       1.541  12.447   0.046  0.00  0.00    -0.242 N 
ATOM     15  H   UNL     1       0.614  12.732   0.056  0.00  0.00    +0.192 HD
ATOM     16  N   UNL     1       2.538  13.419   0.042  0.00  0.00    -0.175 NA
ATOM     17  C   UNL     1       6.789  11.749  -0.006  0.00  0.00    +0.087 C 
ENDBRANCH   1  10
BRANCH   2  18
ATOM     18  C   UNL     1       3.479   5.773  -0.003  0.00  0.00    +0.173 C 
BRANCH  18  19
ATOM     19  S   UNL     1       4.785   4.519  -0.022  0.00  0.00    -0.078 S 
BRANCH  19  20
ATOM     20  C   UNL     1       3.804   3.055  -0.019  0.00  0.00    +0.173 A 
ATOM     21  N   UNL     1       2.489   3.155  -0.006  0.00  0.00    -0.216 NA
ATOM     22  C   UNL     1       1.727   2.067  -0.003  0.00  0.00    +0.117 A 
ATOM     23  C   UNL     1       2.272   0.775  -0.016  0.00  0.00    +0.076 A 
ATOM     24  C   UNL     1       1.303  -0.334  -0.013  0.00  0.00    -0.023 A 
ATOM     25  C   UNL     1       0.002  -0.004   0.002  0.00  0.00    -0.004 A 
ATOM     26  S   UNL     1      -0.022   1.774   0.012  0.00  0.00    -0.073 S 
ATOM     27  C   UNL     1      -0.892  -1.215   0.007  0.00  0.00    +0.043 C 
ATOM     28  C   UNL     1       0.034  -2.377   0.430  0.00  0.00    +0.010 C 
ATOM     29  C   UNL     1       1.413  -1.862  -0.026  0.00  0.00    +0.037 C 
ATOM     30  C   UNL     1       3.700   0.696  -0.030  0.00  0.00    +0.263 A 
ATOM     31  O   UNL     1       4.260  -0.387  -0.041  0.00  0.00    -0.267 OA
ATOM     32  N   UNL     1       4.416   1.836  -0.031  0.00  0.00    -0.290 N 
ATOM     33  C   UNL     1       5.879   1.766  -0.045  0.00  0.00    +0.154 C 
ENDBRANCH  19  20
ENDBRANCH  18  19
ENDBRANCH   2  18
TORSDOF 4
