REMARK  Name = ZINC09816491
REMARK  7 active torsions:
REMARK  status: ('A' for Active; 'I' for Inactive)
REMARK    1  A    between atoms: C_1  and  O_2
REMARK    2  A    between atoms: O_2  and  C_3
REMARK    3  A    between atoms: C_3  and  C_4
REMARK    4  A    between atoms: C_12  and  C_13
REMARK    5  A    between atoms: N_15  and  C_16
REMARK    6  A    between atoms: C_20  and  S_22
REMARK    7  A    between atoms: S_22  and  N_25
REMARK                            x       y       z     vdW  Elec       q    Type
REMARK                         _______ _______ _______ _____ _____    ______ ____
ROOT
ATOM      1  C   UNL     1       3.322   3.481  -5.834  0.00  0.00    +0.255 C 
ATOM      2  O   UNL     1       4.403   2.936  -5.712  0.00  0.00    -0.269 OA
ATOM      3  N   UNL     1       2.335   3.224  -4.952  0.00  0.00    -0.281 N 
ATOM      4  H   UNL     1       1.454   3.606  -5.087  0.00  0.00    +0.155 HD
ENDROOT
BRANCH   1  13
ATOM      5  C   UNL     1       3.956   4.802  -7.920  0.00  0.00    +0.008 A 
ATOM      6  C   UNL     1       3.542   5.721  -8.899  0.00  0.00    +0.030 A 
ATOM      7  C   UNL     1       4.290   6.238  -9.992  0.00  0.00    +0.132 A 
ATOM      8  C   UNL     1       3.726   7.135 -10.861  0.00  0.00    +0.039 A 
ATOM      9  C   UNL     1       2.414   7.567 -10.707  0.00  0.00    +0.004 A 
ATOM     10  C   UNL     1       1.658   7.087  -9.657  0.00  0.00    +0.016 A 
ATOM     11  C   UNL     1       2.210   6.184  -8.774  0.00  0.00    +0.023 A 
ATOM     12  S   UNL     1       1.611   5.331  -7.337  0.00  0.00    -0.083 S 
ATOM     13  C   UNL     1       3.093   4.419  -6.941  0.00  0.00    +0.081 A 
ATOM     14  F   UNL     1       5.568   5.841 -10.175  0.00  0.00    -0.205 F 
BRANCH   5  15
ATOM     15  C   UNL     1       5.354   4.241  -7.954  0.00  0.00    +0.196 C 
BRANCH  15  17
ATOM     16  C   UNL     1       6.655   2.432  -8.836  0.00  0.00    +0.194 C 
ATOM     17  O   UNL     1       5.369   3.047  -8.739  0.00  0.00    -0.378 OA
ENDBRANCH  15  17
ENDBRANCH   5  15
ENDBRANCH   1  13
BRANCH   3  18
ATOM     18  C   UNL     1       2.582   2.407  -3.845  0.00  0.00    +0.036 A 
ATOM     19  C   UNL     1       3.452   1.330  -3.954  0.00  0.00    +0.023 A 
ATOM     20  C   UNL     1       3.693   0.525  -2.859  0.00  0.00    +0.004 A 
ATOM     21  C   UNL     1       3.074   0.794  -1.651  0.00  0.00    +0.029 A 
ATOM     22  C   UNL     1       2.203   1.862  -1.540  0.00  0.00    +0.110 A 
ATOM     23  C   UNL     1       1.958   2.671  -2.633  0.00  0.00    +0.052 A 
BRANCH  22  24
ATOM     24  S   UNL     1       1.411   2.196  -0.002  0.00  0.00    +0.073 S 
ATOM     25  O   UNL     1       1.071   3.575  -0.011  0.00  0.00    -0.150 OA
ATOM     26  O   UNL     1       2.228   1.619   1.008  0.00  0.00    -0.150 OA
BRANCH  24  27
ATOM     27  N   UNL     1      -0.016   1.357   0.006  0.00  0.00    -0.205 N 
ATOM     28  C   UNL     1      -0.005  -0.013  -0.007  0.00  0.00    +0.088 C 
ATOM     29  C   UNL     1       0.763  -2.171  -0.035  0.00  0.00    +0.114 C 
ATOM     30  C   UNL     1      -0.727  -2.272  -0.437  0.00  0.00    +0.028 C 
ATOM     31  C   UNL     1      -1.245  -0.880   0.004  0.00  0.00    +0.072 C 
ATOM     32  H   UNL     1      -0.860   1.835   0.017  0.00  0.00    +0.175 HD
ATOM     33  N   UNL     1       1.078  -0.726  -0.027  0.00  0.00    -0.375 N 
ATOM     34  H   UNL     1       2.029  -0.339  -0.035  0.00  0.00    +0.161 HD
ENDBRANCH  24  27
ENDBRANCH  22  24
ENDBRANCH   3  18
TORSDOF 6
