REMARK  Name = ZINC03228129
REMARK  5 active torsions:
REMARK  status: ('A' for Active; 'I' for Inactive)
REMARK    1  A    between atoms: C_7  and  O_11
REMARK    2  A    between atoms: O_11  and  C_12
REMARK    3  A    between atoms: C_12  and  C_13
REMARK    4  A    between atoms: C_16  and  C_28
REMARK    5  A    between atoms: C_19  and  C_21
REMARK                            x       y       z     vdW  Elec       q    Type
REMARK                         _______ _______ _______ _____ _____    ______ ____
ROOT
ATOM      1  C   UNL     1      -0.967  -4.947  -0.013  0.00  0.00    +0.270 C 
ATOM      2  O   UNL     1      -1.981  -4.282   0.001  0.00  0.00    -0.270 OA
ATOM      3  N   UNL     1      -1.043  -6.293  -0.018  0.00  0.00    -0.205 N 
ATOM      4  C   UNL     1      -2.267  -7.111  -0.016  0.00  0.00    +0.187 C 
ATOM      5  C   UNL     1      -1.774  -8.540  -0.026  0.00  0.00    +0.030 C 
ATOM      6  C   UNL     1      -0.444  -8.503  -0.033  0.00  0.00    +0.050 C 
ATOM      7  N   UNL     1       0.028  -7.197  -0.034  0.00  0.00    -0.261 N 
ATOM      8  H   UNL     1       0.965  -6.947  -0.043  0.00  0.00    +0.170 HD
ENDROOT
BRANCH   6   9
ATOM      9  C   UNL     1       0.424  -9.703  -0.044  0.00  0.00    -0.003 A 
ATOM     10  C   UNL     1      -0.144 -10.976  -0.053  0.00  0.00    +0.011 A 
ATOM     11  C   UNL     1       0.669 -12.091  -0.063  0.00  0.00    +0.020 A 
ATOM     12  C   UNL     1       2.046 -11.947  -0.065  0.00  0.00    +0.041 A 
ATOM     13  C   UNL     1       2.615 -10.684  -0.056  0.00  0.00    +0.020 A 
ATOM     14  C   UNL     1       1.811  -9.563  -0.051  0.00  0.00    +0.011 A 
ATOM     15 CL   UNL     1       3.064 -13.353  -0.077  0.00  0.00    -0.084 Cl
ENDBRANCH   6   9
BRANCH   4  16
ATOM     16  C   UNL     1      -3.076  -6.840   1.226  0.00  0.00    +0.131 A 
ATOM     17  C   UNL     1      -4.416  -6.744   1.286  0.00  0.00    +0.047 A 
ATOM     18  C   UNL     1      -4.748  -6.486   2.636  0.00  0.00    +0.041 A 
ATOM     19  C   UNL     1      -3.591  -6.440   3.320  0.00  0.00    +0.195 A 
ATOM     20  O   UNL     1      -2.582  -6.661   2.462  0.00  0.00    -0.466 OA
ENDBRANCH   4  16
BRANCH   1  21
ATOM     21  C   UNL     1       0.379  -4.268  -0.023  0.00  0.00    +0.328 C 
BRANCH  21  22
ATOM     22  O   UNL     1       0.197  -2.851  -0.014  0.00  0.00    -0.466 OA
BRANCH  22  29
ATOM     23  C   UNL     1      -0.016   1.359   0.009  0.00  0.00    +0.001 A 
ATOM     24  C   UNL     1       1.168   2.091   0.002  0.00  0.00    +0.002 A 
ATOM     25  C   UNL     1       2.380   1.467  -0.013  0.00  0.00    +0.028 A 
ATOM     26  C   UNL     1       2.437   0.066  -0.021  0.00  0.00    +0.078 A 
ATOM     27  C   UNL     1       1.230  -0.677  -0.013  0.00  0.00    +0.062 A 
ATOM     28  C   UNL     1       0.002  -0.004   0.002  0.00  0.00    +0.015 A 
ATOM     29  C   UNL     1       1.314  -2.088  -0.021  0.00  0.00    +0.226 A 
ATOM     30  N   UNL     1       2.516  -2.643  -0.036  0.00  0.00    -0.201 NA
ATOM     31  C   UNL     1       3.618  -1.909  -0.043  0.00  0.00    +0.225 A 
ATOM     32  N   UNL     1       3.601  -0.598  -0.036  0.00  0.00    -0.235 NA
ENDBRANCH  22  29
ENDBRANCH  21  22
ENDBRANCH   1  21
TORSDOF 5
