REMARK  Name = ZINC09883705
REMARK  7 active torsions:
REMARK  status: ('A' for Active; 'I' for Inactive)
REMARK    1  A    between atoms: C_1  and  C_2
REMARK    2  A    between atoms: C_2  and  C_26
REMARK    3  A    between atoms: N_5  and  C_9
REMARK    4  A    between atoms: C_9  and  C_10
REMARK    5  A    between atoms: N_12  and  C_13
REMARK    6  A    between atoms: C_13  and  C_14
REMARK    7  A    between atoms: C_17  and  C_19
REMARK                            x       y       z     vdW  Elec       q    Type
REMARK                         _______ _______ _______ _____ _____    ______ ____
ROOT
ATOM      1  C   UNL     1       1.886   3.761   1.424  0.00  0.00    +0.231 C 
ATOM      2  O   UNL     1       1.655   3.006   2.344  0.00  0.00    -0.274 OA
ATOM      3  N   UNL     1       2.291   5.022   1.672  0.00  0.00    -0.307 N 
ATOM      4  H   UNL     1       2.476   5.626   0.936  0.00  0.00    +0.149 HD
ENDROOT
BRANCH   1   5
ATOM      5  C   UNL     1       1.720   3.289   0.002  0.00  0.00    +0.213 C 
BRANCH   5  10
ATOM      6  C   UNL     1      -0.666  -0.558   1.262  0.00  0.00    +0.047 C 
ATOM      7  C   UNL     1       0.002  -0.004   0.002  0.00  0.00    +0.135 C 
ATOM      8  C   UNL     1      -0.018   1.512   0.010  0.00  0.00    +0.251 C 
ATOM      9  O   UNL     1      -0.995   2.231   0.019  0.00  0.00    -0.272 OA
ATOM     10  N   UNL     1       1.274   1.894   0.000  0.00  0.00    -0.215 N 
ATOM     11  C   UNL     1       2.099   0.841  -0.013  0.00  0.00    +0.310 C 
ATOM     12  O   UNL     1       3.311   0.933  -0.025  0.00  0.00    -0.252 OA
ATOM     13  N   UNL     1       1.438  -0.331  -0.013  0.00  0.00    -0.281 N 
ATOM     14  H   UNL     1       1.831  -1.218  -0.022  0.00  0.00    +0.152 HD
BRANCH   7  15
ATOM     15  C   UNL     1      -0.676  -0.537  -1.234  0.00  0.00    -0.016 A 
ATOM     16  C   UNL     1      -1.704   0.177  -1.820  0.00  0.00    +0.006 A 
ATOM     17  C   UNL     1      -2.323  -0.309  -2.956  0.00  0.00    +0.000 A 
ATOM     18  C   UNL     1      -1.921  -1.514  -3.501  0.00  0.00    +0.000 A 
ATOM     19  C   UNL     1      -0.896  -2.231  -2.911  0.00  0.00    +0.000 A 
ATOM     20  C   UNL     1      -0.274  -1.742  -1.778  0.00  0.00    +0.006 A 
ENDBRANCH   7  15
ENDBRANCH   5  10
ENDBRANCH   1   5
BRANCH   3  21
ATOM     21  C   UNL     1       2.453   5.481   3.054  0.00  0.00    +0.178 C 
BRANCH  21  22
ATOM     22  C   UNL     1       2.911   6.917   3.056  0.00  0.00    +0.123 A 
ATOM     23  C   UNL     1       2.108   7.998   3.069  0.00  0.00    +0.047 A 
ATOM     24  C   UNL     1       2.943   9.133   3.066  0.00  0.00    +0.050 A 
ATOM     25  C   UNL     1       4.223   8.677   3.052  0.00  0.00    +0.135 A 
ATOM     26  O   UNL     1       4.189   7.330   3.052  0.00  0.00    -0.458 OA
BRANCH  25  27
ATOM     27  C   UNL     1       5.442   9.513   3.045  0.00  0.00    +0.017 A 
ATOM     28  C   UNL     1       5.337  10.905   3.046  0.00  0.00    +0.013 A 
ATOM     29  C   UNL     1       6.477  11.680   3.045  0.00  0.00    +0.021 A 
ATOM     30  C   UNL     1       7.725  11.081   3.030  0.00  0.00    +0.041 A 
ATOM     31  C   UNL     1       7.836   9.700   3.023  0.00  0.00    +0.021 A 
ATOM     32  C   UNL     1       6.703   8.914   3.030  0.00  0.00    +0.013 A 
ATOM     33 CL   UNL     1       9.157  12.063   3.020  0.00  0.00    -0.084 Cl
ENDBRANCH  25  27
ENDBRANCH  21  22
ENDBRANCH   3  21
TORSDOF 6
