REMARK  Name = ZINC23970380
REMARK  11 active torsions:
REMARK  status: ('A' for Active; 'I' for Inactive)
REMARK    1  A    between atoms: C_1  and  C_2
REMARK    2  A    between atoms: C_8  and  N_10
REMARK    3  A    between atoms: C_14  and  C_16
REMARK    4  A    between atoms: C_16  and  S_17
REMARK    5  A    between atoms: S_17  and  C_18
REMARK    6  A    between atoms: C_21  and  C_30
REMARK    7  A    between atoms: N_22  and  C_23
REMARK    8  A    between atoms: C_30  and  C_32
REMARK    9  A    between atoms: C_30  and  N_33
REMARK   10  A    between atoms: N_33  and  C_34
REMARK   11  A    between atoms: N_33  and  C_35
REMARK                            x       y       z     vdW  Elec       q    Type
REMARK                         _______ _______ _______ _____ _____    ______ ____
ROOT
ATOM      1  C   UNL     1      -8.485   1.706   4.858  0.00  0.00    +0.197 A 
ATOM      2  N   UNL     1      -7.734   2.006   5.892  0.00  0.00    -0.122 NA
ATOM      3  N   UNL     1      -8.471   2.403   6.867  0.00  0.00    -0.135 NA
ATOM      4  C   UNL     1      -9.727   2.381   6.519  0.00  0.00    +0.125 A 
ATOM      5  N   UNL     1      -9.782   1.941   5.223  0.00  0.00    -0.275 N 
ENDROOT
BRANCH   5   6
ATOM      6  C   UNL     1     -10.930   1.766   4.436  0.00  0.00    +0.050 A 
ATOM      7  C   UNL     1     -11.704   2.862   4.082  0.00  0.00    +0.028 A 
ATOM      8  C   UNL     1     -12.831   2.687   3.302  0.00  0.00    +0.022 A 
ATOM      9  C   UNL     1     -13.193   1.419   2.882  0.00  0.00    +0.041 A 
ATOM     10  C   UNL     1     -12.426   0.324   3.239  0.00  0.00    +0.022 A 
ATOM     11  C   UNL     1     -11.296   0.495   4.014  0.00  0.00    +0.028 A 
ATOM     12 CL   UNL     1     -14.614   1.202   1.908  0.00  0.00    -0.084 Cl
ENDBRANCH   5   6
BRANCH   4  13
ATOM     13  C   UNL     1     -10.900   2.772   7.380  0.00  0.00    -0.003 C 
ATOM     14  C   UNL     1     -11.167   1.671   8.408  0.00  0.00    -0.005 C 
BRANCH  13  15
ATOM     15  N   UNL     1     -10.598   4.030   8.077  0.00  0.00    +0.382 N 
ATOM     16  C   UNL     1     -11.763   4.505   8.834  0.00  0.00    -0.096 C 
ATOM     17  C   UNL     1      -9.427   3.880   8.951  0.00  0.00    -0.096 C 
ATOM     18  H   UNL     1     -10.357   4.788   7.316  0.00  0.00    -0.082 HD
ENDBRANCH  13  15
ENDBRANCH   4  13
BRANCH   1  19
ATOM     19  S   UNL     1      -7.927   1.119   3.293  0.00  0.00    -0.076 S 
BRANCH  19  20
ATOM     20  C   UNL     1      -6.142   1.080   3.590  0.00  0.00    +0.173 C 
BRANCH  20  25
ATOM     21  N   UNL     1      -2.119  -0.061   1.218  0.00  0.00    -0.296 N 
ATOM     22  C   UNL     1      -3.462   0.049   1.230  0.00  0.00    +0.306 C 
ATOM     23  O   UNL     1      -4.105  -0.243   0.240  0.00  0.00    -0.252 OA
ATOM     24  N   UNL     1      -4.093   0.484   2.339  0.00  0.00    -0.239 N 
ATOM     25  C   UNL     1      -5.436   0.594   2.350  0.00  0.00    +0.231 C 
ATOM     26  O   UNL     1      -6.077   0.303   1.363  0.00  0.00    -0.274 OA
ATOM     27  H   UNL     1      -1.538   0.203   2.114  0.00  0.00    +0.151 HD
ATOM     28  H   UNL     1      -3.512   0.748   3.234  0.00  0.00    +0.159 HD
BRANCH  21  35
ATOM     29  C   UNL     1      -0.019   1.526   0.010  0.00  0.00    +0.009 C 
ATOM     30  C   UNL     1       0.002  -0.004   0.002  0.00  0.00    +0.006 C 
ATOM     31  C   UNL     1       0.742  -0.511   1.242  0.00  0.00    +0.005 C 
ATOM     32  C   UNL     1       0.763  -2.041   1.233  0.00  0.00    +0.000 C 
ATOM     33  C   UNL     1      -0.673  -2.570   1.244  0.00  0.00    +0.002 C 
ATOM     34  C   UNL     1      -1.413  -2.063   0.004  0.00  0.00    +0.022 C 
ATOM     35  C   UNL     1      -1.433  -0.534   0.013  0.00  0.00    +0.077 C 
ENDBRANCH  21  35
ENDBRANCH  20  25
ENDBRANCH  19  20
ENDBRANCH   1  19
TORSDOF 7
