REMARK  Name = ZINC39583273
REMARK  2 active torsions:
REMARK  status: ('A' for Active; 'I' for Inactive)
REMARK    1  A    between atoms: C_1  and  C_2
REMARK    2  A    between atoms: C_6  and  C_8
REMARK                            x       y       z     vdW  Elec       q    Type
REMARK                         _______ _______ _______ _____ _____    ______ ____
ROOT
ATOM      1  C   UNL     1      -0.019   1.526   0.010  0.00  0.00    +0.037 C 
ATOM      2  C   UNL     1       0.002  -0.004   0.002  0.00  0.00    +0.125 C 
ATOM      3  C   UNL     1       0.734  -0.511  -1.221  0.00  0.00    +0.001 C 
ATOM      4  C   UNL     1       1.772  -1.209  -0.763  0.00  0.00    +0.020 C 
ATOM      5  C   UNL     1       1.766  -1.190   0.700  0.00  0.00    +0.033 C 
ATOM      6  N   UNL     1       0.763  -0.508   1.152  0.00  0.00    -0.281 NA
ATOM      7  C   UNL     1       2.791  -1.874   1.567  0.00  0.00    +0.065 C 
ENDROOT
TORSDOF 0
