REMARK  Name = ZINC34876071
REMARK  7 active torsions:
REMARK  status: ('A' for Active; 'I' for Inactive)
REMARK    1  A    between atoms: C_1  and  O_2
REMARK    2  A    between atoms: O_2  and  C_3
REMARK    3  A    between atoms: C_6  and  C_9
REMARK    4  A    between atoms: N_15  and  C_22
REMARK    5  A    between atoms: C_17  and  C_18
REMARK    6  A    between atoms: C_29  and  N_33
REMARK    7  A    between atoms: C_30  and  C_31
REMARK                            x       y       z     vdW  Elec       q    Type
REMARK                         _______ _______ _______ _____ _____    ______ ____
ROOT
ATOM      1  C   UNL     1       2.770  -2.904   4.064  0.00  0.00    +0.079 C 
ATOM      2  C   UNL     1       1.708  -3.423   4.989  0.00  0.00    +0.118 C 
ATOM      3  C   UNL     1       2.157  -4.593   5.880  0.00  0.00    +0.294 C 
ATOM      4  N   UNL     1       0.823  -5.221   6.130  0.00  0.00    -0.185 N 
ATOM      5  N   UNL     1       0.042  -4.943   4.997  0.00  0.00    -0.176 NA
ATOM      6  C   UNL     1       0.475  -3.961   4.324  0.00  0.00    +0.148 C 
ATOM      7  O   UNL     1       2.898  -5.554   5.126  0.00  0.00    -0.455 OA
ATOM      8  C   UNL     1       3.706  -5.193   4.128  0.00  0.00    +0.194 C 
ATOM      9  C   UNL     1       3.654  -3.997   3.536  0.00  0.00    +0.094 C 
ENDROOT
BRANCH   1  13
ATOM     10  C   UNL     1       0.890  -0.934   0.770  0.00  0.00    +0.120 A 
ATOM     11  C   UNL     1       1.404  -2.213   0.613  0.00  0.00    +0.046 A 
ATOM     12  C   UNL     1       2.011  -2.848   1.679  0.00  0.00    +0.008 A 
ATOM     13  C   UNL     1       2.107  -2.209   2.902  0.00  0.00    -0.038 A 
ATOM     14  C   UNL     1       1.595  -0.935   3.061  0.00  0.00    +0.008 A 
ATOM     15  C   UNL     1       0.993  -0.294   1.996  0.00  0.00    +0.046 A 
BRANCH  10  17
ATOM     16  C   UNL     1       0.223  -1.028  -1.510  0.00  0.00    +0.277 C 
ATOM     17  O   UNL     1       0.293  -0.308  -0.278  0.00  0.00    -0.495 OA
ENDBRANCH  10  17
ENDBRANCH   1  13
BRANCH   4  18
ATOM     18  C   UNL     1       0.432  -5.939   7.262  0.00  0.00    +0.055 A 
ATOM     19  C   UNL     1       1.325  -6.125   8.311  0.00  0.00    +0.025 A 
ATOM     20  C   UNL     1       0.935  -6.834   9.429  0.00  0.00    +0.002 A 
ATOM     21  C   UNL     1      -0.342  -7.360   9.507  0.00  0.00    +0.000 A 
ATOM     22  C   UNL     1      -1.233  -7.176   8.465  0.00  0.00    +0.002 A 
ATOM     23  C   UNL     1      -0.852  -6.463   7.346  0.00  0.00    +0.025 A 
ENDBRANCH   4  18
BRANCH   6  24
ATOM     24  C   UNL     1      -0.164  -3.418   3.071  0.00  0.00    +0.432 C 
ATOM     25  F   UNL     1      -1.524  -3.748   3.061  0.00  0.00    -0.165 F 
ATOM     26  F   UNL     1      -0.021  -2.027   3.040  0.00  0.00    -0.165 F 
ATOM     27  F   UNL     1       0.459  -3.977   1.950  0.00  0.00    -0.165 F 
ENDBRANCH   6  24
BRANCH   8  28
ATOM     28  N   UNL     1       4.609  -6.112   3.655  0.00  0.00    -0.329 N 
ATOM     29  H   UNL     1       4.648  -6.999   4.047  0.00  0.00    +0.145 HD
ATOM     30  H   UNL     1       5.207  -5.875   2.930  0.00  0.00    +0.145 HD
ENDBRANCH   8  28
BRANCH   9  31
ATOM     31  C   UNL     1       4.490  -3.739   2.402  0.00  0.00    +0.100 C 
ATOM     32  N   UNL     1       5.153  -3.535   1.503  0.00  0.00    -0.191 NA
ENDBRANCH   9  31
TORSDOF 6
