REMARK  Name = ZINC28296652
REMARK  10 active torsions:
REMARK  status: ('A' for Active; 'I' for Inactive)
REMARK    1  A    between atoms: C_1  and  C_2
REMARK    2  A    between atoms: C_4  and  C_34
REMARK    3  A    between atoms: C_8  and  C_28
REMARK    4  A    between atoms: C_9  and  C_22
REMARK    5  A    between atoms: N_10  and  C_11
REMARK    6  A    between atoms: C_11  and  C_12
REMARK    7  A    between atoms: C_12  and  C_14
REMARK    8  A    between atoms: C_12  and  O_21
REMARK    9  A    between atoms: C_14  and  N_15
REMARK   10  A    between atoms: C_19  and  C_20
REMARK                            x       y       z     vdW  Elec       q    Type
REMARK                         _______ _______ _______ _____ _____    ______ ____
ROOT
ATOM      1  C   UNL     1       3.909   1.919   3.463  0.00  0.00    +0.044 C 
ATOM      2  C   UNL     1       4.074   2.928   2.356  0.00  0.00    -0.049 A 
ATOM      3  C   UNL     1       5.329   3.453   2.083  0.00  0.00    +0.008 A 
ATOM      4  C   UNL     1       5.501   4.376   1.075  0.00  0.00    -0.026 A 
ATOM      5  C   UNL     1       4.406   4.790   0.321  0.00  0.00    +0.053 A 
ATOM      6  C   UNL     1       3.136   4.259   0.607  0.00  0.00    +0.009 A 
ATOM      7  C   UNL     1       2.986   3.319   1.628  0.00  0.00    +0.014 A 
ATOM      8  C   UNL     1       2.205   4.878  -0.348  0.00  0.00    +0.015 A 
ATOM      9  C   UNL     1       2.956   5.732  -1.128  0.00  0.00    +0.058 A 
ATOM     10  N   UNL     1       4.268   5.676  -0.725  0.00  0.00    -0.337 N 
ATOM     11  C   UNL     1       6.870   4.938   0.790  0.00  0.00    +0.046 C 
ENDROOT
BRANCH   9  12
ATOM     12  C   UNL     1       2.432   6.574  -2.223  0.00  0.00    -0.001 A 
ATOM     13  C   UNL     1       2.650   7.953  -2.213  0.00  0.00    +0.010 A 
ATOM     14  C   UNL     1       2.164   8.732  -3.242  0.00  0.00    +0.001 A 
ATOM     15  C   UNL     1       1.450   8.152  -4.276  0.00  0.00    +0.000 A 
ATOM     16  C   UNL     1       1.226   6.786  -4.289  0.00  0.00    +0.001 A 
ATOM     17  C   UNL     1       1.712   5.994  -3.270  0.00  0.00    +0.010 A 
ENDBRANCH   9  12
BRANCH   8  18
ATOM     18  C   UNL     1       0.749   4.635  -0.450  0.00  0.00    -0.015 A 
ATOM     19  C   UNL     1       0.272   3.378  -0.823  0.00  0.00    +0.008 A 
ATOM     20  C   UNL     1      -1.087   3.159  -0.915  0.00  0.00    +0.001 A 
ATOM     21  C   UNL     1      -1.976   4.183  -0.643  0.00  0.00    +0.000 A 
ATOM     22  C   UNL     1      -1.510   5.431  -0.267  0.00  0.00    +0.001 A 
ATOM     23  C   UNL     1      -0.153   5.663  -0.172  0.00  0.00    +0.008 A 
ENDBRANCH   8  18
BRANCH  10  24
ATOM     24  C   UNL     1       5.362   6.448  -1.320  0.00  0.00    +0.155 C 
BRANCH  24  25
ATOM     25  C   UNL     1       6.040   5.615  -2.410  0.00  0.00    +0.154 C 
BRANCH  25  26
ATOM     26  O   UNL     1       5.105   5.350  -3.458  0.00  0.00    -0.388 OA
ATOM     27  H   UNL     1       5.413   4.760  -4.333  0.00  0.00    +0.210 HD
ENDBRANCH  25  26
BRANCH  25  28
ATOM     28  C   UNL     1       7.233   6.388  -2.974  0.00  0.00    +0.156 C 
BRANCH  28  29
ATOM     29  N   UNL     1       7.953   5.544  -3.931  0.00  0.00    -0.334 N 
ATOM     30  C   UNL     1       9.046   4.764  -3.665  0.00  0.00    +0.105 A 
ATOM     31  C   UNL     1       9.385   4.161  -4.820  0.00  0.00    +0.101 A 
ATOM     32  N   UNL     1       8.523   4.561  -5.766  0.00  0.00    -0.350 N 
ATOM     33  C   UNL     1       7.658   5.385  -5.240  0.00  0.00    +0.084 A 
ATOM     34  C   UNL     1       6.522   6.052  -5.971  0.00  0.00    +0.084 C 
ATOM     35  H   UNL     1       8.623   4.188  -6.796  0.00  0.00    +0.166 HD
ENDBRANCH  28  29
ENDBRANCH  25  28
ENDBRANCH  24  25
ENDBRANCH  10  24
TORSDOF 7
