REMARK  Name = ZINC39683264
REMARK  12 active torsions:
REMARK  status: ('A' for Active; 'I' for Inactive)
REMARK    1  A    between atoms: C_1  and  C_2
REMARK    2  A    between atoms: C_2  and  C_3
REMARK    3  A    between atoms: C_2  and  C_4
REMARK    4  A    between atoms: C_4  and  O_5
REMARK    5  A    between atoms: O_5  and  C_6
REMARK    6  A    between atoms: C_6  and  C_7
REMARK    7  A    between atoms: C_7  and  C_8
REMARK    8  A    between atoms: C_8  and  N_9
REMARK    9  A    between atoms: C_10  and  C_12
REMARK   10  A    between atoms: C_23  and  C_25
REMARK   11  A    between atoms: C_25  and  O_26
REMARK   12  A    between atoms: O_26  and  C_27
REMARK                            x       y       z     vdW  Elec       q    Type
REMARK                         _______ _______ _______ _____ _____    ______ ____
ROOT
ATOM      1  C   UNL     1      -0.896  -0.040   9.681  0.00  0.00    +0.100 C 
ATOM      2  C   UNL     1      -2.322  -0.620   9.549  0.00  0.00    +0.121 C 
ATOM      3  N   UNL     1      -2.295  -1.865  10.353  0.00  0.00    -0.297 N 
ATOM      4  C   UNL     1      -1.481  -1.518  11.542  0.00  0.00    +0.115 C 
ATOM      5  C   UNL     1      -0.349  -0.629  10.992  0.00  0.00    -0.004 C 
ATOM      6  C   UNL     1      -0.028   0.489  11.979  0.00  0.00    -0.010 C 
ATOM      7  C   UNL     1       0.569  -0.117  13.253  0.00  0.00    -0.082 C 
ATOM      8  N   UNL     1       1.786  -0.866  12.917  0.00  0.00    +0.379 N 
ATOM      9  C   UNL     1       1.454  -1.995  12.040  0.00  0.00    -0.082 C 
ATOM     10  C   UNL     1       0.894  -1.468  10.716  0.00  0.00    -0.010 C 
ATOM     11  C   UNL     1      -2.878  -3.046  10.066  0.00  0.00    +0.253 C 
ATOM     12  O   UNL     1      -2.764  -3.980  10.832  0.00  0.00    -0.272 OA
ATOM     13  H   UNL     1       2.436  -0.255  12.444  0.00  0.00    -0.086 HD
ATOM     14  H   UNL     1       2.211  -1.213  13.764  0.00  0.00    -0.086 HD
ENDROOT
BRANCH   1  16
ATOM     15  N   UNL     1       0.977   0.304   8.102  0.00  0.00    -0.315 N 
ATOM     16  C   UNL     1      -0.044  -0.472   8.515  0.00  0.00    +0.218 C 
ATOM     17  O   UNL     1      -0.277  -1.520   7.949  0.00  0.00    -0.275 OA
ATOM     18  H   UNL     1       1.163   1.142   8.554  0.00  0.00    +0.149 HD
BRANCH  15  19
ATOM     19  C   UNL     1       1.805  -0.116   6.969  0.00  0.00    +0.106 C 
BRANCH  19  20
ATOM     20  C   UNL     1       2.884   0.936   6.708  0.00  0.00    +0.047 C 
BRANCH  20  21
ATOM     21  C   UNL     1       3.749   0.497   5.525  0.00  0.00    +0.161 C 
BRANCH  21  22
ATOM     22  O   UNL     1       4.757   1.480   5.281  0.00  0.00    -0.379 OA
BRANCH  22  23
ATOM     23  C   UNL     1       5.625   1.165   4.190  0.00  0.00    +0.162 C 
BRANCH  23  25
ATOM     24  C   UNL     1       7.561   2.329   5.255  0.00  0.00    +0.009 C 
ATOM     25  C   UNL     1       6.658   2.280   4.021  0.00  0.00    +0.009 C 
ATOM     26  C   UNL     1       7.507   2.005   2.778  0.00  0.00    +0.009 C 
ENDBRANCH  23  25
ENDBRANCH  22  23
ENDBRANCH  21  22
ENDBRANCH  20  21
ENDBRANCH  19  20
ENDBRANCH  15  19
ENDBRANCH   1  16
BRANCH  11  27
ATOM     27  C   UNL     1      -3.673  -3.205   8.796  0.00  0.00    +0.324 C 
BRANCH  27  28
ATOM     28  O   UNL     1      -4.187  -4.536   8.720  0.00  0.00    -0.483 OA
BRANCH  28  29
ATOM     29  C   UNL     1      -4.933  -4.848   7.627  0.00  0.00    +0.123 A 
ATOM     30  C   UNL     1      -5.159  -3.894   6.645  0.00  0.00    +0.046 A 
ATOM     31  C   UNL     1      -5.916  -4.213   5.534  0.00  0.00    +0.005 A 
ATOM     32  C   UNL     1      -6.449  -5.482   5.400  0.00  0.00    +0.020 A 
ATOM     33  C   UNL     1      -6.225  -6.435   6.378  0.00  0.00    +0.044 A 
ATOM     34  C   UNL     1      -5.463  -6.122   7.489  0.00  0.00    +0.065 A 
ATOM     35 CL   UNL     1      -6.896  -8.027   6.207  0.00  0.00    -0.083 Cl
ENDBRANCH  28  29
ENDBRANCH  27  28
ENDBRANCH  11  27
TORSDOF 10
