REMARK  Name = ZINC01771780
REMARK  14 active torsions:
REMARK  status: ('A' for Active; 'I' for Inactive)
REMARK    1  A    between atoms: C_1  and  C_2
REMARK    2  A    between atoms: C_2  and  C_3
REMARK    3  A    between atoms: C_2  and  C_4
REMARK    4  A    between atoms: C_4  and  N_67
REMARK    5  A    between atoms: C_5  and  C_6
REMARK    6  A    between atoms: C_5  and  N_67
REMARK    7  A    between atoms: C_7  and  O_32
REMARK    8  A    between atoms: C_13  and  C_28
REMARK    9  A    between atoms: C_14  and  O_17
REMARK   10  A    between atoms: O_17  and  C_18
REMARK   11  A    between atoms: C_33  and  C_34
REMARK   12  A    between atoms: C_33  and  N_67
REMARK   13  A    between atoms: C_34  and  C_35
REMARK   14  A    between atoms: C_34  and  C_36
REMARK                            x       y       z     vdW  Elec       q    Type
REMARK                         _______ _______ _______ _____ _____    ______ ____
ROOT
ATOM      1  C   UNL     1       6.527   3.740   0.711  0.00  0.00    +0.020 A 
ATOM      2  C   UNL     1       6.958   4.048  -0.568  0.00  0.00    +0.122 A 
ATOM      3  C   UNL     1       6.347   3.472  -1.680  0.00  0.00    +0.046 A 
ATOM      4  C   UNL     1       5.313   2.594  -1.523  0.00  0.00    +0.019 A 
ATOM      5  C   UNL     1       4.867   2.272  -0.240  0.00  0.00    +0.068 A 
ATOM      6  C   UNL     1       5.477   2.849   0.888  0.00  0.00    +0.144 A 
ATOM      7  O   UNL     1       5.038   2.531   2.122  0.00  0.00    -0.447 OA
ATOM      8  C   UNL     1       4.028   1.675   2.327  0.00  0.00    +0.254 A 
ATOM      9  C   UNL     1       3.373   1.066   1.318  0.00  0.00    +0.222 A 
ATOM     10  C   UNL     1       3.759   1.326  -0.028  0.00  0.00    +0.235 A 
ATOM     11  O   UNL     1       3.192   0.790  -0.965  0.00  0.00    -0.283 OA
ENDROOT
BRANCH   8  12
ATOM     12  C   UNL     1       3.606   1.381   3.743  0.00  0.00    +0.454 C 
ATOM     13  F   UNL     1       4.333   0.289   4.229  0.00  0.00    -0.163 F 
ATOM     14  F   UNL     1       3.854   2.501   4.545  0.00  0.00    -0.163 F 
ATOM     15  F   UNL     1       2.240   1.081   3.770  0.00  0.00    -0.163 F 
ENDBRANCH   8  12
BRANCH   2  16
ATOM     16  O   UNL     1       7.984   4.919  -0.741  0.00  0.00    -0.506 OA
ATOM     17  H   UNL     1       8.856   4.501  -0.758  0.00  0.00    +0.292 HD
ENDBRANCH   2  16
BRANCH   1  18
ATOM     18  C   UNL     1       7.195   4.369   1.907  0.00  0.00    -0.036 C 
BRANCH  18  19
ATOM     19  N   UNL     1       8.330   3.518   2.323  0.00  0.00    +0.383 N 
ATOM     20  H   UNL     1       8.962   3.391   1.523  0.00  0.00    -0.081 HD
BRANCH  19  21
ATOM     21  C   UNL     1       9.072   4.169   3.423  0.00  0.00    -0.075 C 
BRANCH  21  23
ATOM     22  C   UNL     1       9.341   6.290   2.130  0.00  0.00    +0.005 C 
ATOM     23  C   UNL     1      10.084   5.144   2.819  0.00  0.00    -0.034 C 
ATOM     24  C   UNL     1      10.975   5.707   3.928  0.00  0.00    +0.005 C 
ENDBRANCH  21  23
ENDBRANCH  19  21
BRANCH  19  25
ATOM     25  C   UNL     1       7.836   2.195   2.760  0.00  0.00    -0.075 C 
BRANCH  25  26
ATOM     26  C   UNL     1       9.028   1.245   2.892  0.00  0.00    -0.034 C 
ATOM     27  C   UNL     1       8.547  -0.103   3.433  0.00  0.00    +0.005 C 
ATOM     28  C   UNL     1       9.674   1.042   1.520  0.00  0.00    +0.005 C 
ENDBRANCH  25  26
ENDBRANCH  19  25
ENDBRANCH  18  19
ENDBRANCH   1  18
BRANCH   9  29
ATOM     29  O   UNL     1       2.353   0.205   1.585  0.00  0.00    -0.448 OA
BRANCH  29  30
ATOM     30  C   UNL     1       1.095   0.712   1.667  0.00  0.00    +0.129 A 
ATOM     31  C   UNL     1       0.889   2.082   1.477  0.00  0.00    +0.047 A 
ATOM     32  C   UNL     1      -0.358   2.618   1.553  0.00  0.00    +0.012 A 
ATOM     33  C   UNL     1      -1.459   1.787   1.826  0.00  0.00    -0.018 A 
ATOM     34  C   UNL     1      -2.761   2.309   1.911  0.00  0.00    +0.008 A 
ATOM     35  C   UNL     1      -3.804   1.476   2.176  0.00  0.00    +0.001 A 
ATOM     36  C   UNL     1      -3.602   0.110   2.365  0.00  0.00    +0.001 A 
ATOM     37  C   UNL     1      -2.355  -0.431   2.289  0.00  0.00    +0.008 A 
ATOM     38  C   UNL     1      -1.254   0.397   2.012  0.00  0.00    -0.014 A 
ATOM     39  C   UNL     1       0.048  -0.124   1.933  0.00  0.00    +0.054 A 
ENDBRANCH  29  30
ENDBRANCH   9  29
TORSDOF 10
