REMARK  Name = ZINC08718194
REMARK  10 active torsions:
REMARK  status: ('A' for Active; 'I' for Inactive)
REMARK    1  A    between atoms: C_1  and  N_59
REMARK    2  A    between atoms: C_2  and  C_3
REMARK    3  A    between atoms: C_2  and  N_59
REMARK    4  A    between atoms: C_6  and  O_10
REMARK    5  A    between atoms: O_10  and  C_11
REMARK    6  A    between atoms: C_12  and  N_13
REMARK    7  A    between atoms: C_12  and  N_59
REMARK    8  A    between atoms: C_16  and  C_20
REMARK    9  A    between atoms: C_16  and  C_27
REMARK   10  A    between atoms: C_20  and  C_21
REMARK                            x       y       z     vdW  Elec       q    Type
REMARK                         _______ _______ _______ _____ _____    ______ ____
ROOT
ATOM      1  N   UNL     1       1.048   2.037   0.003  0.00  0.00    -0.241 N 
ATOM      2  C   UNL     1      -0.014   1.208   0.009  0.00  0.00    +0.250 C 
ATOM      3  O   UNL     1       0.002  -0.004   0.002  0.00  0.00    -0.272 OA
ATOM      4  C   UNL     1      -1.235   2.107   0.018  0.00  0.00    +0.142 C 
ATOM      5  N   UNL     1      -0.664   3.465   0.026  0.00  0.00    -0.281 N 
ATOM      6  C   UNL     1       0.673   3.321   0.013  0.00  0.00    +0.308 C 
ATOM      7  O   UNL     1       1.453   4.253   0.010  0.00  0.00    -0.252 OA
ATOM      8  H   UNL     1      -1.157   4.301   0.035  0.00  0.00    +0.152 HD
ENDROOT
BRANCH   4   9
ATOM      9  C   UNL     1      -2.067   1.885  -1.218  0.00  0.00    -0.015 A 
ATOM     10  C   UNL     1      -3.075   0.940  -1.213  0.00  0.00    +0.006 A 
ATOM     11  C   UNL     1      -3.841   0.740  -2.346  0.00  0.00    +0.000 A 
ATOM     12  C   UNL     1      -3.593   1.478  -3.488  0.00  0.00    +0.000 A 
ATOM     13  C   UNL     1      -2.580   2.420  -3.495  0.00  0.00    +0.000 A 
ATOM     14  C   UNL     1      -1.817   2.623  -2.361  0.00  0.00    +0.006 A 
ENDBRANCH   4   9
BRANCH   1  15
ATOM     15  C   UNL     1       2.443   1.587  -0.013  0.00  0.00    +0.043 C 
BRANCH  15  17
ATOM     16  C   UNL     1       3.281   2.744  -1.967  0.00  0.00    -0.093 C 
ATOM     17  N   UNL     1       2.873   1.434  -1.418  0.00  0.00    +0.391 N 
ATOM     18  H   UNL     1       2.087   1.071  -1.970  0.00  0.00    -0.079 HD
BRANCH  17  19
ATOM     19  C   UNL     1       3.999   0.479  -1.501  0.00  0.00    -0.041 C 
BRANCH  19  20
ATOM     20  C   UNL     1       4.272   0.173  -2.951  0.00  0.00    -0.061 A 
ATOM     21  C   UNL     1       5.183   0.937  -3.657  0.00  0.00    +0.005 A 
ATOM     22  C   UNL     1       5.437   0.659  -4.987  0.00  0.00    +0.049 A 
ATOM     23  C   UNL     1       4.776  -0.386  -5.614  0.00  0.00    +0.155 A 
ATOM     24  C   UNL     1       3.861  -1.152  -4.904  0.00  0.00    +0.165 A 
ATOM     25  C   UNL     1       3.615  -0.873  -3.571  0.00  0.00    +0.044 A 
ATOM     26  F   UNL     1       3.216  -2.172  -5.511  0.00  0.00    -0.202 F 
BRANCH  23  27
ATOM     27  O   UNL     1       5.024  -0.660  -6.923  0.00  0.00    -0.492 OA
ATOM     28  C   UNL     1       5.977   0.169  -7.590  0.00  0.00    +0.277 C 
ENDBRANCH  23  27
ENDBRANCH  19  20
ENDBRANCH  17  19
ENDBRANCH  15  17
ENDBRANCH   1  15
BRANCH   4  29
ATOM     29  C   UNL     1      -2.068   1.870   1.279  0.00  0.00    +0.075 C 
BRANCH  29  30
ATOM     30  C   UNL     1      -1.268   2.268   2.493  0.00  0.00    -0.045 A 
ATOM     31  C   UNL     1      -0.470   1.337   3.131  0.00  0.00    +0.004 A 
ATOM     32  C   UNL     1       0.267   1.703   4.241  0.00  0.00    +0.000 A 
ATOM     33  C   UNL     1       0.199   2.998   4.719  0.00  0.00    +0.000 A 
ATOM     34  C   UNL     1      -0.603   3.928   4.084  0.00  0.00    +0.000 A 
ATOM     35  C   UNL     1      -1.337   3.563   2.971  0.00  0.00    +0.004 A 
ENDBRANCH  29  30
ENDBRANCH   4  29
TORSDOF 8
