REMARK  Name = ZINC39357184
REMARK  11 active torsions:
REMARK  status: ('A' for Active; 'I' for Inactive)
REMARK    1  A    between atoms: C_1  and  C_2
REMARK    2  A    between atoms: C_2  and  C_3
REMARK    3  A    between atoms: C_6  and  N_9
REMARK    4  A    between atoms: C_10  and  C_12
REMARK    5  A    between atoms: C_12  and  O_13
REMARK    6  A    between atoms: O_13  and  C_14
REMARK    7  A    between atoms: C_17  and  C_22
REMARK    8  A    between atoms: C_19  and  O_20
REMARK    9  A    between atoms: O_20  and  C_21
REMARK   10  A    between atoms: C_23  and  C_24
REMARK   11  A    between atoms: C_23  and  C_26
REMARK                            x       y       z     vdW  Elec       q    Type
REMARK                         _______ _______ _______ _____ _____    ______ ____
ROOT
ATOM      1  C   UNL     1      -9.166  -3.656  -2.219  0.00  0.00    +0.163 A 
ATOM      2  C   UNL     1     -10.059  -3.986  -1.208  0.00  0.00    +0.050 A 
ATOM      3  C   UNL     1     -11.401  -4.127  -1.488  0.00  0.00    +0.012 A 
ATOM      4  C   UNL     1     -11.866  -3.938  -2.794  0.00  0.00    -0.020 A 
ATOM      5  C   UNL     1     -10.965  -3.606  -3.812  0.00  0.00    +0.057 A 
ATOM      6  C   UNL     1      -9.623  -3.462  -3.522  0.00  0.00    +0.162 A 
ENDROOT
BRANCH   6   7
ATOM      7  O   UNL     1      -8.745  -3.134  -4.507  0.00  0.00    -0.491 OA
ATOM      8  C   UNL     1      -9.282  -2.950  -5.819  0.00  0.00    +0.277 C 
ENDBRANCH   6   7
BRANCH   4   9
ATOM      9  C   UNL     1     -13.297  -4.089  -3.096  0.00  0.00    +0.026 C 
ATOM     10  C   UNL     1     -14.222  -3.695  -2.196  0.00  0.00    +0.072 C 
BRANCH  10  11
ATOM     11  C   UNL     1     -15.679  -4.002  -2.429  0.00  0.00    +0.216 C 
ATOM     12  N   UNL     1     -16.462  -2.760  -2.423  0.00  0.00    -0.359 N 
ATOM     13  C   UNL     1     -17.326  -2.848  -1.454  0.00  0.00    +0.060 A 
ATOM     14  C   UNL     1     -18.367  -1.937  -0.958  0.00  0.00    +0.027 A 
ATOM     15  C   UNL     1     -19.130  -2.306   0.090  0.00  0.00    +0.002 A 
ATOM     16  C   UNL     1     -18.974  -3.542   0.743  0.00  0.00    +0.002 A 
ATOM     17  C   UNL     1     -18.050  -4.450   0.369  0.00  0.00    +0.027 A 
ATOM     18  C   UNL     1     -17.162  -4.156  -0.763  0.00  0.00    +0.060 A 
ATOM     19  N   UNL     1     -16.202  -4.826  -1.333  0.00  0.00    -0.359 N 
ATOM     20  H   UNL     1     -16.355  -2.011  -3.030  0.00  0.00    +0.162 HD
ATOM     21  H   UNL     1     -15.890  -5.709  -1.079  0.00  0.00    +0.162 HD
ENDBRANCH  10  11
BRANCH  10  22
ATOM     22  C   UNL     1     -13.819  -2.986  -1.019  0.00  0.00    +0.099 C 
ATOM     23  N   UNL     1     -13.499  -2.423  -0.086  0.00  0.00    -0.191 NA
ENDBRANCH  10  22
ENDBRANCH   4   9
BRANCH   1  24
ATOM     24  O   UNL     1      -7.844  -3.518  -1.936  0.00  0.00    -0.479 OA
BRANCH  24  25
ATOM     25  C   UNL     1      -7.445  -3.732  -0.581  0.00  0.00    +0.325 C 
BRANCH  25  27
ATOM     26  N   UNL     1      -5.351  -3.688   0.735  0.00  0.00    -0.283 N 
ATOM     27  C   UNL     1      -5.955  -3.537  -0.460  0.00  0.00    +0.255 C 
ATOM     28  O   UNL     1      -5.301  -3.243  -1.438  0.00  0.00    -0.272 OA
ATOM     29  H   UNL     1      -5.861  -3.994   1.502  0.00  0.00    +0.155 HD
BRANCH  26  33
ATOM     30  C   UNL     1      -1.293  -2.838   1.141  0.00  0.00    -0.048 A 
ATOM     31  C   UNL     1      -2.075  -2.079   0.290  0.00  0.00    +0.005 A 
ATOM     32  C   UNL     1      -3.421  -2.358   0.153  0.00  0.00    +0.023 A 
ATOM     33  C   UNL     1      -3.988  -3.403   0.871  0.00  0.00    +0.034 A 
ATOM     34  C   UNL     1      -3.200  -4.164   1.724  0.00  0.00    +0.023 A 
ATOM     35  C   UNL     1      -1.853  -3.882   1.853  0.00  0.00    +0.005 A 
BRANCH  30  37
ATOM     36  C   UNL     1       0.969  -3.328   0.250  0.00  0.00    +0.009 C 
ATOM     37  C   UNL     1       0.175  -2.531   1.287  0.00  0.00    +0.032 C 
ENDBRANCH  30  37
ENDBRANCH  26  33
ENDBRANCH  25  27
ENDBRANCH  24  25
ENDBRANCH   1  24
TORSDOF 9
