REMARK  Name = ZINC41067794
REMARK  7 active torsions:
REMARK  status: ('A' for Active; 'I' for Inactive)
REMARK    1  A    between atoms: C_3  and  S_18
REMARK    2  A    between atoms: C_6  and  C_7
REMARK    3  A    between atoms: C_7  and  N_8
REMARK    4  A    between atoms: N_8  and  S_9
REMARK    5  A    between atoms: S_9  and  C_12
REMARK    6  A    between atoms: C_14  and  N_17
REMARK    7  A    between atoms: S_18  and  N_21
REMARK                            x       y       z     vdW  Elec       q    Type
REMARK                         _______ _______ _______ _____ _____    ______ ____
ROOT
ATOM      1  C   UNL     1      -1.293  -0.775   0.011  0.00  0.00    +0.141 C 
ENDROOT
BRANCH   1   7
ATOM      2  C   UNL     1      -0.017   1.378   0.010  0.00  0.00    +0.007 A 
ATOM      3  C   UNL     1       1.171   2.086   0.002  0.00  0.00    +0.029 A 
ATOM      4  C   UNL     1       2.377   1.411  -0.013  0.00  0.00    +0.105 A 
ATOM      5  C   UNL     1       2.396   0.029  -0.020  0.00  0.00    +0.029 A 
ATOM      6  C   UNL     1       1.208  -0.679  -0.012  0.00  0.00    +0.007 A 
ATOM      7  C   UNL     1       0.002  -0.004   0.002  0.00  0.00    -0.032 A 
BRANCH   4   8
ATOM      8  S   UNL     1       3.891   2.312  -0.024  0.00  0.00    +0.056 S 
ATOM      9  O   UNL     1       4.872   1.453  -0.588  0.00  0.00    -0.153 OA
ATOM     10  O   UNL     1       3.597   3.593  -0.566  0.00  0.00    -0.153 OA
BRANCH   8  11
ATOM     11  N   UNL     1       4.327   2.556   1.555  0.00  0.00    -0.204 NA
ATOM     12  H   UNL     1       3.768   2.215   2.271  0.00  0.00    +0.144 HD
ATOM     13  H   UNL     1       5.142   3.039   1.764  0.00  0.00    +0.144 HD
ENDBRANCH   8  11
ENDBRANCH   4   8
ENDBRANCH   1   7
BRANCH   1  14
ATOM     14  N   UNL     1      -1.726  -1.018  -1.368  0.00  0.00    -0.185 NA
ATOM     15  H   UNL     1      -1.326  -0.518  -2.097  0.00  0.00    +0.148 HD
BRANCH  14  16
ATOM     16  S   UNL     1      -2.898  -2.144  -1.681  0.00  0.00    +0.065 S 
ATOM     17  O   UNL     1      -3.113  -2.127  -3.086  0.00  0.00    -0.153 OA
ATOM     18  O   UNL     1      -2.525  -3.324  -0.982  0.00  0.00    -0.153 OA
BRANCH  16  19
ATOM     19  C   UNL     1      -4.387  -1.568  -0.936  0.00  0.00    +0.144 A 
ATOM     20  C   UNL     1      -5.360  -0.787  -1.468  0.00  0.00    +0.059 A 
ATOM     21  C   UNL     1      -6.455  -0.455  -0.688  0.00  0.00    +0.034 A 
ATOM     22  C   UNL     1      -6.519  -0.924   0.586  0.00  0.00    +0.069 A 
ATOM     23  S   UNL     1      -5.009  -1.867   0.710  0.00  0.00    -0.075 S 
BRANCH  21  24
ATOM     24  N   UNL     1      -7.484   0.355  -1.205  0.00  0.00    -0.358 N 
ATOM     25  H   UNL     1      -7.430   0.685  -2.115  0.00  0.00    +0.142 HD
ATOM     26  H   UNL     1      -8.248   0.582  -0.651  0.00  0.00    +0.142 HD
ENDBRANCH  21  24
ENDBRANCH  16  19
ENDBRANCH  14  16
ENDBRANCH   1  14
TORSDOF 7
