REMARK  Name = ZINC12073367
REMARK  13 active torsions:
REMARK  status: ('A' for Active; 'I' for Inactive)
REMARK    1  A    between atoms: C_1  and  C_2
REMARK    2  A    between atoms: C_5  and  C_7
REMARK    3  A    between atoms: N_9  and  C_10
REMARK    4  A    between atoms: N_9  and  C_14
REMARK    5  A    between atoms: C_10  and  C_11
REMARK    6  A    between atoms: C_11  and  N_64
REMARK    7  A    between atoms: C_12  and  N_64
REMARK    8  A    between atoms: C_13  and  N_64
REMARK    9  A    between atoms: C_14  and  C_15
REMARK   10  A    between atoms: C_21  and  C_22
REMARK   11  A    between atoms: C_21  and  N_66
REMARK   12  A    between atoms: C_27  and  O_28
REMARK   13  A    between atoms: O_28  and  C_29
REMARK                            x       y       z     vdW  Elec       q    Type
REMARK                         _______ _______ _______ _____ _____    ______ ____
ROOT
ATOM      1  C   UNL     1      -0.010   2.103  -0.102  0.00  0.00    +0.109 C 
ENDROOT
BRANCH   1   2
ATOM      2  C   UNL     1       0.151   0.616  -0.423  0.00  0.00    -0.010 C 
ATOM      3  C   UNL     1       1.060  -0.037   0.623  0.00  0.00    +0.001 C 
ATOM      4  C   UNL     1       1.264  -1.511   0.261  0.00  0.00    -0.018 C 
ATOM      5  C   UNL     1       1.862  -1.608  -1.145  0.00  0.00    -0.078 C 
ATOM      6  C   UNL     1       0.780   0.457  -1.809  0.00  0.00    -0.073 C 
ATOM      7  N   UNL     1       0.929  -0.983  -2.107  0.00  0.00    +0.383 N 
ATOM      8  H   UNL     1       0.012  -1.437  -2.023  0.00  0.00    -0.081 HD
BRANCH   7   9
ATOM      9  C   UNL     1       1.430  -1.164  -3.485  0.00  0.00    -0.039 C 
BRANCH   9  10
ATOM     10  C   UNL     1       2.732  -0.430  -3.676  0.00  0.00    -0.022 A 
ATOM     11  C   UNL     1       2.745   0.803  -4.301  0.00  0.00    +0.005 A 
ATOM     12  C   UNL     1       3.939   1.477  -4.477  0.00  0.00    +0.000 A 
ATOM     13  C   UNL     1       5.123   0.920  -4.029  0.00  0.00    +0.004 A 
ATOM     14  C   UNL     1       5.115  -0.311  -3.403  0.00  0.00    +0.046 A 
ATOM     15  C   UNL     1       3.917  -0.988  -3.221  0.00  0.00    +0.121 A 
BRANCH  15  16
ATOM     16  O   UNL     1       3.906  -2.197  -2.602  0.00  0.00    -0.495 OA
ATOM     17  C   UNL     1       5.164  -2.711  -2.159  0.00  0.00    +0.277 C 
ENDBRANCH  15  16
ENDBRANCH   9  10
ENDBRANCH   7   9
ENDBRANCH   1   2
BRANCH   1  20
ATOM     18  C   UNL     1      -2.066   2.266   1.196  0.00  0.00    +0.253 C 
ATOM     19  O   UNL     1      -2.653   2.488   2.239  0.00  0.00    -0.269 OA
ATOM     20  N   UNL     1      -0.718   2.253   1.172  0.00  0.00    -0.299 N 
BRANCH  18  25
ATOM     21  C   UNL     1      -4.011   1.079  -3.908  0.00  0.00    +0.051 C 
ATOM     22  C   UNL     1      -3.747   1.444  -2.470  0.00  0.00    -0.013 A 
ATOM     23  C   UNL     1      -4.642   1.800  -1.512  0.00  0.00    +0.011 A 
ATOM     24  C   UNL     1      -4.190   2.092  -0.248  0.00  0.00    +0.021 A 
ATOM     25  C   UNL     1      -2.823   2.011  -0.032  0.00  0.00    +0.074 A 
ATOM     26  S   UNL     1      -2.228   1.510  -1.637  0.00  0.00    -0.089 S 
ENDBRANCH  18  25
BRANCH  20  27
ATOM     27  C   UNL     1       0.038   2.390   2.419  0.00  0.00    +0.089 C 
BRANCH  27  28
ATOM     28  C   UNL     1       0.274   3.873   2.712  0.00  0.00    -0.060 C 
BRANCH  28  31
ATOM     29  C   UNL     1       1.482   5.396   4.157  0.00  0.00    -0.097 C 
ATOM     30  C   UNL     1       0.242   3.548   5.112  0.00  0.00    -0.097 C 
ATOM     31  N   UNL     1       1.056   3.994   3.961  0.00  0.00    +0.377 N 
ATOM     32  H   UNL     1       1.889   3.399   3.891  0.00  0.00    -0.083 HD
ENDBRANCH  28  31
ENDBRANCH  27  28
ENDBRANCH  20  27
ENDBRANCH   1  20
TORSDOF 9
