REMARK  Name = ZINC00718169
REMARK  2 active torsions:
REMARK  status: ('A' for Active; 'I' for Inactive)
REMARK    1  A    between atoms: C_8  and  C_24
REMARK    2  A    between atoms: C_14  and  C_19
REMARK                            x       y       z     vdW  Elec       q    Type
REMARK                         _______ _______ _______ _____ _____    ______ ____
ROOT
ATOM      1  C   UNL     1       3.718   2.935   0.299  0.00  0.00    +0.002 A 
ATOM      2  C   UNL     1       3.421   2.214  -0.843  0.00  0.00    +0.002 A 
ATOM      3  C   UNL     1       2.208   1.557  -0.958  0.00  0.00    +0.025 A 
ATOM      4  C   UNL     1       1.295   1.632   0.079  0.00  0.00    +0.052 A 
ATOM      5  C   UNL     1       1.575   2.388   1.207  0.00  0.00    +0.049 A 
ATOM      6  C   UNL     1       2.798   3.026   1.330  0.00  0.00    +0.025 A 
ATOM      7  N   UNL     1       0.574   2.544   2.165  0.00  0.00    -0.331 N 
ATOM      8  C   UNL     1      -0.653   3.247   1.853  0.00  0.00    +0.136 C 
ATOM      9  C   UNL     1      -1.511   2.578   0.807  0.00  0.00    +0.036 C 
ATOM     10  C   UNL     1      -1.140   1.554   0.013  0.00  0.00    +0.017 C 
ATOM     11  N   UNL     1       0.079   0.958   0.051  0.00  0.00    -0.316 N 
ATOM     12  C   UNL     1      -2.112   0.963  -0.989  0.00  0.00    +0.060 C 
ATOM     13  C   UNL     1      -3.054   2.050  -1.505  0.00  0.00    +0.039 C 
ATOM     14  C   UNL     1      -3.811   2.621  -0.300  0.00  0.00    +0.088 C 
ATOM     15  C   UNL     1      -2.811   3.126   0.696  0.00  0.00    +0.163 C 
ATOM     16  O   UNL     1      -3.127   4.039   1.433  0.00  0.00    -0.292 OA
ATOM     17  H   UNL     1       0.701   2.177   3.054  0.00  0.00    +0.147 HD
ATOM     18  H   UNL     1       0.104  -0.011   0.055  0.00  0.00    +0.152 HD
ENDROOT
BRANCH  13  19
ATOM     19  C   UNL     1      -4.030   1.454  -2.487  0.00  0.00    -0.006 A 
ATOM     20  C   UNL     1      -4.249   1.789  -3.782  0.00  0.00    +0.011 A 
ATOM     21  C   UNL     1      -5.207   1.098  -4.500  0.00  0.00    +0.008 A 
ATOM     22  C   UNL     1      -5.899   0.106  -3.888  0.00  0.00    +0.045 A 
ATOM     23  S   UNL     1      -5.193   0.121  -2.248  0.00  0.00    -0.101 S 
ENDBRANCH  13  19
BRANCH   8  24
ATOM     24  C   UNL     1      -0.301   4.629   1.368  0.00  0.00    -0.016 A 
ATOM     25  C   UNL     1      -0.809   5.746   2.005  0.00  0.00    +0.013 A 
ATOM     26  C   UNL     1      -0.472   6.976   1.544  0.00  0.00    +0.045 A 
ATOM     27  S   UNL     1       0.593   6.575   0.168  0.00  0.00    -0.105 S 
ATOM     28  C   UNL     1       0.523   4.796   0.305  0.00  0.00    +0.051 A 
ENDBRANCH   8  24
TORSDOF 2
