REMARK  Name = ZINC58147925
REMARK  9 active torsions:
REMARK  status: ('A' for Active; 'I' for Inactive)
REMARK    1  A    between atoms: C_1  and  C_2
REMARK    2  A    between atoms: C_2  and  N_3
REMARK    3  A    between atoms: N_6  and  C_9
REMARK    4  A    between atoms: C_14  and  C_15
REMARK    5  A    between atoms: C_15  and  C_17
REMARK    6  A    between atoms: C_15  and  N_18
REMARK    7  A    between atoms: C_19  and  C_21
REMARK    8  A    between atoms: C_21  and  N_22
REMARK    9  A    between atoms: C_30  and  C_34
REMARK                            x       y       z     vdW  Elec       q    Type
REMARK                         _______ _______ _______ _____ _____    ______ ____
ROOT
ATOM      1  C   UNL     1       3.096  -2.345   5.507  0.00  0.00    +0.102 C 
ATOM      2  C   UNL     1       2.991  -0.953   6.133  0.00  0.00    +0.033 C 
ENDROOT
BRANCH   1   8
ATOM      3  C   UNL     1       0.799  -2.814   4.613  0.00  0.00    +0.035 A 
ATOM      4  C   UNL     1      -0.430  -3.457   4.691  0.00  0.00    +0.026 A 
ATOM      5  C   UNL     1      -0.696  -4.311   5.743  0.00  0.00    +0.040 A 
ATOM      6  C   UNL     1       0.261  -4.527   6.720  0.00  0.00    +0.124 A 
ATOM      7  C   UNL     1       1.486  -3.887   6.645  0.00  0.00    +0.045 A 
ATOM      8  C   UNL     1       1.759  -3.036   5.592  0.00  0.00    -0.004 A 
ATOM      9  F   UNL     1      -0.002  -5.362   7.749  0.00  0.00    -0.205 F 
BRANCH   3  13
ATOM     10  N   UNL     1       0.713  -0.491   1.192  0.00  0.00    +0.382 N 
ATOM     11  C   UNL     1      -0.035  -0.109   2.397  0.00  0.00    -0.060 C 
ATOM     12  C   UNL     1       0.761  -0.515   3.641  0.00  0.00    +0.086 C 
ATOM     13  N   UNL     1       1.071  -1.950   3.549  0.00  0.00    -0.333 N 
ATOM     14  C   UNL     1       1.676  -2.450   2.304  0.00  0.00    +0.086 C 
ATOM     15  C   UNL     1       0.836  -1.952   1.123  0.00  0.00    -0.060 C 
ATOM     16  H   UNL     1       1.633  -0.078   1.225  0.00  0.00    -0.082 HD
BRANCH  10  18
ATOM     17  C   UNL     1      -0.019   1.526   0.010  0.00  0.00    -0.017 C 
ATOM     18  C   UNL     1       0.002  -0.004   0.002  0.00  0.00    -0.082 C 
ENDBRANCH  10  18
ENDBRANCH   3  13
ENDBRANCH   1   8
BRANCH   1  19
ATOM     19  N   UNL     1       4.099  -3.132   6.230  0.00  0.00    -0.307 N 
ATOM     20  C   UNL     1       5.402  -3.027   5.901  0.00  0.00    +0.231 C 
ATOM     21  O   UNL     1       5.744  -2.283   5.007  0.00  0.00    -0.274 OA
ATOM     22  H   UNL     1       3.825  -3.728   6.944  0.00  0.00    +0.149 HD
BRANCH  20  23
ATOM     23  C   UNL     1       6.433  -3.836   6.644  0.00  0.00    +0.209 C 
BRANCH  23  24
ATOM     24  N   UNL     1       7.764  -3.547   6.103  0.00  0.00    -0.256 N 
ATOM     25  C   UNL     1       8.278  -4.300   5.039  0.00  0.00    +0.079 A 
ATOM     26  C   UNL     1       7.449  -5.103   4.273  0.00  0.00    +0.027 A 
ATOM     27  C   UNL     1       7.977  -5.839   3.228  0.00  0.00    +0.002 A 
ATOM     28  C   UNL     1       9.329  -5.775   2.947  0.00  0.00    +0.004 A 
ATOM     29  C   UNL     1      10.163  -4.975   3.707  0.00  0.00    +0.047 A 
ATOM     30  C   UNL     1       9.641  -4.236   4.754  0.00  0.00    +0.143 A 
ATOM     31  O   UNL     1      10.446  -3.442   5.510  0.00  0.00    -0.478 OA
ATOM     32  C   UNL     1       9.863  -2.242   6.027  0.00  0.00    +0.256 C 
ATOM     33  C   UNL     1       8.511  -2.546   6.619  0.00  0.00    +0.261 C 
ATOM     34  O   UNL     1       8.097  -1.898   7.557  0.00  0.00    -0.271 OA
ATOM     35  C   UNL     1      10.775  -1.657   7.107  0.00  0.00    +0.062 C 
ENDBRANCH  23  24
ENDBRANCH  20  23
ENDBRANCH   1  19
TORSDOF 6
