REMARK  Name = ZINC21659121
REMARK  6 active torsions:
REMARK  status: ('A' for Active; 'I' for Inactive)
REMARK    1  A    between atoms: C_1  and  N_2
REMARK    2  A    between atoms: C_5  and  C_25
REMARK    3  A    between atoms: C_8  and  C_17
REMARK    4  A    between atoms: C_21  and  O_24
REMARK    5  A    between atoms: C_22  and  O_23
REMARK    6  A    between atoms: N_34  and  C_37
REMARK                            x       y       z     vdW  Elec       q    Type
REMARK                         _______ _______ _______ _____ _____    ______ ____
ROOT
ATOM      1  C   UNL     1       0.192   1.245   0.400  0.00  0.00    +0.154 C 
ATOM      2  N   UNL     1      -0.373   1.847   1.611  0.00  0.00    -0.294 N 
ATOM      3  C   UNL     1      -0.662   3.218   1.678  0.00  0.00    +0.082 A 
ATOM      4  C   UNL     1      -1.238   3.767   2.933  0.00  0.00    +0.089 A 
ATOM      5  C   UNL     1      -1.424   5.110   2.722  0.00  0.00    +0.069 A 
ATOM      6  N   UNL     1      -0.998   5.391   1.461  0.00  0.00    -0.306 N 
ATOM      7  C   UNL     1      -0.567   4.231   0.831  0.00  0.00    +0.073 A 
ATOM      8  C   UNL     1      -0.087   4.240  -0.605  0.00  0.00    +0.154 C 
ATOM      9  N   UNL     1       0.398   5.595  -0.910  0.00  0.00    -0.330 N 
ATOM     10  C   UNL     1      -0.282   6.713  -0.413  0.00  0.00    +0.052 A 
ATOM     11  C   UNL     1      -0.970   6.629   0.802  0.00  0.00    +0.068 A 
ATOM     12  C   UNL     1      -1.601   7.741   1.324  0.00  0.00    +0.028 A 
ATOM     13  C   UNL     1      -1.564   8.939   0.632  0.00  0.00    +0.002 A 
ATOM     14  C   UNL     1      -0.899   9.023  -0.577  0.00  0.00    +0.002 A 
ATOM     15  C   UNL     1      -0.259   7.915  -1.102  0.00  0.00    +0.025 A 
ATOM     16  C   UNL     1      -1.479   2.865   4.064  0.00  0.00    +0.266 A 
ATOM     17  O   UNL     1      -1.948   3.255   5.117  0.00  0.00    -0.267 OA
ATOM     18  N   UNL     1      -1.145   1.566   3.855  0.00  0.00    -0.263 N 
ATOM     19  C   UNL     1      -0.631   1.105   2.710  0.00  0.00    +0.332 A 
ATOM     20  O   UNL     1      -0.374  -0.082   2.654  0.00  0.00    -0.246 OA
ATOM     21  C   UNL     1      -1.360   0.614   4.947  0.00  0.00    +0.157 C 
ATOM     22  H   UNL     1       1.296   5.731  -1.531  0.00  0.00    +0.147 HD
ENDROOT
BRANCH   5  23
ATOM     23  C   UNL     1      -1.985   6.075   3.688  0.00  0.00    -0.000 A 
ATOM     24  C   UNL     1      -1.237   7.187   4.083  0.00  0.00    +0.011 A 
ATOM     25  C   UNL     1      -1.769   8.088   4.981  0.00  0.00    +0.020 A 
ATOM     26  C   UNL     1      -3.037   7.886   5.501  0.00  0.00    +0.041 A 
ATOM     27  C   UNL     1      -3.781   6.782   5.118  0.00  0.00    +0.020 A 
ATOM     28  C   UNL     1      -3.263   5.877   4.216  0.00  0.00    +0.011 A 
ATOM     29 CL   UNL     1      -3.696   9.020   6.637  0.00  0.00    -0.084 Cl
ENDBRANCH   5  23
BRANCH   8  30
ATOM     30  C   UNL     1      -1.226   3.886  -1.526  0.00  0.00    +0.024 A 
ATOM     31  C   UNL     1      -2.527   3.913  -1.058  0.00  0.00    +0.009 A 
ATOM     32  C   UNL     1      -3.574   3.589  -1.900  0.00  0.00    +0.004 A 
ATOM     33  C   UNL     1      -3.325   3.236  -3.213  0.00  0.00    +0.049 A 
ATOM     34  C   UNL     1      -2.025   3.207  -3.688  0.00  0.00    +0.159 A 
ATOM     35  C   UNL     1      -0.971   3.540  -2.842  0.00  0.00    +0.164 A 
BRANCH  35  36
ATOM     36  O   UNL     1       0.308   3.518  -3.305  0.00  0.00    -0.503 OA
ATOM     37  H   UNL     1       0.510   3.243  -4.351  0.00  0.00    +0.292 HD
ENDBRANCH  35  36
BRANCH  34  38
ATOM     38  O   UNL     1      -1.778   2.861  -4.980  0.00  0.00    -0.503 OA
ATOM     39  H   UNL     1      -0.745   2.838  -5.356  0.00  0.00    +0.292 HD
ENDBRANCH  34  38
ENDBRANCH   8  30
TORSDOF 4
