REMARK  Name = ZINC41584285
REMARK  18 active torsions:
REMARK  status: ('A' for Active; 'I' for Inactive)
REMARK    1  A    between atoms: C_1  and  C_2
REMARK    2  A    between atoms: C_2  and  C_3
REMARK    3  A    between atoms: C_3  and  C_4
REMARK    4  A    between atoms: C_4  and  N_5
REMARK    5  A    between atoms: N_5  and  C_6
REMARK    6  A    between atoms: N_5  and  C_10
REMARK    7  A    between atoms: C_6  and  C_7
REMARK    8  A    between atoms: C_7  and  C_8
REMARK    9  A    between atoms: C_8  and  C_9
REMARK   10  A    between atoms: C_10  and  C_11
REMARK   11  A    between atoms: C_12  and  O_35
REMARK   12  A    between atoms: C_19  and  O_22
REMARK   13  A    between atoms: O_22  and  C_23
REMARK   14  A    between atoms: C_26  and  C_29
REMARK   15  A    between atoms: C_29  and  O_31
REMARK   16  A    between atoms: O_31  and  C_32
REMARK   17  A    between atoms: C_32  and  C_33
REMARK   18  A    between atoms: C_33  and  C_34
REMARK                            x       y       z     vdW  Elec       q    Type
REMARK                         _______ _______ _______ _____ _____    ______ ____
ROOT
ATOM      1  C   UNL     1       2.762  -4.249   0.876  0.00  0.00    +0.020 A 
ATOM      2  C   UNL     1       2.158  -4.499  -0.344  0.00  0.00    +0.122 A 
ATOM      3  C   UNL     1       2.926  -4.666  -1.494  0.00  0.00    +0.046 A 
ATOM      4  C   UNL     1       4.288  -4.586  -1.433  0.00  0.00    +0.019 A 
ATOM      5  C   UNL     1       4.912  -4.335  -0.211  0.00  0.00    +0.068 A 
ATOM      6  C   UNL     1       4.145  -4.159   0.954  0.00  0.00    +0.143 A 
ATOM      7  O   UNL     1       4.758  -3.911   2.129  0.00  0.00    -0.459 OA
ATOM      8  C   UNL     1       6.090  -3.818   2.238  0.00  0.00    +0.245 A 
ATOM      9  C   UNL     1       6.920  -3.964   1.185  0.00  0.00    +0.210 A 
ATOM     10  C   UNL     1       6.378  -4.241  -0.102  0.00  0.00    +0.235 A 
ATOM     11  O   UNL     1       7.098  -4.380  -1.077  0.00  0.00    -0.283 OA
ENDROOT
BRANCH   2  12
ATOM     12  O   UNL     1       0.805  -4.582  -0.421  0.00  0.00    -0.506 OA
ATOM     13  H   UNL     1       0.369  -3.737  -0.599  0.00  0.00    +0.292 HD
ENDBRANCH   2  12
BRANCH   1  14
ATOM     14  C   UNL     1       1.921  -4.070   2.114  0.00  0.00    -0.036 C 
BRANCH  14  15
ATOM     15  N   UNL     1       1.573  -2.651   2.269  0.00  0.00    +0.383 N 
ATOM     16  H   UNL     1       2.416  -2.096   2.271  0.00  0.00    -0.081 HD
BRANCH  15  17
ATOM     17  C   UNL     1       0.715  -2.233   1.152  0.00  0.00    -0.078 C 
BRANCH  17  18
ATOM     18  C   UNL     1       0.431  -0.734   1.261  0.00  0.00    -0.019 C 
BRANCH  18  20
ATOM     19  C   UNL     1      -0.634   1.227   0.137  0.00  0.00    +0.004 C 
ATOM     20  C   UNL     1      -0.350  -0.272   0.029  0.00  0.00    -0.005 C 
ENDBRANCH  18  20
ENDBRANCH  17  18
ENDBRANCH  15  17
BRANCH  15  21
ATOM     21  C   UNL     1       0.856  -2.458   3.536  0.00  0.00    -0.078 C 
BRANCH  21  22
ATOM     22  C   UNL     1       1.795  -2.764   4.705  0.00  0.00    -0.019 C 
BRANCH  22  23
ATOM     23  C   UNL     1       1.092  -2.436   6.023  0.00  0.00    -0.005 C 
ATOM     24  C   UNL     1       2.031  -2.742   7.192  0.00  0.00    +0.004 C 
ENDBRANCH  22  23
ENDBRANCH  21  22
ENDBRANCH  15  21
ENDBRANCH  14  15
ENDBRANCH   1  14
BRANCH   9  25
ATOM     25  O   UNL     1       8.266  -3.858   1.355  0.00  0.00    -0.449 OA
BRANCH  25  26
ATOM     26  C   UNL     1       8.900  -2.807   0.778  0.00  0.00    +0.129 A 
ATOM     27  C   UNL     1       8.160  -1.812   0.147  0.00  0.00    +0.047 A 
ATOM     28  C   UNL     1       8.799  -0.743  -0.439  0.00  0.00    +0.018 A 
ATOM     29  C   UNL     1      10.194  -0.658  -0.399  0.00  0.00    +0.059 A 
ATOM     30  C   UNL     1      10.934  -1.660   0.236  0.00  0.00    +0.018 A 
ATOM     31  C   UNL     1      10.287  -2.723   0.825  0.00  0.00    +0.047 A 
BRANCH  29  32
ATOM     32  C   UNL     1      10.883   0.485  -1.026  0.00  0.00    +0.339 C 
ATOM     33  O   UNL     1      10.239   1.355  -1.578  0.00  0.00    -0.245 OA
BRANCH  32  34
ATOM     34  O   UNL     1      12.228   0.565  -0.987  0.00  0.00    -0.461 OA
BRANCH  34  35
ATOM     35  C   UNL     1      12.829   1.700  -1.615  0.00  0.00    +0.232 C 
BRANCH  35  36
ATOM     36  C   UNL     1      14.349   1.617  -1.469  0.00  0.00    +0.038 C 
ATOM     37  C   UNL     1      14.992   2.832  -2.141  0.00  0.00    +0.007 C 
ENDBRANCH  35  36
ENDBRANCH  34  35
ENDBRANCH  32  34
ENDBRANCH  29  32
ENDBRANCH  25  26
ENDBRANCH   9  25
TORSDOF 15
