REMARK  Name = ZINC13858029
REMARK  1 active torsions:
REMARK  status: ('A' for Active; 'I' for Inactive)
REMARK    1  A    between atoms: C_6  and  N_7
REMARK                            x       y       z     vdW  Elec       q    Type
REMARK                         _______ _______ _______ _____ _____    ______ ____
ROOT
ATOM      1  C   UNL     1       1.177   1.773   0.000  0.00  0.00    +0.034 A 
ATOM      2  C   UNL     1      -0.013   1.076   0.008  0.00  0.00    +0.026 A 
ATOM      3  C   UNL     1      -1.230   1.746   0.017  0.00  0.00    +0.042 A 
ATOM      4  C   UNL     1      -1.228   3.155   0.012  0.00  0.00    -0.019 A 
ATOM      5  C   UNL     1      -0.032   3.838   0.013  0.00  0.00    +0.038 A 
ATOM      6  C   UNL     1       1.170   3.156   0.007  0.00  0.00    +0.127 A 
ATOM      7  C   UNL     1      -2.532   3.799  -0.026  0.00  0.00    +0.041 C 
ATOM      8  C   UNL     1      -2.888   5.277   0.045  0.00  0.00    -0.002 C 
ATOM      9  C   UNL     1      -4.127   5.233   1.021  0.00  0.00    +0.004 C 
ATOM     10  C   UNL     1      -5.162   4.357   0.234  0.00  0.00    +0.005 C 
ATOM     11  C   UNL     1      -4.580   4.202  -1.197  0.00  0.00    +0.007 C 
ATOM     12  C   UNL     1      -3.696   5.515  -1.292  0.00  0.00    +0.009 C 
ATOM     13  C   UNL     1      -3.414   3.191  -1.156  0.00  0.00    +0.108 C 
ATOM     14  S   UNL     1      -3.862   1.548  -0.545  0.00  0.00    +0.114 S 
ATOM     15  O   UNL     1      -4.690   1.679   0.602  0.00  0.00    -0.237 OA
ATOM     16  N   UNL     1      -2.412   1.007   0.065  0.00  0.00    -0.264 N 
ATOM     17  H   UNL     1      -2.387   0.128   0.476  0.00  0.00    +0.162 HD
ENDROOT
BRANCH   6  18
ATOM     18  N   UNL     1       2.447   3.904   0.008  0.00  0.00    +0.056 N 
ATOM     19  O   UNL     1       3.506   3.302   0.002  0.00  0.00    -0.126 OA
ATOM     20  O   UNL     1       2.439   5.122   0.014  0.00  0.00    -0.126 OA
ENDBRANCH   6  18
TORSDOF 1
