REMARK  Name = ZINC49741028
REMARK  3 active torsions:
REMARK  status: ('A' for Active; 'I' for Inactive)
REMARK    1  A    between atoms: C_6  and  S_7
REMARK    2  A    between atoms: S_7  and  N_10
REMARK    3  A    between atoms: N_10  and  C_11
REMARK                            x       y       z     vdW  Elec       q    Type
REMARK                         _______ _______ _______ _____ _____    ______ ____
ROOT
ATOM      1  C   UNL     1      -0.984  -2.018  -2.333  0.00  0.00    +0.048 A 
ATOM      2  C   UNL     1       0.391  -1.999  -2.130  0.00  0.00    +0.026 A 
ATOM      3  C   UNL     1       1.212  -2.835  -2.856  0.00  0.00    +0.025 A 
ATOM      4  C   UNL     1       0.670  -3.706  -3.799  0.00  0.00    +0.038 A 
ATOM      5  C   UNL     1      -0.706  -3.719  -3.995  0.00  0.00    -0.009 A 
ATOM      6  C   UNL     1      -1.529  -2.889  -3.268  0.00  0.00    +0.031 A 
ATOM      7  C   UNL     1      -0.969  -4.751  -5.063  0.00  0.00    +0.074 C 
ATOM      8  C   UNL     1      -1.618  -4.103  -6.282  0.00  0.00    +0.021 C 
ATOM      9  C   UNL     1      -1.848  -5.161  -7.364  0.00  0.00    +0.001 C 
ATOM     10  C   UNL     1      -2.753  -6.264  -6.812  0.00  0.00    +0.000 C 
ATOM     11  C   UNL     1      -2.081  -6.921  -5.604  0.00  0.00    +0.001 C 
ATOM     12  C   UNL     1      -1.851  -5.869  -4.516  0.00  0.00    +0.021 C 
ATOM     13  C   UNL     1       0.398  -5.286  -5.416  0.00  0.00    +0.228 C 
ATOM     14  O   UNL     1       0.648  -6.141  -6.239  0.00  0.00    -0.274 OA
ATOM     15  N   UNL     1       1.287  -4.633  -4.645  0.00  0.00    -0.284 N 
ATOM     16  H   UNL     1       2.244  -4.788  -4.673  0.00  0.00    +0.155 HD
ENDROOT
BRANCH   1  17
ATOM     17  N   UNL     1      -1.815  -1.169  -1.594  0.00  0.00    -0.216 N 
ATOM     18  H   UNL     1      -2.200  -0.383  -2.013  0.00  0.00    +0.174 HD
BRANCH  17  19
ATOM     19  S   UNL     1      -2.141  -1.505  -0.006  0.00  0.00    +0.072 S 
ATOM     20  O   UNL     1      -3.066  -0.521   0.436  0.00  0.00    -0.150 OA
ATOM     21  O   UNL     1      -0.888  -1.713   0.631  0.00  0.00    -0.150 OA
BRANCH  19  27
ATOM     22  C   UNL     1      -2.286  -4.218   0.257  0.00  0.00    +0.030 A 
ATOM     23  C   UNL     1      -2.951  -5.429   0.291  0.00  0.00    +0.022 A 
ATOM     24  C   UNL     1      -4.321  -5.471   0.103  0.00  0.00    +0.041 A 
ATOM     25  C   UNL     1      -5.025  -4.301  -0.118  0.00  0.00    +0.022 A 
ATOM     26  C   UNL     1      -4.359  -3.090  -0.151  0.00  0.00    +0.030 A 
ATOM     27  C   UNL     1      -2.990  -3.049   0.036  0.00  0.00    +0.109 A 
ATOM     28 CL   UNL     1      -5.157  -6.992   0.145  0.00  0.00    -0.084 Cl
ENDBRANCH  19  27
ENDBRANCH  17  19
ENDBRANCH   1  17
TORSDOF 3
