REMARK  Name = ZINC60374714
REMARK  7 active torsions:
REMARK  status: ('A' for Active; 'I' for Inactive)
REMARK    1  A    between atoms: C_1  and  C_2
REMARK    2  A    between atoms: C_5  and  N_8
REMARK    3  A    between atoms: C_17  and  S_18
REMARK    4  A    between atoms: S_18  and  C_19
REMARK    5  A    between atoms: C_19  and  C_20
REMARK    6  A    between atoms: C_20  and  C_21
REMARK    7  A    between atoms: C_21  and  C_22
REMARK                            x       y       z     vdW  Elec       q    Type
REMARK                         _______ _______ _______ _____ _____    ______ ____
ROOT
ATOM      1  N   UNL     1       0.059  -4.171  -0.021  0.00  0.00    -0.255 N 
ATOM      2  C   UNL     1       0.170  -4.837   1.144  0.00  0.00    +0.268 A 
ATOM      3  O   UNL     1       0.255  -4.231   2.198  0.00  0.00    -0.267 OA
ATOM      4  C   UNL     1       0.188  -6.267   1.125  0.00  0.00    +0.076 A 
ATOM      5  C   UNL     1       0.300  -7.186   2.270  0.00  0.00    -0.023 A 
ATOM      6  C   UNL     1       0.295  -8.501   1.996  0.00  0.00    -0.004 A 
ATOM      7  S   UNL     1       0.138  -8.602   0.228  0.00  0.00    -0.073 S 
ATOM      8  C   UNL     1       0.084  -6.868  -0.138  0.00  0.00    +0.117 A 
ATOM      9  N   UNL     1      -0.024  -6.154  -1.253  0.00  0.00    -0.216 NA
ATOM     10  C   UNL     1      -0.043  -4.837  -1.210  0.00  0.00    +0.177 A 
ATOM     11  C   UNL     1       0.421  -9.341   3.239  0.00  0.00    +0.043 C 
ATOM     12  C   UNL     1       0.941  -8.364   4.316  0.00  0.00    +0.010 C 
ATOM     13  C   UNL     1       0.427  -7.011   3.786  0.00  0.00    +0.037 C 
ENDROOT
BRANCH   1  18
ATOM     14  C   UNL     1      -0.017   1.503   0.008  0.00  0.00    +0.044 C 
ATOM     15  C   UNL     1       0.003  -0.004   0.001  0.00  0.00    -0.050 A 
ATOM     16  C   UNL     1       1.206  -0.678  -0.111  0.00  0.00    +0.005 A 
ATOM     17  C   UNL     1       1.227  -2.058  -0.118  0.00  0.00    +0.026 A 
ATOM     18  C   UNL     1       0.040  -2.771  -0.013  0.00  0.00    +0.052 A 
ATOM     19  C   UNL     1      -1.166  -2.091   0.099  0.00  0.00    +0.026 A 
ATOM     20  C   UNL     1      -1.180  -0.710   0.111  0.00  0.00    +0.005 A 
ENDBRANCH   1  18
BRANCH  10  21
ATOM     21  S   UNL     1      -0.194  -3.922  -2.708  0.00  0.00    -0.087 S 
BRANCH  21  22
ATOM     22  C   UNL     1      -0.296  -5.197  -3.994  0.00  0.00    +0.078 C 
BRANCH  22  23
ATOM     23  C   UNL     1      -0.432  -4.531  -5.364  0.00  0.00    +0.020 C 
BRANCH  23  24
ATOM     24  C   UNL     1      -0.518  -5.607  -6.449  0.00  0.00    +0.097 C 
BRANCH  24  25
ATOM     25  C   UNL     1      -0.652  -4.950  -7.798  0.00  0.00    +0.220 C 
ATOM     26  O   UNL     1      -0.676  -3.741  -7.885  0.00  0.00    -0.275 OA
ATOM     27  N   UNL     1      -0.744  -5.707  -8.910  0.00  0.00    -0.240 N 
ATOM     28  C   UNL     1      -0.864  -5.119 -10.117  0.00  0.00    +0.303 C 
ATOM     29  O   UNL     1      -0.889  -3.907 -10.203  0.00  0.00    -0.253 OA
ATOM     30  N   UNL     1      -0.957  -5.876 -11.228  0.00  0.00    -0.313 N 
ATOM     31  H   UNL     1      -0.725  -6.674  -8.841  0.00  0.00    +0.159 HD
ATOM     32  H   UNL     1      -0.937  -6.843 -11.159  0.00  0.00    +0.146 HD
ATOM     33  H   UNL     1      -1.043  -5.453 -12.097  0.00  0.00    +0.146 HD
ENDBRANCH  24  25
ENDBRANCH  23  24
ENDBRANCH  22  23
ENDBRANCH  21  22
ENDBRANCH  10  21
TORSDOF 6
