REMARK  Name = ZINC13518317
REMARK  6 active torsions:
REMARK  status: ('A' for Active; 'I' for Inactive)
REMARK    1  A    between atoms: C_1  and  O_2
REMARK    2  A    between atoms: O_2  and  C_3
REMARK    3  A    between atoms: C_5  and  C_10
REMARK    4  A    between atoms: C_8  and  O_9
REMARK    5  A    between atoms: C_18  and  C_27
REMARK    6  A    between atoms: N_20  and  C_21
REMARK                            x       y       z     vdW  Elec       q    Type
REMARK                         _______ _______ _______ _____ _____    ______ ____
ROOT
ATOM      1  C   UNL     1      -4.800   0.190   0.006  0.00  0.00    +0.063 C 
ATOM      2  C   UNL     1      -5.585  -0.177   1.269  0.00  0.00    +0.109 C 
ATOM      3  C   UNL     1      -6.279  -1.500   1.113  0.00  0.00    +0.219 C 
ATOM      4  O   UNL     1      -6.329  -2.253   2.062  0.00  0.00    -0.275 OA
ATOM      5  N   UNL     1      -6.849  -1.877  -0.051  0.00  0.00    -0.270 N 
ATOM      6  C   UNL     1      -6.615  -1.094  -1.182  0.00  0.00    +0.133 A 
ATOM      7  C   UNL     1      -5.663  -0.110  -1.193  0.00  0.00    +0.028 A 
ATOM      8  C   UNL     1      -5.678   0.491  -2.454  0.00  0.00    +0.099 A 
ATOM      9  N   UNL     1      -6.592  -0.120  -3.186  0.00  0.00    -0.164 NA
ATOM     10  N   UNL     1      -7.186  -1.127  -2.405  0.00  0.00    -0.217 N 
ATOM     11  H   UNL     1      -7.406  -2.670  -0.101  0.00  0.00    +0.156 HD
ENDROOT
BRANCH   8  12
ATOM     12  C   UNL     1      -4.818   1.617  -2.894  0.00  0.00    +0.003 A 
ATOM     13  C   UNL     1      -4.245   1.605  -4.164  0.00  0.00    +0.011 A 
ATOM     14  C   UNL     1      -3.446   2.655  -4.568  0.00  0.00    +0.020 A 
ATOM     15  C   UNL     1      -3.213   3.719  -3.714  0.00  0.00    +0.041 A 
ATOM     16  C   UNL     1      -3.779   3.736  -2.451  0.00  0.00    +0.020 A 
ATOM     17  C   UNL     1      -4.585   2.693  -2.040  0.00  0.00    +0.011 A 
ATOM     18 CL   UNL     1      -2.207   5.037  -4.228  0.00  0.00    -0.084 Cl
ENDBRANCH   8  12
BRANCH   1  21
ATOM     19  C   UNL     1      -1.143  -0.746  -0.154  0.00  0.00    +0.162 A 
ATOM     20  C   UNL     1      -2.306   0.004  -0.092  0.00  0.00    +0.053 A 
ATOM     21  C   UNL     1      -3.535  -0.628  -0.062  0.00  0.00    -0.036 A 
ATOM     22  C   UNL     1      -3.607  -2.008  -0.093  0.00  0.00    +0.008 A 
ATOM     23  C   UNL     1      -2.451  -2.763  -0.154  0.00  0.00    +0.049 A 
ATOM     24  C   UNL     1      -1.216  -2.135  -0.191  0.00  0.00    +0.158 A 
BRANCH  19  26
ATOM     25  C   UNL     1       0.065   1.302  -0.143  0.00  0.00    +0.277 C 
ATOM     26  O   UNL     1       0.067  -0.126  -0.184  0.00  0.00    -0.491 OA
ENDBRANCH  19  26
BRANCH  24  27
ATOM     27  O   UNL     1      -0.077  -2.876  -0.258  0.00  0.00    -0.503 OA
ATOM     28  H   UNL     1       0.287  -3.116   0.606  0.00  0.00    +0.292 HD
ENDBRANCH  24  27
ENDBRANCH   1  21
BRANCH  10  29
ATOM     29  C   UNL     1      -8.192  -2.009  -2.821  0.00  0.00    +0.067 A 
ATOM     30  C   UNL     1      -8.214  -3.314  -2.345  0.00  0.00    +0.028 A 
ATOM     31  C   UNL     1      -9.207  -4.181  -2.757  0.00  0.00    +0.002 A 
ATOM     32  C   UNL     1     -10.178  -3.751  -3.643  0.00  0.00    +0.000 A 
ATOM     33  C   UNL     1     -10.159  -2.452  -4.118  0.00  0.00    +0.002 A 
ATOM     34  C   UNL     1      -9.172  -1.579  -3.705  0.00  0.00    +0.028 A 
ENDBRANCH  10  29
TORSDOF 5
