REMARK  Name = ZINC02289074
REMARK  6 active torsions:
REMARK  status: ('A' for Active; 'I' for Inactive)
REMARK    1  A    between atoms: C_1  and  C_2
REMARK    2  A    between atoms: C_5  and  N_8
REMARK    3  A    between atoms: C_12  and  C_26
REMARK    4  A    between atoms: C_13  and  C_20
REMARK    5  A    between atoms: N_14  and  C_19
REMARK    6  A    between atoms: N_17  and  C_18
REMARK                            x       y       z     vdW  Elec       q    Type
REMARK                         _______ _______ _______ _____ _____    ______ ____
ROOT
ATOM      1  N   UNL     1       3.417   5.843  -1.185  0.00  0.00    -0.225 N 
ATOM      2  C   UNL     1       2.907   6.275  -0.025  0.00  0.00    +0.310 C 
ATOM      3  O   UNL     1       2.870   7.450   0.286  0.00  0.00    -0.252 OA
ATOM      4  N   UNL     1       2.425   5.298   0.754  0.00  0.00    -0.270 N 
ATOM      5  C   UNL     1       2.634   4.002   0.095  0.00  0.00    +0.176 C 
ATOM      6  C   UNL     1       3.308   4.379  -1.249  0.00  0.00    +0.182 C 
ATOM      7  N   UNL     1       4.640   3.765  -1.154  0.00  0.00    -0.259 N 
ATOM      8  C   UNL     1       4.755   3.135   0.021  0.00  0.00    +0.308 C 
ATOM      9  O   UNL     1       5.761   2.541   0.359  0.00  0.00    -0.252 OA
ATOM     10  N   UNL     1       3.670   3.233   0.799  0.00  0.00    -0.260 N 
ATOM     11  C   UNL     1       3.527   2.643   2.132  0.00  0.00    +0.136 C 
ATOM     12  C   UNL     1       5.679   3.832  -2.185  0.00  0.00    +0.136 C 
ATOM     13  H   UNL     1       2.019   5.425   1.626  0.00  0.00    +0.153 HD
ENDROOT
BRANCH   1  18
ATOM     14  C   UNL     1       5.648   9.148  -5.221  0.00  0.00    +0.044 C 
ATOM     15  C   UNL     1       5.055   8.270  -4.149  0.00  0.00    -0.050 A 
ATOM     16  C   UNL     1       4.685   8.818  -2.935  0.00  0.00    +0.005 A 
ATOM     17  C   UNL     1       4.141   8.017  -1.950  0.00  0.00    +0.024 A 
ATOM     18  C   UNL     1       3.967   6.658  -2.181  0.00  0.00    +0.040 A 
ATOM     19  C   UNL     1       4.344   6.110  -3.399  0.00  0.00    +0.024 A 
ATOM     20  C   UNL     1       4.882   6.918  -4.382  0.00  0.00    +0.005 A 
ENDBRANCH   1  18
BRANCH   6  21
ATOM     21  C   UNL     1       2.532   3.904  -2.450  0.00  0.00    -0.001 A 
ATOM     22  C   UNL     1       2.787   2.657  -2.990  0.00  0.00    +0.007 A 
ATOM     23  C   UNL     1       2.071   2.220  -4.088  0.00  0.00    +0.000 A 
ATOM     24  C   UNL     1       1.108   3.033  -4.655  0.00  0.00    +0.000 A 
ATOM     25  C   UNL     1       0.857   4.282  -4.119  0.00  0.00    +0.000 A 
ATOM     26  C   UNL     1       1.568   4.718  -3.017  0.00  0.00    +0.007 A 
ENDBRANCH   6  21
BRANCH   5  27
ATOM     27  C   UNL     1       1.354   3.227  -0.086  0.00  0.00    -0.002 A 
ATOM     28  C   UNL     1       1.385   1.846  -0.147  0.00  0.00    +0.007 A 
ATOM     29  C   UNL     1       0.211   1.136  -0.312  0.00  0.00    +0.000 A 
ATOM     30  C   UNL     1      -0.993   1.806  -0.422  0.00  0.00    +0.000 A 
ATOM     31  C   UNL     1      -1.024   3.186  -0.358  0.00  0.00    +0.000 A 
ATOM     32  C   UNL     1       0.150   3.897  -0.192  0.00  0.00    +0.007 A 
ENDBRANCH   5  27
TORSDOF 3
