REMARK  Name = ZINC38747422
REMARK  7 active torsions:
REMARK  status: ('A' for Active; 'I' for Inactive)
REMARK    1  A    between atoms: C_1  and  C_2
REMARK    2  A    between atoms: C_4  and  C_30
REMARK    3  A    between atoms: C_8  and  S_12
REMARK    4  A    between atoms: S_12  and  C_13
REMARK    5  A    between atoms: C_13  and  C_14
REMARK    6  A    between atoms: N_16  and  C_17
REMARK    7  A    between atoms: C_18  and  C_26
REMARK                            x       y       z     vdW  Elec       q    Type
REMARK                         _______ _______ _______ _____ _____    ______ ____
ROOT
ATOM      1  C   UNL     1       7.465  -5.004  -1.008  0.00  0.00    +0.228 C 
ATOM      2  O   UNL     1       7.806  -5.221   0.135  0.00  0.00    -0.275 OA
ATOM      3  N   UNL     1       8.188  -5.498  -2.033  0.00  0.00    -0.279 N 
ATOM      4  H   UNL     1       7.915  -5.324  -2.947  0.00  0.00    +0.155 HD
ENDROOT
BRANCH   3   5
ATOM      5  C   UNL     1       9.323  -6.254  -1.779  0.00  0.00    +0.084 A 
ATOM      6  C   UNL     1      10.184  -6.832  -2.698  0.00  0.00    +0.068 A 
ATOM      7  C   UNL     1      11.311  -7.582  -2.171  0.00  0.00    -0.023 A 
ATOM      8  C   UNL     1      11.370  -7.616  -0.822  0.00  0.00    -0.004 A 
ATOM      9  S   UNL     1       9.973  -6.672  -0.288  0.00  0.00    -0.077 S 
ATOM     10  C   UNL     1      12.402  -8.304   0.016  0.00  0.00    +0.043 C 
ATOM     11  C   UNL     1      13.176  -9.283  -0.879  0.00  0.00    +0.005 C 
ATOM     12  C   UNL     1      13.591  -8.559  -2.163  0.00  0.00    +0.005 C 
ATOM     13  C   UNL     1      12.357  -8.282  -3.026  0.00  0.00    +0.037 C 
BRANCH   6  14
ATOM     14  C   UNL     1       9.967  -6.693  -4.141  0.00  0.00    +0.244 C 
ATOM     15  O   UNL     1      10.462  -5.759  -4.744  0.00  0.00    -0.270 OA
ATOM     16  N   UNL     1       9.219  -7.600  -4.801  0.00  0.00    -0.325 N 
ATOM     17  H   UNL     1       8.825  -8.345  -4.320  0.00  0.00    +0.145 HD
ATOM     18  H   UNL     1       9.075  -7.508  -5.755  0.00  0.00    +0.145 HD
ENDBRANCH   6  14
ENDBRANCH   3   5
BRANCH   1  19
ATOM     19  C   UNL     1       6.232  -4.182  -1.284  0.00  0.00    +0.173 C 
BRANCH  19  20
ATOM     20  S   UNL     1       5.485  -3.667   0.287  0.00  0.00    -0.079 S 
BRANCH  20  27
ATOM     21  C   UNL     1      -0.019   1.526   0.010  0.00  0.00    +0.024 C 
ATOM     22  C   UNL     1       0.002  -0.004   0.002  0.00  0.00    +0.076 C 
ATOM     23  C   UNL     1       0.769  -0.528  -1.190  0.00  0.00    -0.045 C 
ATOM     24  C   UNL     1       1.866  -1.259  -0.955  0.00  0.00    +0.071 C 
ATOM     25  C   UNL     1       2.243  -1.498   0.456  0.00  0.00    +0.112 C 
ATOM     26  N   UNL     1       3.303  -2.204   0.753  0.00  0.00    -0.217 NA
ATOM     27  C   UNL     1       4.075  -2.729  -0.199  0.00  0.00    +0.182 C 
ATOM     28  N   UNL     1       3.833  -2.580  -1.490  0.00  0.00    -0.151 NA
ATOM     29  C   UNL     1       2.792  -1.889  -1.952  0.00  0.00    +0.272 C 
ATOM     30  O   UNL     1       2.598  -1.770  -3.151  0.00  0.00    -0.268 OA
ATOM     31  S   UNL     1       0.998  -0.657   1.404  0.00  0.00    -0.098 S 
ATOM     32  C   UNL     1       0.314  -0.238  -2.597  0.00  0.00    +0.041 C 
ENDBRANCH  20  27
ENDBRANCH  19  20
ENDBRANCH   1  19
TORSDOF 5
