REMARK  Name = ZINC13632987
REMARK  4 active torsions:
REMARK  status: ('A' for Active; 'I' for Inactive)
REMARK    1  A    between atoms: C_1  and  C_2
REMARK    2  A    between atoms: C_5  and  N_27
REMARK    3  A    between atoms: C_9  and  C_18
REMARK    4  A    between atoms: C_22  and  N_24
REMARK                            x       y       z     vdW  Elec       q    Type
REMARK                         _______ _______ _______ _____ _____    ______ ____
ROOT
ATOM      1  C   UNL     1      -0.900   1.532   0.142  0.00  0.00    +0.045 C 
ATOM      2  C   UNL     1       0.523   1.036   0.152  0.00  0.00    -0.029 A 
ATOM      3  C   UNL     1       0.784  -0.277   0.473  0.00  0.00    +0.007 A 
ATOM      4  C   UNL     1       2.084  -0.748   0.482  0.00  0.00    +0.033 A 
ATOM      5  C   UNL     1       3.122   0.106   0.158  0.00  0.00    +0.132 A 
ATOM      6  C   UNL     1       2.869   1.421  -0.172  0.00  0.00    +0.011 A 
ATOM      7  C   UNL     1       1.561   1.913  -0.170  0.00  0.00    +0.037 A 
ATOM      8  N   UNL     1       1.224   3.236  -0.448  0.00  0.00    -0.336 N 
ATOM      9  C   UNL     1       2.317   4.120  -0.883  0.00  0.00    +0.105 C 
ATOM     10  C   UNL     1       3.535   3.765  -0.056  0.00  0.00    +0.029 C 
ATOM     11  C   UNL     1       3.955   2.349  -0.558  0.00  0.00    +0.051 C 
ATOM     12  C   UNL     1       5.343   2.211  -0.056  0.00  0.00    -0.023 C 
ATOM     13  C   UNL     1       5.880   3.422   0.038  0.00  0.00    -0.030 C 
ATOM     14  C   UNL     1       4.853   4.481  -0.370  0.00  0.00    +0.033 C 
ATOM     15  H   UNL     1       0.444   3.284  -1.085  0.00  0.00    +0.147 HD
ENDROOT
BRANCH   9  16
ATOM     16  C   UNL     1       2.607   3.896  -2.345  0.00  0.00    -0.025 A 
ATOM     17  C   UNL     1       3.193   4.899  -3.095  0.00  0.00    +0.005 A 
ATOM     18  C   UNL     1       3.459   4.694  -4.436  0.00  0.00    +0.003 A 
ATOM     19  C   UNL     1       3.139   3.486  -5.027  0.00  0.00    +0.033 A 
ATOM     20  C   UNL     1       2.554   2.483  -4.277  0.00  0.00    +0.127 A 
ATOM     21  C   UNL     1       2.292   2.687  -2.935  0.00  0.00    +0.038 A 
BRANCH  20  22
ATOM     22  N   UNL     1       2.210   1.190  -4.910  0.00  0.00    +0.056 N 
ATOM     23  O   UNL     1       2.443   1.010  -6.092  0.00  0.00    -0.126 OA
ATOM     24  O   UNL     1       1.695   0.306  -4.250  0.00  0.00    -0.126 OA
ENDBRANCH  20  22
ENDBRANCH   9  16
BRANCH   5  25
ATOM     25  N   UNL     1       4.515  -0.394   0.167  0.00  0.00    +0.057 N 
ATOM     26  O   UNL     1       5.227  -0.229  -0.807  0.00  0.00    -0.126 OA
ATOM     27  O   UNL     1       4.949  -0.971   1.147  0.00  0.00    -0.126 OA
ENDBRANCH   5  25
TORSDOF 3
