REMARK  Name = ZINC05867963
REMARK  4 active torsions:
REMARK  status: ('A' for Active; 'I' for Inactive)
REMARK    1  A    between atoms: C_1  and  C_2
REMARK    2  A    between atoms: C_2  and  C_3
REMARK    3  A    between atoms: C_3  and  C_4
REMARK    4  A    between atoms: C_4  and  N_5
REMARK                            x       y       z     vdW  Elec       q    Type
REMARK                         _______ _______ _______ _____ _____    ______ ____
ROOT
ATOM      1  N   UNL     1      -3.155  -1.767   0.086  0.00  0.00    -0.267 N 
ATOM      2  C   UNL     1      -2.287  -2.845  -0.049  0.00  0.00    +0.044 A 
ATOM      3  C   UNL     1      -2.518  -4.213  -0.132  0.00  0.00    +0.024 A 
ATOM      4  C   UNL     1      -1.459  -5.088  -0.266  0.00  0.00    +0.002 A 
ATOM      5  C   UNL     1      -0.157  -4.619  -0.319  0.00  0.00    +0.001 A 
ATOM      6  C   UNL     1       0.094  -3.265  -0.237  0.00  0.00    +0.010 A 
ATOM      7  C   UNL     1      -0.967  -2.373  -0.103  0.00  0.00    +0.010 A 
ATOM      8  C   UNL     1      -1.043  -0.901   0.008  0.00  0.00    +0.065 C 
ATOM      9  C   UNL     1       0.002  -0.004   0.002  0.00  0.00    +0.092 C 
ATOM     10  C   UNL     1       1.474  -0.250   0.043  0.00  0.00    +0.277 C 
ATOM     11  O   UNL     1       1.940  -1.375   0.089  0.00  0.00    -0.267 OA
ATOM     12  N   UNL     1       2.238   0.819   0.026  0.00  0.00    -0.155 NA
ATOM     13  C   UNL     1       1.744   2.047  -0.024  0.00  0.00    +0.149 C 
ATOM     14  S   UNL     1      -0.022   1.783  -0.055  0.00  0.00    -0.051 S 
ATOM     15  N   UNL     1       2.423   3.231  -0.047  0.00  0.00    -0.339 N 
ATOM     16  C   UNL     1      -2.488  -0.602   0.132  0.00  0.00    +0.253 C 
ATOM     17  O   UNL     1      -2.983   0.503   0.250  0.00  0.00    -0.270 OA
ATOM     18  H   UNL     1       1.936   4.069  -0.085  0.00  0.00    +0.144 HD
ATOM     19  H   UNL     1       3.393   3.235  -0.025  0.00  0.00    +0.144 HD
ENDROOT
BRANCH   1  20
ATOM     20  C   UNL     1      -4.613  -1.888   0.174  0.00  0.00    +0.114 C 
BRANCH  20  21
ATOM     21  C   UNL     1      -5.025  -2.033   1.641  0.00  0.00    +0.019 C 
BRANCH  21  23
ATOM     22  C   UNL     1      -6.959  -2.305   3.199  0.00  0.00    +0.004 C 
ATOM     23  C   UNL     1      -6.547  -2.160   1.733  0.00  0.00    -0.002 C 
ENDBRANCH  21  23
ENDBRANCH  20  21
ENDBRANCH   1  20
TORSDOF 3
