REMARK  Name = ZINC64502374
REMARK  7 active torsions:
REMARK  status: ('A' for Active; 'I' for Inactive)
REMARK    1  A    between atoms: C_1  and  C_2
REMARK    2  A    between atoms: C_2  and  N_3
REMARK    3  A    between atoms: C_11  and  N_15
REMARK    4  A    between atoms: C_19  and  C_22
REMARK    5  A    between atoms: N_24  and  C_25
REMARK    6  A    between atoms: C_25  and  C_26
REMARK    7  A    between atoms: C_26  and  C_27
REMARK                            x       y       z     vdW  Elec       q    Type
REMARK                         _______ _______ _______ _____ _____    ______ ____
ROOT
ATOM      1  N   UNL     1       3.232   0.064  -3.145  0.00  0.00    +0.398 N 
ATOM      2  C   UNL     1       2.085   0.904  -3.510  0.00  0.00    -0.075 C 
ATOM      3  C   UNL     1       2.580   2.177  -4.200  0.00  0.00    -0.018 C 
ATOM      4  C   UNL     1       3.360   1.797  -5.462  0.00  0.00    +0.009 C 
ATOM      5  C   UNL     1       4.509   0.861  -5.078  0.00  0.00    +0.058 C 
ATOM      6  C   UNL     1       3.942  -0.364  -4.356  0.00  0.00    -0.063 C 
ATOM      7  H   UNL     1       3.859   0.592  -2.556  0.00  0.00    -0.078 HD
ENDROOT
BRANCH   1  16
ATOM      8  N   UNL     1       0.688  -0.476  -1.203  0.00  0.00    -0.270 N 
ATOM      9  C   UNL     1      -0.046  -0.706  -2.373  0.00  0.00    +0.057 A 
ATOM     10  C   UNL     1      -1.339  -0.224  -2.504  0.00  0.00    +0.025 A 
ATOM     11  C   UNL     1      -2.049  -0.465  -3.666  0.00  0.00    +0.002 A 
ATOM     12  C   UNL     1      -1.476  -1.185  -4.699  0.00  0.00    +0.002 A 
ATOM     13  C   UNL     1      -0.185  -1.668  -4.578  0.00  0.00    +0.025 A 
ATOM     14  C   UNL     1       0.531  -1.427  -3.419  0.00  0.00    +0.048 A 
ATOM     15  N   UNL     1       1.845  -1.893  -3.270  0.00  0.00    -0.348 N 
ATOM     16  C   UNL     1       2.757  -1.119  -2.414  0.00  0.00    +0.105 C 
ATOM     17  C   UNL     1       2.018  -0.681  -1.176  0.00  0.00    +0.223 C 
ATOM     18  O   UNL     1       2.630  -0.513  -0.142  0.00  0.00    -0.275 OA
ATOM     19  H   UNL     1       2.144  -2.700  -3.718  0.00  0.00    +0.145 HD
BRANCH   8  21
ATOM     20  C   UNL     1      -0.019   1.526   0.010  0.00  0.00    +0.025 C 
ATOM     21  C   UNL     1       0.002  -0.004   0.002  0.00  0.00    +0.110 C 
ENDBRANCH   8  21
ENDBRANCH   1  16
BRANCH   5  22
ATOM     22  C   UNL     1       5.237   0.420  -6.322  0.00  0.00    +0.214 C 
ATOM     23  O   UNL     1       5.300  -0.758  -6.602  0.00  0.00    -0.276 OA
ATOM     24  N   UNL     1       5.817   1.336  -7.123  0.00  0.00    -0.315 N 
ATOM     25  H   UNL     1       5.766   2.278  -6.899  0.00  0.00    +0.149 HD
BRANCH  24  26
ATOM     26  C   UNL     1       6.524   0.908  -8.332  0.00  0.00    +0.108 C 
BRANCH  26  27
ATOM     27  C   UNL     1       7.086   2.134  -9.056  0.00  0.00    +0.052 C 
BRANCH  27  28
ATOM     28  C   UNL     1       7.814   1.693 -10.300  0.00  0.00    -0.040 C 
ATOM     29  C   UNL     1       7.315   1.636 -11.556  0.00  0.00    +0.000 A 
ATOM     30  C   UNL     1       5.997   1.953 -12.118  0.00  0.00    +0.030 A 
ATOM     31  C   UNL     1       5.793   1.790 -13.446  0.00  0.00    +0.042 A 
ATOM     32  C   UNL     1       6.808   1.326 -14.296  0.00  0.00    +0.022 A 
ATOM     33  C   UNL     1       8.044   1.014 -13.852  0.00  0.00    +0.027 A 
ATOM     34  C   UNL     1       8.369   1.149 -12.474  0.00  0.00    +0.043 A 
ATOM     35  N   UNL     1       9.476   0.914 -11.812  0.00  0.00    -0.380 N 
ATOM     36  C   UNL     1       9.251   1.233 -10.397  0.00  0.00    +0.144 C 
ATOM     37 CL   UNL     1       4.236   2.164 -14.114  0.00  0.00    -0.084 Cl
ATOM     38  H   UNL     1      10.306   0.588 -12.193  0.00  0.00    +0.160 HD
ENDBRANCH  27  28
ENDBRANCH  26  27
ENDBRANCH  24  26
ENDBRANCH   5  22
TORSDOF 6
