REMARK  Name = ZINC26990487
REMARK  7 active torsions:
REMARK  status: ('A' for Active; 'I' for Inactive)
REMARK    1  A    between atoms: C_1  and  C_2
REMARK    2  A    between atoms: C_3  and  C_25
REMARK    3  A    between atoms: C_9  and  C_12
REMARK    4  A    between atoms: C_12  and  O_14
REMARK    5  A    between atoms: O_14  and  C_15
REMARK    6  A    between atoms: C_18  and  C_21
REMARK    7  A    between atoms: N_23  and  C_24
REMARK                            x       y       z     vdW  Elec       q    Type
REMARK                         _______ _______ _______ _____ _____    ______ ____
ROOT
ATOM      1  C   UNL     1      -4.855   5.290   0.159  0.00  0.00    +0.344 C 
ATOM      2  O   UNL     1      -3.782   5.860   0.154  0.00  0.00    -0.245 OA
ENDROOT
BRANCH   1  11
ATOM      3  C   UNL     1      -6.560  10.736   0.708  0.00  0.00    +0.046 C 
ATOM      4  C   UNL     1      -7.549   9.600   0.659  0.00  0.00    -0.022 A 
ATOM      5  C   UNL     1      -8.885   9.699   0.734  0.00  0.00    +0.017 A 
ATOM      6  N   UNL     1      -9.451   8.456   0.657  0.00  0.00    -0.358 N 
ATOM      7  H   UNL     1     -10.545   8.346   0.702  0.00  0.00    +0.166 HD
ATOM      8  C   UNL     1      -8.472   7.501   0.527  0.00  0.00    +0.047 A 
ATOM      9  C   UNL     1      -7.234   8.175   0.523  0.00  0.00    +0.004 A 
ATOM     10  C   UNL     1      -6.050   7.454   0.403  0.00  0.00    +0.025 A 
ATOM     11  C   UNL     1      -6.102   6.067   0.287  0.00  0.00    +0.060 A 
ATOM     12  C   UNL     1      -7.341   5.409   0.287  0.00  0.00    +0.017 A 
ATOM     13  C   UNL     1      -8.502   6.113   0.410  0.00  0.00    +0.027 A 
ATOM     14  C   UNL     1      -9.649  10.990   0.882  0.00  0.00    +0.063 C 
ENDBRANCH   1  11
BRANCH   1  15
ATOM     15  O   UNL     1      -4.906   3.948   0.047  0.00  0.00    -0.422 OA
BRANCH  15  16
ATOM     16  C   UNL     1      -3.722   3.284   0.054  0.00  0.00    +0.132 A 
ATOM     17  C   UNL     1      -2.965   3.228   1.219  0.00  0.00    +0.047 A 
ATOM     18  C   UNL     1      -1.764   2.554   1.230  0.00  0.00    +0.016 A 
ATOM     19  C   UNL     1      -1.305   1.928   0.069  0.00  0.00    +0.037 A 
ATOM     20  C   UNL     1      -2.066   1.992  -1.102  0.00  0.00    +0.016 A 
ATOM     21  C   UNL     1      -3.269   2.661  -1.103  0.00  0.00    +0.047 A 
BRANCH  19  22
ATOM     22  C   UNL     1      -0.018   1.206   0.076  0.00  0.00    +0.244 C 
ATOM     23  O   UNL     1       0.645   1.156   1.094  0.00  0.00    -0.270 OA
ATOM     24  N   UNL     1       0.420   0.597  -1.044  0.00  0.00    -0.314 N 
ATOM     25  C   UNL     1       1.695  -0.124  -1.034  0.00  0.00    +0.128 C 
ATOM     26  H   UNL     1      -0.179   0.643  -1.965  0.00  0.00    +0.149 HD
ENDBRANCH  19  22
ENDBRANCH  15  16
ENDBRANCH   1  15
TORSDOF 4
