REMARK  Name = ZINC12372046
REMARK  9 active torsions:
REMARK  status: ('A' for Active; 'I' for Inactive)
REMARK    1  A    between atoms: C_1  and  C_2
REMARK    2  A    between atoms: C_3  and  C_24
REMARK    3  A    between atoms: C_6  and  S_8
REMARK    4  A    between atoms: S_8  and  C_9
REMARK    5  A    between atoms: C_9  and  C_10
REMARK    6  A    between atoms: N_12  and  C_13
REMARK    7  A    between atoms: C_14  and  C_22
REMARK    8  A    between atoms: C_24  and  C_25
REMARK    9  A    between atoms: C_28  and  O_31
REMARK                            x       y       z     vdW  Elec       q    Type
REMARK                         _______ _______ _______ _____ _____    ______ ____
ROOT
ATOM      1  S   UNL     1       0.059  -3.453   1.776  0.00  0.00    -0.079 S 
ENDROOT
BRANCH   1   7
ATOM      2  C   UNL     1      -0.018   1.503   0.010  0.00  0.00    +0.067 C 
ATOM      3  C   UNL     1       0.002  -0.004   0.002  0.00  0.00    +0.060 A 
ATOM      4  C   UNL     1       0.008  -0.785  -1.092  0.00  0.00    +0.043 A 
ATOM      5  N   UNL     1       0.028  -2.090  -0.654  0.00  0.00    -0.336 N 
ATOM      6  H   UNL     1       0.037  -2.885  -1.209  0.00  0.00    +0.168 HD
ATOM      7  C   UNL     1       0.034  -2.053   0.707  0.00  0.00    +0.167 A 
ATOM      8  N   UNL     1       0.024  -0.796   1.087  0.00  0.00    -0.227 NA
BRANCH   4   9
ATOM      9  C   UNL     1      -0.006  -0.320  -2.525  0.00  0.00    +0.090 C 
BRANCH   9  10
ATOM     10  C   UNL     1       1.403  -0.027  -2.972  0.00  0.00    -0.041 A 
ATOM     11  C   UNL     1       1.931   1.240  -2.803  0.00  0.00    +0.007 A 
ATOM     12  C   UNL     1       3.222   1.511  -3.212  0.00  0.00    +0.045 A 
ATOM     13  C   UNL     1       3.989   0.511  -3.793  0.00  0.00    +0.117 A 
ATOM     14  C   UNL     1       3.457  -0.759  -3.961  0.00  0.00    +0.045 A 
ATOM     15  C   UNL     1       2.167  -1.026  -3.546  0.00  0.00    +0.007 A 
BRANCH  13  16
ATOM     16  O   UNL     1       5.260   0.776  -4.197  0.00  0.00    -0.507 OA
ATOM     17  H   UNL     1       5.929   0.621  -3.516  0.00  0.00    +0.292 HD
ENDBRANCH  13  16
ENDBRANCH   9  10
ENDBRANCH   4   9
ENDBRANCH   1   7
BRANCH   1  18
ATOM     18  C   UNL     1       0.057  -2.734   3.441  0.00  0.00    +0.173 C 
BRANCH  18  19
ATOM     19  C   UNL     1       0.078  -3.839   4.466  0.00  0.00    +0.228 C 
ATOM     20  O   UNL     1       0.092  -4.997   4.108  0.00  0.00    -0.275 OA
ATOM     21  N   UNL     1       0.080  -3.539   5.780  0.00  0.00    -0.278 N 
ATOM     22  H   UNL     1       0.068  -2.613   6.066  0.00  0.00    +0.155 HD
BRANCH  21  23
ATOM     23  C   UNL     1       0.099  -4.557   6.723  0.00  0.00    +0.090 A 
ATOM     24  C   UNL     1       0.098  -4.439   8.104  0.00  0.00    +0.084 A 
ATOM     25  C   UNL     1       0.120  -5.668   8.876  0.00  0.00    -0.018 A 
ATOM     26  C   UNL     1       0.139  -6.792   8.126  0.00  0.00    -0.004 A 
ATOM     27  S   UNL     1       0.120  -6.214   6.454  0.00  0.00    -0.077 S 
ATOM     28  C   UNL     1       0.166  -8.204   8.622  0.00  0.00    +0.043 C 
ATOM     29  C   UNL     1       0.549  -8.185  10.109  0.00  0.00    +0.005 C 
ATOM     30  C   UNL     1      -0.305  -7.137  10.828  0.00  0.00    +0.005 C 
ATOM     31  C   UNL     1       0.122  -5.732  10.396  0.00  0.00    +0.037 C 
BRANCH  24  32
ATOM     32  C   UNL     1       0.078  -3.157   8.742  0.00  0.00    +0.102 C 
ATOM     33  N   UNL     1       0.061  -2.140   9.249  0.00  0.00    -0.191 NA
ENDBRANCH  24  32
ENDBRANCH  21  23
ENDBRANCH  18  19
ENDBRANCH   1  18
TORSDOF 8
