REMARK  Name = ZINC31168118
REMARK  10 active torsions:
REMARK  status: ('A' for Active; 'I' for Inactive)
REMARK    1  A    between atoms: C_1  and  C_2
REMARK    2  A    between atoms: C_6  and  O_8
REMARK    3  A    between atoms: C_14  and  O_18
REMARK    4  A    between atoms: C_16  and  O_17
REMARK    5  A    between atoms: O_18  and  C_19
REMARK    6  A    between atoms: C_20  and  C_21
REMARK    7  A    between atoms: C_20  and  O_26
REMARK    8  A    between atoms: C_21  and  C_22
REMARK    9  A    between atoms: C_23  and  C_24
REMARK   10  A    between atoms: C_23  and  C_25
REMARK                            x       y       z     vdW  Elec       q    Type
REMARK                         _______ _______ _______ _____ _____    ______ ____
ROOT
ATOM      1  C   UNL     1      -2.225  -6.776   0.666  0.00  0.00    +0.044 C 
ATOM      2  C   UNL     1      -1.693  -6.150  -0.598  0.00  0.00    -0.047 A 
ATOM      3  C   UNL     1      -1.666  -4.772  -0.722  0.00  0.00    +0.011 A 
ATOM      4  C   UNL     1      -1.183  -4.177  -1.874  0.00  0.00    +0.003 A 
ATOM      5  C   UNL     1      -0.730  -4.988  -2.914  0.00  0.00    +0.070 A 
ATOM      6  C   UNL     1      -0.753  -6.383  -2.788  0.00  0.00    +0.128 A 
ATOM      7  C   UNL     1      -1.238  -6.957  -1.622  0.00  0.00    +0.049 A 
ATOM      8  C   UNL     1      -0.224  -4.368  -4.157  0.00  0.00    +0.201 C 
ATOM      9  O   UNL     1       0.460  -4.999  -4.941  0.00  0.00    -0.286 OA
ATOM     10  C   UNL     1      -0.576  -2.959  -4.413  0.00  0.00    +0.070 A 
ATOM     11  C   UNL     1      -1.040  -2.162  -3.364  0.00  0.00    +0.006 A 
ATOM     12  C   UNL     1      -1.397  -0.863  -3.621  0.00  0.00    +0.053 A 
ATOM     13  C   UNL     1      -1.291  -0.337  -4.903  0.00  0.00    +0.124 A 
ATOM     14  C   UNL     1      -0.820  -1.118  -5.948  0.00  0.00    +0.091 A 
ATOM     15  C   UNL     1      -0.458  -2.433  -5.708  0.00  0.00    +0.131 A 
ATOM     16  C   UNL     1      -1.162  -2.681  -1.963  0.00  0.00    +0.121 C 
ENDROOT
BRANCH   6  17
ATOM     17  O   UNL     1      -0.305  -7.167  -3.799  0.00  0.00    -0.506 OA
ATOM     18  H   UNL     1      -0.325  -8.262  -3.696  0.00  0.00    +0.292 HD
ENDBRANCH   6  17
BRANCH  15  19
ATOM     19  O   UNL     1       0.009  -3.208  -6.719  0.00  0.00    -0.506 OA
ATOM     20  H   UNL     1       0.101  -2.792  -7.733  0.00  0.00    +0.292 HD
ENDBRANCH  15  19
BRANCH  13  21
ATOM     21  O   UNL     1      -1.653   0.951  -5.135  0.00  0.00    -0.495 OA
ATOM     22  C   UNL     1      -1.520   1.431  -6.474  0.00  0.00    +0.277 C 
ENDBRANCH  13  21
BRANCH  16  23
ATOM     23  O   UNL     1      -2.370  -2.175  -1.392  0.00  0.00    -0.379 OA
ATOM     24  H   UNL     1      -2.551  -1.091  -1.359  0.00  0.00    +0.211 HD
ENDBRANCH  16  23
BRANCH  16  25
ATOM     25  C   UNL     1       0.021  -2.160  -1.144  0.00  0.00    +0.071 C 
BRANCH  25  26
ATOM     26  C   UNL     1       0.000  -0.653  -1.136  0.00  0.00    -0.025 C 
ATOM     27  C   UNL     1       0.002  -0.004   0.002  0.00  0.00    -0.080 C 
ATOM     28  C   UNL     1      -0.018   1.503   0.010  0.00  0.00    +0.038 C 
ATOM     29  C   UNL     1       0.025  -0.764   1.303  0.00  0.00    +0.038 C 
ENDBRANCH  25  26
ENDBRANCH  16  25
TORSDOF 6
