REMARK  Name = ZINC08380821
REMARK  5 active torsions:
REMARK  status: ('A' for Active; 'I' for Inactive)
REMARK    1  A    between atoms: C_4  and  N_7
REMARK    2  A    between atoms: N_8  and  C_9
REMARK    3  A    between atoms: C_12  and  N_15
REMARK    4  A    between atoms: C_16  and  C_18
REMARK    5  A    between atoms: C_18  and  C_19
REMARK                            x       y       z     vdW  Elec       q    Type
REMARK                         _______ _______ _______ _____ _____    ______ ____
ROOT
ATOM      1  N   UNL     1       8.456  -4.606  -0.108  0.00  0.00    -0.285 N 
ATOM      2  C   UNL     1       8.481  -5.951  -0.018  0.00  0.00    +0.222 C 
ATOM      3  O   UNL     1       7.443  -6.578  -0.016  0.00  0.00    -0.275 OA
ATOM      4  H   UNL     1       9.286  -4.110  -0.187  0.00  0.00    +0.155 HD
ENDROOT
BRANCH   1   8
ATOM      5  C   UNL     1       4.815  -2.580  -0.041  0.00  0.00    +0.086 A 
ATOM      6  C   UNL     1       4.977  -3.756   0.700  0.00  0.00    +0.031 A 
ATOM      7  C   UNL     1       6.181  -4.422   0.675  0.00  0.00    +0.025 A 
ATOM      8  C   UNL     1       7.236  -3.928  -0.086  0.00  0.00    +0.034 A 
ATOM      9  C   UNL     1       7.079  -2.759  -0.824  0.00  0.00    +0.025 A 
ATOM     10  C   UNL     1       5.876  -2.090  -0.808  0.00  0.00    +0.031 A 
BRANCH   5  12
ATOM     11  N   UNL     1       2.644  -2.371   0.689  0.00  0.00    -0.149 NA
ATOM     12  N   UNL     1       3.622  -1.917  -0.019  0.00  0.00    -0.149 NA
BRANCH  11  16
ATOM     13  C   UNL     1      -0.971  -0.360   0.755  0.00  0.00    +0.000 A 
ATOM     14  C   UNL     1      -0.814  -1.520   1.494  0.00  0.00    +0.002 A 
ATOM     15  C   UNL     1       0.388  -2.196   1.476  0.00  0.00    +0.029 A 
ATOM     16  C   UNL     1       1.449  -1.707   0.710  0.00  0.00    +0.086 A 
ATOM     17  C   UNL     1       1.284  -0.535  -0.033  0.00  0.00    +0.029 A 
ATOM     18  C   UNL     1       0.076   0.130  -0.006  0.00  0.00    +0.002 A 
ENDBRANCH  11  16
ENDBRANCH   5  12
ENDBRANCH   1   8
BRANCH   2  19
ATOM     19  C   UNL     1       9.799  -6.675   0.078  0.00  0.00    +0.135 C 
BRANCH  19  20
ATOM     20  C   UNL     1       9.552  -8.159   0.166  0.00  0.00    +0.007 A 
ATOM     21  C   UNL     1       9.466  -8.898   1.284  0.00  0.00    +0.200 A 
ATOM     22  O   UNL     1       9.238 -10.183   0.967  0.00  0.00    -0.463 OA
ATOM     23  C   UNL     1       9.164 -10.343  -0.370  0.00  0.00    +0.136 A 
ATOM     24  C   UNL     1       9.350  -9.083  -0.948  0.00  0.00    +0.031 A 
ATOM     25  C   UNL     1       9.313  -8.951  -2.399  0.00  0.00    -0.007 A 
ATOM     26  C   UNL     1       9.496  -7.718  -3.033  0.00  0.00    +0.009 A 
ATOM     27  C   UNL     1       9.454  -7.645  -4.394  0.00  0.00    +0.001 A 
ATOM     28  C   UNL     1       9.230  -8.784  -5.164  0.00  0.00    +0.001 A 
ATOM     29  C   UNL     1       9.047 -10.000  -4.578  0.00  0.00    +0.008 A 
ATOM     30  C   UNL     1       9.085 -10.111  -3.179  0.00  0.00    -0.017 A 
ATOM     31  C   UNL     1       8.902 -11.352  -2.539  0.00  0.00    +0.012 A 
ATOM     32  C   UNL     1       8.947 -11.458  -1.188  0.00  0.00    +0.047 A 
ENDBRANCH  19  20
ENDBRANCH   2  19
TORSDOF 5
