REMARK  Name = ZINC20713711
REMARK  7 active torsions:
REMARK  status: ('A' for Active; 'I' for Inactive)
REMARK    1  A    between atoms: C_1  and  C_2
REMARK    2  A    between atoms: C_2  and  C_3
REMARK    3  A    between atoms: C_2  and  C_4
REMARK    4  A    between atoms: C_2  and  N_5
REMARK    5  A    between atoms: C_6  and  C_8
REMARK    6  A    between atoms: C_21  and  C_24
REMARK    7  A    between atoms: C_29  and  N_30
REMARK                            x       y       z     vdW  Elec       q    Type
REMARK                         _______ _______ _______ _____ _____    ______ ____
ROOT
ATOM      1  C   UNL     1      -2.113   0.662  -0.420  0.00  0.00    +0.037 A 
ATOM      2  C   UNL     1      -1.821   2.012  -0.204  0.00  0.00    +0.015 A 
ATOM      3  C   UNL     1      -2.841   2.927  -0.092  0.00  0.00    +0.024 A 
ATOM      4  C   UNL     1      -4.170   2.519  -0.182  0.00  0.00    +0.031 A 
ATOM      5  C   UNL     1      -4.462   1.166  -0.407  0.00  0.00    -0.019 A 
ATOM      6  C   UNL     1      -3.445   0.249  -0.517  0.00  0.00    +0.019 A 
ATOM      7  C   UNL     1      -5.886   0.788  -0.537  0.00  0.00    +0.049 C 
ATOM      8  C   UNL     1      -6.397  -0.583  -0.231  0.00  0.00    -0.023 C 
ATOM      9  C   UNL     1      -7.633  -0.492   0.245  0.00  0.00    -0.030 C 
ATOM     10  C   UNL     1      -8.062   0.975   0.309  0.00  0.00    +0.033 C 
ATOM     11  C   UNL     1      -6.708   1.687   0.434  0.00  0.00    +0.029 C 
ATOM     12  C   UNL     1      -6.608   3.091  -0.133  0.00  0.00    +0.107 C 
ATOM     13  N   UNL     1      -5.182   3.466  -0.025  0.00  0.00    -0.336 N 
ATOM     14  H   UNL     1      -4.901   4.509   0.183  0.00  0.00    +0.147 HD
ENDROOT
BRANCH  12  15
ATOM     15  C   UNL     1      -7.457   4.040   0.674  0.00  0.00    +0.003 A 
ATOM     16  C   UNL     1      -7.963   3.644   1.898  0.00  0.00    +0.008 A 
ATOM     17  C   UNL     1      -8.742   4.514   2.638  0.00  0.00    +0.000 A 
ATOM     18  C   UNL     1      -9.015   5.780   2.154  0.00  0.00    +0.002 A 
ATOM     19  C   UNL     1      -8.509   6.175   0.930  0.00  0.00    +0.033 A 
ATOM     20  C   UNL     1      -7.726   5.307   0.192  0.00  0.00    +0.131 A 
BRANCH  20  21
ATOM     21  N   UNL     1      -7.180   5.733  -1.116  0.00  0.00    +0.057 N 
ATOM     22  O   UNL     1      -7.506   6.805  -1.593  0.00  0.00    -0.126 OA
ATOM     23  O   UNL     1      -6.404   5.011  -1.716  0.00  0.00    -0.126 OA
ENDBRANCH  20  21
ENDBRANCH  12  15
BRANCH   1  25
ATOM     24  N   UNL     1       0.262   0.079  -0.449  0.00  0.00    -0.307 N 
ATOM     25  C   UNL     1      -1.021  -0.323  -0.538  0.00  0.00    +0.244 C 
ATOM     26  O   UNL     1      -1.279  -1.497  -0.720  0.00  0.00    -0.270 OA
ATOM     27  H   UNL     1       0.495   1.142  -0.284  0.00  0.00    +0.150 HD
BRANCH  24  29
ATOM     28  C   UNL     1       1.266  -1.579  -1.941  0.00  0.00    +0.031 C 
ATOM     29  C   UNL     1       1.346  -0.898  -0.573  0.00  0.00    +0.026 C 
ATOM     30  C   UNL     1       2.693  -0.185  -0.436  0.00  0.00    +0.031 C 
ATOM     31  C   UNL     1       1.212  -1.951   0.529  0.00  0.00    +0.031 C 
ENDBRANCH  24  29
ENDBRANCH   1  25
TORSDOF 4
