REMARK  Name = ZINC14201515
REMARK  2 active torsions:
REMARK  status: ('A' for Active; 'I' for Inactive)
REMARK    1  A    between atoms: C_6  and  C_7
REMARK    2  A    between atoms: N_13  and  C_14
REMARK                            x       y       z     vdW  Elec       q    Type
REMARK                         _______ _______ _______ _____ _____    ______ ____
ROOT
ATOM      1  C   UNL     1      -2.499   1.010   0.020  0.00  0.00    +0.081 C 
ATOM      2  N   UNL     1      -2.463  -0.279   0.013  0.00  0.00    -0.151 NA
ATOM      3  N   UNL     1      -3.453  -1.076  -0.007  0.00  0.00    -0.127 NA
ATOM      4  C   UNL     1      -4.663  -0.765  -0.407  0.00  0.00    +0.176 C 
ATOM      5  S   UNL     1      -4.997   0.868  -0.992  0.00  0.00    -0.083 S 
ATOM      6  C   UNL     1      -3.801   1.774   0.036  0.00  0.00    +0.135 C 
ATOM      7  N   UNL     1      -5.665  -1.704  -0.373  0.00  0.00    -0.320 N 
ATOM      8  H   UNL     1      -6.558  -1.472  -0.670  0.00  0.00    +0.148 HD
ENDROOT
BRANCH   1  14
ATOM      9  C   UNL     1      -1.245   3.158   0.032  0.00  0.00    +0.013 A 
ATOM     10  C   UNL     1      -0.057   3.857   0.023  0.00  0.00    +0.050 A 
ATOM     11  C   UNL     1       1.153   3.179   0.008  0.00  0.00    +0.166 A 
ATOM     12  C   UNL     1       1.174   1.784   0.000  0.00  0.00    +0.167 A 
ATOM     13  C   UNL     1      -0.013   1.076   0.008  0.00  0.00    +0.059 A 
ATOM     14  C   UNL     1      -1.233   1.760   0.017  0.00  0.00    +0.003 A 
ATOM     15  O   UNL     1       2.474   1.367  -0.015  0.00  0.00    -0.453 OA
ATOM     16  C   UNL     1       3.240   2.514  -0.429  0.00  0.00    +0.466 C 
ATOM     17  O   UNL     1       2.441   3.632  -0.003  0.00  0.00    -0.453 OA
ENDBRANCH   1  14
BRANCH   7  18
ATOM     18  C   UNL     1      -5.383  -3.058   0.112  0.00  0.00    +0.072 C 
ATOM     19  C   UNL     1      -4.828  -3.905  -1.035  0.00  0.00    +0.022 C 
ATOM     20  C   UNL     1      -4.534  -5.319  -0.529  0.00  0.00    +0.002 C 
ATOM     21  C   UNL     1      -5.824  -5.952  -0.005  0.00  0.00    +0.000 C 
ATOM     22  C   UNL     1      -6.379  -5.105   1.141  0.00  0.00    +0.002 C 
ATOM     23  C   UNL     1      -6.673  -3.691   0.635  0.00  0.00    +0.022 C 
ENDBRANCH   7  18
TORSDOF 2
