REMARK  Name = ZINC64066506
REMARK  10 active torsions:
REMARK  status: ('A' for Active; 'I' for Inactive)
REMARK    1  A    between atoms: C_1  and  C_2
REMARK    2  A    between atoms: C_2  and  C_3
REMARK    3  A    between atoms: C_2  and  N_4
REMARK    4  A    between atoms: C_8  and  S_9
REMARK    5  A    between atoms: S_9  and  C_10
REMARK    6  A    between atoms: C_10  and  C_11
REMARK    7  A    between atoms: N_13  and  C_14
REMARK    8  A    between atoms: C_14  and  C_15
REMARK    9  A    between atoms: C_15  and  C_17
REMARK   10  A    between atoms: C_15  and  C_22
REMARK                            x       y       z     vdW  Elec       q    Type
REMARK                         _______ _______ _______ _____ _____    ______ ____
ROOT
ATOM      1  C   UNL     1      -4.529   2.305   6.632  0.00  0.00    +0.117 C 
ENDROOT
BRANCH   1   4
ATOM      2  C   UNL     1      -3.555   1.429   4.578  0.00  0.00    +0.223 C 
ATOM      3  O   UNL     1      -2.518   1.989   4.865  0.00  0.00    -0.275 OA
ATOM      4  N   UNL     1      -4.622   1.525   5.396  0.00  0.00    -0.314 N 
ATOM      5  H   UNL     1      -5.451   1.077   5.166  0.00  0.00    +0.149 HD
BRANCH   2   6
ATOM      6  C   UNL     1      -3.650   0.626   3.306  0.00  0.00    +0.172 C 
BRANCH   6   7
ATOM      7  S   UNL     1      -2.063   0.690   2.430  0.00  0.00    -0.080 S 
BRANCH   7  12
ATOM      8  N   UNL     1      -1.372  -0.511   0.012  0.00  0.00    -0.289 N 
ATOM      9  C   UNL     1      -2.002  -1.369  -1.006  0.00  0.00    +0.231 C 
ATOM     10  N   UNL     1      -3.371  -1.571  -0.500  0.00  0.00    -0.249 N 
ATOM     11  N   UNL     1      -3.450  -0.864   0.705  0.00  0.00    -0.163 NA
ATOM     12  C   UNL     1      -2.333  -0.282   0.986  0.00  0.00    +0.175 C 
ATOM     13  H   UNL     1      -4.075  -2.091  -0.919  0.00  0.00    +0.170 HD
BRANCH   8  15
ATOM     14  C   UNL     1      -0.019   1.526   0.010  0.00  0.00    +0.028 C 
ATOM     15  C   UNL     1       0.002  -0.004   0.002  0.00  0.00    +0.071 C 
ATOM     16  C   UNL     1       0.742  -0.511   1.242  0.00  0.00    +0.028 C 
ENDBRANCH   8  15
ENDBRANCH   7  12
ENDBRANCH   6   7
ENDBRANCH   2   6
ENDBRANCH   1   4
BRANCH   1  17
ATOM     17  C   UNL     1      -5.868   2.251   7.371  0.00  0.00    +0.071 C 
BRANCH  17  18
ATOM     18  C   UNL     1      -5.737   2.950   8.700  0.00  0.00    -0.032 C 
ATOM     19  C   UNL     1      -5.926   2.409   9.925  0.00  0.00    -0.000 A 
ATOM     20  C   UNL     1      -6.298   1.060  10.370  0.00  0.00    +0.010 A 
ATOM     21  C   UNL     1      -6.414   0.816  11.695  0.00  0.00    +0.001 A 
ATOM     22  C   UNL     1      -6.190   1.815  12.652  0.00  0.00    +0.002 A 
ATOM     23  C   UNL     1      -5.845   3.078  12.320  0.00  0.00    +0.026 A 
ATOM     24  C   UNL     1      -5.694   3.447  10.955  0.00  0.00    +0.043 A 
ATOM     25  N   UNL     1      -5.374   4.585  10.389  0.00  0.00    -0.380 N 
ATOM     26  C   UNL     1      -5.361   4.396   8.934  0.00  0.00    +0.145 C 
ATOM     27  H   UNL     1      -5.175   5.412  10.854  0.00  0.00    +0.160 HD
ENDBRANCH  17  18
BRANCH  17  28
ATOM     28  C   UNL     1      -6.925   2.937   6.545  0.00  0.00    -0.002 A 
ATOM     29  C   UNL     1      -8.079   2.432   6.044  0.00  0.00    +0.012 A 
ATOM     30  C   UNL     1      -8.907   3.256   5.306  0.00  0.00    +0.008 A 
ATOM     31  C   UNL     1      -8.542   4.545   5.105  0.00  0.00    +0.045 A 
ATOM     32  S   UNL     1      -6.987   4.629   5.978  0.00  0.00    -0.101 S 
ENDBRANCH  17  28
ENDBRANCH   1  17
TORSDOF 8
