REMARK  Name = ZINC19857632
REMARK  6 active torsions:
REMARK  status: ('A' for Active; 'I' for Inactive)
REMARK    1  A    between atoms: C_4  and  C_7
REMARK    2  A    between atoms: C_7  and  C_9
REMARK    3  A    between atoms: C_7  and  C_13
REMARK    4  A    between atoms: C_9  and  C_10
REMARK    5  A    between atoms: C_13  and  N_14
REMARK    6  A    between atoms: C_15  and  C_20
REMARK                            x       y       z     vdW  Elec       q    Type
REMARK                         _______ _______ _______ _____ _____    ______ ____
ROOT
ATOM      1  C   UNL     1       2.077   1.823  -2.512  0.00  0.00    +0.134 C 
ENDROOT
BRANCH   1   2
ATOM      2  N   UNL     1       2.498   1.893  -1.110  0.00  0.00    -0.300 N 
ATOM      3  C   UNL     1       3.768   2.131  -0.634  0.00  0.00    +0.185 A 
ATOM      4  N   UNL     1       3.699   2.108   0.677  0.00  0.00    -0.127 NA
ATOM      5  N   UNL     1       2.489   1.881   1.048  0.00  0.00    -0.121 NA
ATOM      6  C   UNL     1       1.714   1.735  -0.005  0.00  0.00    +0.203 A 
ATOM      7  S   UNL     1      -0.017   1.406   0.010  0.00  0.00    -0.009 SA
BRANCH   3   8
ATOM      8  C   UNL     1       4.979   2.367  -1.446  0.00  0.00    +0.126 A 
ATOM      9  C   UNL     1       6.207   2.602  -0.821  0.00  0.00    +0.142 A 
ATOM     10  N   UNL     1       7.286   2.808  -1.551  0.00  0.00    -0.260 NA
ATOM     11  C   UNL     1       7.206   2.802  -2.872  0.00  0.00    +0.130 A 
ATOM     12  C   UNL     1       5.991   2.575  -3.495  0.00  0.00    +0.131 A 
ATOM     13  N   UNL     1       4.905   2.363  -2.775  0.00  0.00    -0.249 NA
ENDBRANCH   3   8
ENDBRANCH   1   2
BRANCH   1  14
ATOM     14  C   UNL     1       1.660   3.216  -2.989  0.00  0.00    +0.050 C 
BRANCH  14  18
ATOM     15  C   UNL     1       0.106   2.955  -6.959  0.00  0.00    +0.000 A 
ATOM     16  C   UNL     1      -0.690   3.434  -5.935  0.00  0.00    +0.000 A 
ATOM     17  C   UNL     1      -0.187   3.519  -4.651  0.00  0.00    +0.004 A 
ATOM     18  C   UNL     1       1.112   3.124  -4.389  0.00  0.00    -0.042 A 
ATOM     19  C   UNL     1       1.909   2.649  -5.414  0.00  0.00    +0.004 A 
ATOM     20  C   UNL     1       1.405   2.561  -6.698  0.00  0.00    +0.000 A 
ENDBRANCH  14  18
BRANCH  14  21
ATOM     21  C   UNL     1       2.877   4.144  -2.978  0.00  0.00    +0.135 C 
BRANCH  21  22
ATOM     22  C   UNL     1       2.444   5.544  -3.329  0.00  0.00    +0.357 C 
ATOM     23  O   UNL     1       1.282   5.776  -3.564  0.00  0.00    -0.246 OA
ATOM     24  O   UNL     1       3.349   6.533  -3.381  0.00  0.00    -0.246 OA
ENDBRANCH  21  22
ENDBRANCH  14  21
ENDBRANCH   1  14
TORSDOF 6
