REMARK  Name = ZINC39680494
REMARK  11 active torsions:
REMARK  status: ('A' for Active; 'I' for Inactive)
REMARK    1  A    between atoms: C_1  and  C_2
REMARK    2  A    between atoms: C_2  and  C_3
REMARK    3  A    between atoms: C_11  and  S_17
REMARK    4  A    between atoms: N_12  and  C_15
REMARK    5  A    between atoms: C_15  and  C_16
REMARK    6  A    between atoms: S_17  and  C_18
REMARK    7  A    between atoms: C_18  and  C_19
REMARK    8  A    between atoms: N_21  and  CA_22
REMARK    9  A    between atoms: CA_22  and  CB_24
REMARK   10  A    between atoms: CA_22  and  C_34
REMARK   11  A    between atoms: CB_24  and  CG_25
REMARK                            x       y       z     vdW  Elec       q    Type
REMARK                         _______ _______ _______ _____ _____    ______ ____
ROOT
ATOM      1  C   UNK A   0      -9.133  -2.137   2.511  0.00  0.00    +0.224 C 
ATOM      2  O   UNK A   0      -9.954  -2.590   1.742  0.00  0.00    -0.275 OA
ATOM      3  N   TRP A   1      -9.518  -1.696   3.725  0.00  0.00    -0.301 N 
ATOM      4  H   TRP A   1      -8.862  -1.334   4.340  0.00  0.00    +0.150 HD
ENDROOT
BRANCH   1   5
ATOM      5  C   UNK A   0      -7.683  -2.066   2.109  0.00  0.00    +0.172 C 
BRANCH   5   6
ATOM      6  S   UNK A   0      -7.487  -2.729   0.432  0.00  0.00    -0.081 S 
BRANCH   6  13
ATOM      7  C   UNK A   0      -1.412  -0.526   0.013  0.00  0.00    -0.016 C 
ATOM      8  C   UNK A   0      -2.151  -0.894  -1.042  0.00  0.00    -0.001 C 
ATOM      9  C   UNK A   0      -3.557  -1.313  -0.784  0.00  0.00    +0.134 C 
ATOM     10  C   UNK A   0      -3.601  -1.955   0.644  0.00  0.00    +0.185 C 
ATOM     11  S   UNK A   0      -2.465  -0.795   1.445  0.00  0.00    -0.102 S 
ATOM     12  N   UNK A   0      -4.958  -2.064   1.039  0.00  0.00    -0.247 NA
ATOM     13  C   UNK A   0      -5.761  -2.579   0.113  0.00  0.00    +0.160 C 
ATOM     14  N   UNK A   0      -5.243  -2.999  -1.104  0.00  0.00    -0.251 N 
ATOM     15  C   UNK A   0      -4.141  -2.403  -1.647  0.00  0.00    +0.231 C 
ATOM     16  O   UNK A   0      -3.690  -2.707  -2.731  0.00  0.00    -0.274 OA
BRANCH   7  18
ATOM     17  C   UNK A   0      -0.019   1.526   0.010  0.00  0.00    +0.009 C 
ATOM     18  C   UNK A   0       0.002  -0.004   0.002  0.00  0.00    +0.038 C 
ENDBRANCH   7  18
BRANCH  14  19
ATOM     19  C   UNK A   0      -5.873  -4.120  -1.806  0.00  0.00    +0.112 C 
ATOM     20  C   UNK A   0      -6.964  -3.590  -2.738  0.00  0.00    +0.025 C 
ENDBRANCH  14  19
ENDBRANCH   6  13
ENDBRANCH   5   6
ENDBRANCH   1   5
BRANCH   3  21
ATOM     21  CA  TRP A   1     -10.928  -1.765   4.116  0.00  0.00    +0.191 C 
BRANCH  21  22
ATOM     22  C   TRP A   1     -11.652  -0.546   3.604  0.00  0.00    +0.376 C 
ATOM     23  O   TRP A   1     -11.045   0.302   2.972  0.00  0.00    -0.244 OA
ATOM     24  OXT TRP A   1     -12.843  -0.407   3.823  0.00  0.00    -0.244 OA
ENDBRANCH  21  22
BRANCH  21  25
ATOM     25  CB  TRP A   1     -11.033  -1.817   5.641  0.00  0.00    +0.071 C 
BRANCH  25  26
ATOM     26  CG  TRP A   1     -10.417  -3.097   6.144  0.00  0.00    -0.020 A 
ATOM     27  CD2 TRP A   1      -8.999  -3.330   6.427  0.00  0.00    +0.003 A 
ATOM     28  CE3 TRP A   1      -7.851  -2.541   6.343  0.00  0.00    +0.010 A 
ATOM     29  CZ3 TRP A   1      -6.638  -3.067   6.691  0.00  0.00    +0.001 A 
ATOM     30  CH2 TRP A   1      -6.540  -4.381   7.128  0.00  0.00    +0.002 A 
ATOM     31  CZ2 TRP A   1      -7.660  -5.177   7.218  0.00  0.00    +0.026 A 
ATOM     32  CE2 TRP A   1      -8.904  -4.662   6.870  0.00  0.00    +0.047 A 
ATOM     33  NE1 TRP A   1     -10.177  -5.188   6.851  0.00  0.00    -0.360 N 
ATOM     34  CD1 TRP A   1     -11.065  -4.240   6.422  0.00  0.00    +0.087 A 
ATOM     35  HE1 TRP A   1     -10.409  -6.093   7.108  0.00  0.00    +0.165 HD
ENDBRANCH  25  26
ENDBRANCH  21  25
ENDBRANCH   3  21
TORSDOF 9
