REMARK  Name = ZINC01823141
REMARK  10 active torsions:
REMARK  status: ('A' for Active; 'I' for Inactive)
REMARK    1  A    between atoms: C_1  and  C_2
REMARK    2  A    between atoms: C_2  and  O_3
REMARK    3  A    between atoms: O_3  and  C_4
REMARK    4  A    between atoms: C_4  and  C_6
REMARK    5  A    between atoms: C_7  and  N_36
REMARK    6  A    between atoms: C_12  and  C_13
REMARK    7  A    between atoms: C_22  and  C_32
REMARK    8  A    between atoms: C_23  and  C_25
REMARK    9  A    between atoms: C_32  and  O_34
REMARK   10  A    between atoms: O_34  and  C_35
REMARK                            x       y       z     vdW  Elec       q    Type
REMARK                         _______ _______ _______ _____ _____    ______ ____
ROOT
ATOM      1  C   UNL     1      -1.040  -3.280   1.604  0.00  0.00    +0.087 C 
ATOM      2  C   UNL     1      -1.125  -2.048   1.051  0.00  0.00    +0.115 C 
ATOM      3  N   UNL     1      -0.017  -1.288   0.668  0.00  0.00    -0.257 N 
ATOM      4  C   UNL     1      -0.117  -0.062   0.116  0.00  0.00    +0.271 A 
ATOM      5  O   UNL     1      -1.205   0.445  -0.082  0.00  0.00    -0.266 OA
ATOM      6  C   UNL     1       1.118   0.644  -0.247  0.00  0.00    +0.079 A 
ATOM      7  C   UNL     1       1.278   1.869  -0.808  0.00  0.00    +0.028 C 
ATOM      8  S   UNL     1       2.354  -0.546   0.248  0.00  0.00    -0.065 S 
ATOM      9  C   UNL     1       1.249  -1.804   0.857  0.00  0.00    +0.100 A 
ATOM     10  C   UNL     1       1.507  -3.033   1.404  0.00  0.00    +0.079 C 
ATOM     11  C   UNL     1       0.330  -3.887   1.832  0.00  0.00    +0.099 C 
ENDROOT
BRANCH   7  12
ATOM     12  C   UNL     1       2.618   2.461  -0.911  0.00  0.00    -0.024 A 
ATOM     13  C   UNL     1       3.705   1.857  -0.268  0.00  0.00    +0.009 A 
ATOM     14  C   UNL     1       4.961   2.416  -0.374  0.00  0.00    +0.020 A 
ATOM     15  C   UNL     1       5.147   3.578  -1.104  0.00  0.00    +0.041 A 
ATOM     16  C   UNL     1       4.075   4.185  -1.738  0.00  0.00    +0.020 A 
ATOM     17  C   UNL     1       2.814   3.636  -1.647  0.00  0.00    +0.009 A 
ATOM     18 CL   UNL     1       6.731   4.278  -1.225  0.00  0.00    -0.084 Cl
ENDBRANCH   7  12
BRANCH  11  19
ATOM     19  C   UNL     1       0.395  -5.191   1.078  0.00  0.00    -0.035 A 
ATOM     20  C   UNL     1       0.343  -5.193  -0.304  0.00  0.00    +0.006 A 
ATOM     21  C   UNL     1       0.408  -6.388  -0.996  0.00  0.00    +0.020 A 
ATOM     22  C   UNL     1       0.514  -7.582  -0.306  0.00  0.00    +0.041 A 
ATOM     23  C   UNL     1       0.560  -7.579   1.077  0.00  0.00    +0.020 A 
ATOM     24  C   UNL     1       0.501  -6.384   1.768  0.00  0.00    +0.006 A 
ATOM     25 CL   UNL     1       0.588  -9.083  -1.174  0.00  0.00    -0.084 Cl
ENDBRANCH  11  19
BRANCH   2  26
ATOM     26  N   UNL     1      -2.372  -1.515   0.853  0.00  0.00    -0.344 N 
ATOM     27  H   UNL     1      -3.106  -2.087   0.581  0.00  0.00    +0.144 HD
ATOM     28  H   UNL     1      -2.520  -0.565   0.985  0.00  0.00    +0.144 HD
ENDBRANCH   2  26
BRANCH   1  29
ATOM     29  C   UNL     1      -2.200  -3.983   1.963  0.00  0.00    +0.339 C 
ATOM     30  O   UNL     1      -3.295  -3.471   1.808  0.00  0.00    -0.245 OA
BRANCH  29  31
ATOM     31  O   UNL     1      -2.103  -5.227   2.480  0.00  0.00    -0.462 OA
BRANCH  31  33
ATOM     32  C   UNL     1      -3.017  -7.272   3.388  0.00  0.00    +0.048 C 
ATOM     33  C   UNL     1      -3.325  -5.884   2.822  0.00  0.00    +0.229 C 
ENDBRANCH  31  33
ENDBRANCH  29  31
ENDBRANCH   1  29
BRANCH  10  34
ATOM     34  C   UNL     1       2.822  -3.488   1.565  0.00  0.00    +0.338 C 
ATOM     35  O   UNL     1       3.756  -2.787   1.216  0.00  0.00    -0.245 OA
BRANCH  34  36
ATOM     36  O   UNL     1       3.056  -4.703   2.107  0.00  0.00    -0.465 OA
ATOM     37  C   UNL     1       4.421  -5.103   2.241  0.00  0.00    +0.280 C 
ENDBRANCH  34  36
ENDBRANCH  10  34
TORSDOF 8
