REMARK  Name = ZINC13015410
REMARK  9 active torsions:
REMARK  status: ('A' for Active; 'I' for Inactive)
REMARK    1  A    between atoms: C_1  and  C_2
REMARK    2  A    between atoms: C_2  and  C_3
REMARK    3  A    between atoms: C_3  and  C_4
REMARK    4  A    between atoms: C_4  and  C_5
REMARK    5  A    between atoms: C_8  and  N_11
REMARK    6  A    between atoms: C_15  and  S_17
REMARK    7  A    between atoms: S_17  and  C_18
REMARK    8  A    between atoms: C_18  and  C_19
REMARK    9  A    between atoms: C_30  and  C_32
REMARK                            x       y       z     vdW  Elec       q    Type
REMARK                         _______ _______ _______ _____ _____    ______ ____
ROOT
ATOM      1  N   UNL     1      -9.948   4.367  -5.313  0.00  0.00    -0.292 N 
ATOM      2  C   UNL     1      -8.800   4.674  -4.591  0.00  0.00    +0.187 A 
ATOM      3  N   UNL     1      -8.080   3.904  -3.799  0.00  0.00    -0.125 NA
ATOM      4  N   UNL     1      -6.966   4.415  -3.174  0.00  0.00    -0.133 NA
ATOM      5  C   UNL     1      -6.624   5.674  -3.371  0.00  0.00    +0.160 A 
ATOM      6  S   UNL     1      -7.910   6.219  -4.484  0.00  0.00    -0.024 S 
ATOM      7  H   UNL     1     -10.331   5.021  -5.918  0.00  0.00    +0.154 HD
ENDROOT
BRANCH   1  11
ATOM      8  C   UNL     1     -11.747   0.636  -4.876  0.00  0.00    -0.047 A 
ATOM      9  C   UNL     1     -10.969   1.151  -3.855  0.00  0.00    +0.005 A 
ATOM     10  C   UNL     1     -10.371   2.388  -3.996  0.00  0.00    +0.023 A 
ATOM     11  C   UNL     1     -10.552   3.115  -5.166  0.00  0.00    +0.033 A 
ATOM     12  C   UNL     1     -11.338   2.597  -6.188  0.00  0.00    +0.023 A 
ATOM     13  C   UNL     1     -11.928   1.357  -6.042  0.00  0.00    +0.005 A 
BRANCH   8  14
ATOM     14  C   UNL     1     -12.397  -0.714  -4.718  0.00  0.00    +0.035 C 
BRANCH  14  15
ATOM     15  C   UNL     1     -13.783  -0.542  -4.093  0.00  0.00    +0.004 C 
BRANCH  15  17
ATOM     16  C   UNL     1     -15.830  -1.741  -3.308  0.00  0.00    +0.004 C 
ATOM     17  C   UNL     1     -14.444  -1.913  -3.933  0.00  0.00    -0.003 C 
ENDBRANCH  15  17
ENDBRANCH  14  15
ENDBRANCH   8  14
ENDBRANCH   1  11
BRANCH   5  18
ATOM     18  S   UNL     1      -5.265   6.579  -2.707  0.00  0.00    -0.088 S 
BRANCH  18  19
ATOM     19  C   UNL     1      -4.405   5.373  -1.660  0.00  0.00    +0.172 C 
BRANCH  19  20
ATOM     20  C   UNL     1      -3.206   6.026  -1.022  0.00  0.00    +0.227 C 
ATOM     21  O   UNL     1      -2.956   7.190  -1.252  0.00  0.00    -0.275 OA
ATOM     22  N   UNL     1      -2.411   5.316  -0.197  0.00  0.00    -0.283 N 
ATOM     23  C   UNL     1      -2.615   3.878   0.009  0.00  0.00    +0.144 C 
ATOM     24  C   UNL     1      -1.287   3.165  -0.037  0.00  0.00    -0.027 A 
ATOM     25  C   UNL     1      -1.299   1.778  -0.102  0.00  0.00    +0.005 A 
ATOM     26  C   UNL     1      -0.116   1.069  -0.125  0.00  0.00    +0.000 A 
ATOM     27  C   UNL     1       1.090   1.745  -0.095  0.00  0.00    +0.000 A 
ATOM     28  C   UNL     1       1.102   3.123  -0.042  0.00  0.00    +0.004 A 
ATOM     29  C   UNL     1      -0.088   3.840  -0.014  0.00  0.00    -0.040 A 
ATOM     30  C   UNL     1       0.004   5.343   0.030  0.00  0.00    +0.069 C 
ATOM     31  C   UNL     1      -1.303   5.953   0.534  0.00  0.00    +0.194 C 
BRANCH  31  32
ATOM     32  C   UNL     1      -1.306   7.437   0.275  0.00  0.00    +0.376 C 
ATOM     33  O   UNL     1      -0.629   7.897  -0.615  0.00  0.00    -0.244 OA
ATOM     34  O   UNL     1      -2.061   8.249   1.032  0.00  0.00    -0.244 OA
ENDBRANCH  31  32
ENDBRANCH  19  20
ENDBRANCH  18  19
ENDBRANCH   5  18
TORSDOF 8
