REMARK  Name = ZINC09565125
REMARK  7 active torsions:
REMARK  status: ('A' for Active; 'I' for Inactive)
REMARK    1  A    between atoms: C_1  and  C_2
REMARK    2  A    between atoms: C_9  and  N_14
REMARK    3  A    between atoms: C_10  and  C_11
REMARK    4  A    between atoms: C_15  and  C_17
REMARK    5  A    between atoms: C_17  and  C_18
REMARK    6  A    between atoms: C_21  and  S_24
REMARK    7  A    between atoms: S_24  and  C_25
REMARK                            x       y       z     vdW  Elec       q    Type
REMARK                         _______ _______ _______ _____ _____    ______ ____
ROOT
ATOM      1  C   UNL     1      -0.019   1.526   0.010  0.00  0.00    +0.008 C 
ATOM      2  C   UNL     1       0.002  -0.004   0.002  0.00  0.00    -0.009 C 
ATOM      3  C   UNL     1       0.742  -0.514   1.242  0.00  0.00    +0.008 C 
ATOM      4  C   UNL     1       0.557  -2.027   1.373  0.00  0.00    +0.037 C 
ATOM      5  C   UNL     1       0.941  -2.684   0.053  0.00  0.00    -0.023 A 
ATOM      6  C   UNL     1       1.008  -1.966  -1.089  0.00  0.00    -0.004 A 
ATOM      7  S   UNL     1       1.484  -3.133  -2.331  0.00  0.00    -0.077 S 
ATOM      8  C   UNL     1       1.592  -4.557  -1.350  0.00  0.00    +0.084 A 
ATOM      9  C   UNL     1       1.258  -4.096  -0.085  0.00  0.00    +0.068 A 
ATOM     10  C   UNL     1       0.736  -0.502  -1.252  0.00  0.00    +0.046 C 
ENDROOT
BRANCH   9  11
ATOM     11  C   UNL     1       1.226  -4.998   1.070  0.00  0.00    +0.244 C 
ATOM     12  O   UNL     1       0.198  -5.582   1.358  0.00  0.00    -0.270 OA
ATOM     13  N   UNL     1       2.336  -5.182   1.813  0.00  0.00    -0.325 N 
ATOM     14  H   UNL     1       3.156  -4.716   1.583  0.00  0.00    +0.145 HD
ATOM     15  H   UNL     1       2.315  -5.779   2.577  0.00  0.00    +0.145 HD
ENDBRANCH   9  11
BRANCH   8  16
ATOM     16  N   UNL     1       1.930  -5.846  -1.736  0.00  0.00    -0.279 N 
ATOM     17  C   UNL     1       2.227  -6.107  -3.024  0.00  0.00    +0.222 C 
ATOM     18  O   UNL     1       2.199  -5.216  -3.846  0.00  0.00    -0.275 OA
ATOM     19  H   UNL     1       1.952  -6.559  -1.078  0.00  0.00    +0.155 HD
BRANCH  17  20
ATOM     20  C   UNL     1       2.594  -7.508  -3.443  0.00  0.00    +0.131 C 
BRANCH  20  21
ATOM     21  C   UNL     1       2.878  -7.531  -4.923  0.00  0.00    -0.039 A 
ATOM     22  C   UNL     1       1.855  -7.785  -5.818  0.00  0.00    +0.005 A 
ATOM     23  C   UNL     1       2.111  -7.802  -7.175  0.00  0.00    +0.015 A 
ATOM     24  C   UNL     1       3.400  -7.574  -7.640  0.00  0.00    +0.008 A 
ATOM     25  C   UNL     1       4.427  -7.325  -6.737  0.00  0.00    +0.015 A 
ATOM     26  C   UNL     1       4.163  -7.304  -5.382  0.00  0.00    +0.005 A 
BRANCH  24  27
ATOM     27  S   UNL     1       3.733  -7.603  -9.370  0.00  0.00    -0.129 S 
ATOM     28  C   UNL     1       2.120  -7.958 -10.121  0.00  0.00    +0.090 C 
ENDBRANCH  24  27
ENDBRANCH  20  21
ENDBRANCH  17  20
ENDBRANCH   8  16
TORSDOF 5
