REMARK  Name = ZINC32776008
REMARK  6 active torsions:
REMARK  status: ('A' for Active; 'I' for Inactive)
REMARK    1  A    between atoms: C_1  and  C_2
REMARK    2  A    between atoms: C_2  and  C_4
REMARK    3  A    between atoms: C_2  and  S_19
REMARK    4  A    between atoms: N_6  and  C_7
REMARK    5  A    between atoms: S_19  and  C_20
REMARK    6  A    between atoms: C_23  and  C_26
REMARK                            x       y       z     vdW  Elec       q    Type
REMARK                         _______ _______ _______ _____ _____    ______ ____
ROOT
ATOM      1  C   UNL     1       5.478   4.404   1.150  0.00  0.00    +0.029 C 
ATOM      2  C   UNL     1       4.855   4.245  -0.238  0.00  0.00    +0.137 C 
ENDROOT
BRANCH   2   3
ATOM      3  C   UNL     1       3.566   3.473  -0.124  0.00  0.00    +0.230 C 
ATOM      4  O   UNL     1       2.504   4.060  -0.127  0.00  0.00    -0.274 OA
ATOM      5  N   UNL     1       3.592   2.129  -0.018  0.00  0.00    -0.285 N 
ATOM      6  H   UNL     1       4.554   1.603   0.070  0.00  0.00    +0.155 HD
BRANCH   5   7
ATOM      7  C   UNL     1       2.394   1.403  -0.021  0.00  0.00    +0.035 A 
ATOM      8  C   UNL     1       2.289   0.235   0.727  0.00  0.00    +0.025 A 
ATOM      9  C   UNL     1       1.112  -0.485   0.728  0.00  0.00    +0.029 A 
ATOM     10  C   UNL     1       0.029  -0.043  -0.018  0.00  0.00    +0.067 A 
ATOM     11  C   UNL     1       0.131   1.129  -0.769  0.00  0.00    +0.069 A 
ATOM     12  C   UNL     1       1.315   1.850  -0.769  0.00  0.00    +0.051 A 
ATOM     13  N   UNL     1      -1.097   1.312  -1.400  0.00  0.00    -0.306 N 
ATOM     14  H   UNL     1      -1.256   2.182  -2.054  0.00  0.00    +0.170 HD
ATOM     15  C   UNL     1      -1.910   0.297  -1.049  0.00  0.00    +0.325 A 
ATOM     16  O   UNL     1      -3.058   0.156  -1.427  0.00  0.00    -0.247 OA
ATOM     17  N   UNL     1      -1.260  -0.537  -0.216  0.00  0.00    -0.306 N 
ATOM     18  H   UNL     1      -1.576  -1.466   0.282  0.00  0.00    +0.170 HD
ENDBRANCH   5   7
ENDBRANCH   2   3
BRANCH   2  19
ATOM     19  S   UNL     1       4.519   5.879  -0.940  0.00  0.00    -0.074 S 
BRANCH  19  20
ATOM     20  C   UNL     1       6.165   6.488  -1.099  0.00  0.00    +0.185 A 
ATOM     21  N   UNL     1       6.533   7.708  -1.588  0.00  0.00    -0.201 NA
ATOM     22  H   UNL     1       7.400   4.849  -0.337  0.00  0.00    +0.191 HD
ATOM     23  C   UNL     1       7.907   7.736  -1.521  0.00  0.00    +0.183 A 
ATOM     24  N   UNL     1       8.292   6.582  -1.026  0.00  0.00    -0.152 NA
ATOM     25  N   UNL     1       7.267   5.851  -0.770  0.00  0.00    -0.253 N 
BRANCH  23  26
ATOM     26  C   UNL     1       8.784   8.854  -1.928  0.00  0.00    +0.035 A 
ATOM     27  C   UNL     1       8.229  10.068  -2.335  0.00  0.00    +0.013 A 
ATOM     28  C   UNL     1       9.054  11.107  -2.714  0.00  0.00    +0.001 A 
ATOM     29  C   UNL     1      10.428  10.949  -2.691  0.00  0.00    +0.001 A 
ATOM     30  C   UNL     1      10.986   9.748  -2.288  0.00  0.00    +0.016 A 
ATOM     31  C   UNL     1      10.172   8.702  -1.901  0.00  0.00    +0.029 A 
ATOM     32 BR   UNL     1      10.936   7.064  -1.343  0.00  0.00    -0.050 Br
ENDBRANCH  23  26
ENDBRANCH  19  20
ENDBRANCH   2  19
TORSDOF 5
