REMARK  Name = ZINC38564812
REMARK  8 active torsions:
REMARK  status: ('A' for Active; 'I' for Inactive)
REMARK    1  A    between atoms: C_1  and  N_2
REMARK    2  A    between atoms: N_2  and  C_3
REMARK    3  A    between atoms: N_2  and  C_4
REMARK    4  A    between atoms: C_4  and  C_5
REMARK    5  A    between atoms: C_5  and  C_6
REMARK    6  A    between atoms: C_6  and  N_7
REMARK    7  A    between atoms: C_8  and  C_10
REMARK    8  A    between atoms: C_22  and  C_24
REMARK                            x       y       z     vdW  Elec       q    Type
REMARK                         _______ _______ _______ _____ _____    ______ ____
ROOT
ATOM      1  C   UNL     1      -6.143  -0.203  -3.973  0.00  0.00    +0.126 C 
ATOM      2  C   UNL     1      -7.466  -0.601  -4.184  0.00  0.00    +0.039 C 
ATOM      3  C   UNL     1      -8.095  -0.056  -5.293  0.00  0.00    -0.008 C 
ATOM      4  C   UNL     1      -9.202  -0.391  -6.028  0.00  0.00    +0.004 A 
ATOM      5  C   UNL     1     -10.274  -1.277  -5.776  0.00  0.00    +0.010 A 
ATOM      6  C   UNL     1     -11.205  -1.415  -6.764  0.00  0.00    +0.001 A 
ATOM      7  C   UNL     1     -11.140  -0.735  -7.980  0.00  0.00    +0.002 A 
ATOM      8  C   UNL     1     -10.156   0.152  -8.293  0.00  0.00    +0.026 A 
ATOM      9  C   UNL     1      -9.154   0.373  -7.307  0.00  0.00    +0.044 A 
ATOM     10  N   UNL     1      -8.140   1.204  -7.312  0.00  0.00    -0.372 N 
ATOM     11  C   UNL     1      -7.517   1.155  -6.008  0.00  0.00    +0.160 C 
ATOM     12  C   UNL     1      -6.033   1.103  -5.921  0.00  0.00    +0.076 C 
ATOM     13  N   UNL     1      -5.474   0.506  -4.893  0.00  0.00    -0.244 NA
ATOM     14  H   UNL     1      -7.857   1.754  -8.059  0.00  0.00    +0.161 HD
ENDROOT
BRANCH  12  15
ATOM     15  C   UNL     1      -5.206   1.716  -6.965  0.00  0.00    +0.002 A 
ATOM     16  C   UNL     1      -3.912   1.237  -7.209  0.00  0.00    +0.013 A 
ATOM     17  C   UNL     1      -3.139   1.813  -8.191  0.00  0.00    +0.050 A 
ATOM     18  C   UNL     1      -3.636   2.870  -8.944  0.00  0.00    +0.166 A 
ATOM     19  C   UNL     1      -4.926   3.354  -8.707  0.00  0.00    +0.167 A 
ATOM     20  C   UNL     1      -5.710   2.779  -7.729  0.00  0.00    +0.059 A 
ATOM     21  O   UNL     1      -5.170   4.383  -9.571  0.00  0.00    -0.453 OA
ATOM     22  C   UNL     1      -3.877   4.791 -10.056  0.00  0.00    +0.466 C 
ATOM     23  O   UNL     1      -3.079   3.597  -9.954  0.00  0.00    -0.453 OA
ENDBRANCH  12  15
BRANCH   1  25
ATOM     24  N   UNL     1      -4.196  -0.186  -2.487  0.00  0.00    -0.310 N 
ATOM     25  C   UNL     1      -5.470  -0.568  -2.706  0.00  0.00    +0.262 C 
ATOM     26  O   UNL     1      -6.065  -1.211  -1.865  0.00  0.00    -0.269 OA
ATOM     27  H   UNL     1      -3.720   0.327  -3.159  0.00  0.00    +0.149 HD
BRANCH  24  28
ATOM     28  C   UNL     1      -3.529  -0.546  -1.233  0.00  0.00    +0.103 C 
BRANCH  28  29
ATOM     29  C   UNL     1      -2.102   0.004  -1.238  0.00  0.00    +0.000 C 
BRANCH  29  30
ATOM     30  C   UNL     1      -1.405  -0.372   0.072  0.00  0.00    -0.078 C 
BRANCH  30  32
ATOM     31  C   UNL     1      -0.077   1.625   0.058  0.00  0.00    -0.097 C 
ATOM     32  N   UNL     1      -0.035   0.157   0.067  0.00  0.00    +0.376 N 
ATOM     33  C   UNL     1       0.672  -0.305   1.269  0.00  0.00    -0.097 C 
ATOM     34  H   UNL     1       0.450  -0.171  -0.755  0.00  0.00    -0.083 HD
ENDBRANCH  30  32
ENDBRANCH  29  30
ENDBRANCH  28  29
ENDBRANCH  24  28
ENDBRANCH   1  25
TORSDOF 6
