REMARK  Name = ZINC02277260
REMARK  9 active torsions:
REMARK  status: ('A' for Active; 'I' for Inactive)
REMARK    1  A    between atoms: C_1  and  C_2
REMARK    2  A    between atoms: C_8  and  N_16
REMARK    3  A    between atoms: C_9  and  C_12
REMARK    4  A    between atoms: C_12  and  O_14
REMARK    5  A    between atoms: O_14  and  C_15
REMARK    6  A    between atoms: C_17  and  C_19
REMARK    7  A    between atoms: C_19  and  C_20
REMARK    8  A    between atoms: C_20  and  N_53
REMARK    9  A    between atoms: C_23  and  C_26
REMARK                            x       y       z     vdW  Elec       q    Type
REMARK                         _______ _______ _______ _____ _____    ______ ____
ROOT
ATOM      1  C   UNL     1       9.308   2.191   2.859  0.00  0.00    +0.044 C 
ATOM      2  C   UNL     1       8.978   3.645   2.640  0.00  0.00    -0.050 A 
ATOM      3  C   UNL     1      10.004   4.567   2.477  0.00  0.00    +0.005 A 
ATOM      4  C   UNL     1       9.725   5.899   2.266  0.00  0.00    +0.026 A 
ATOM      5  C   UNL     1       8.401   6.333   2.230  0.00  0.00    +0.049 A 
ATOM      6  C   UNL     1       7.366   5.395   2.400  0.00  0.00    +0.022 A 
ATOM      7  C   UNL     1       7.673   4.046   2.603  0.00  0.00    +0.015 A 
ATOM      8  C   UNL     1       6.108   6.140   2.309  0.00  0.00    +0.073 A 
ATOM      9  C   UNL     1       6.446   7.461   2.104  0.00  0.00    +0.147 A 
ATOM     10  N   UNL     1       7.828   7.571   2.057  0.00  0.00    -0.348 N 
ATOM     11  H   UNL     1       8.317   8.397   1.922  0.00  0.00    +0.166 HD
ENDROOT
BRANCH   8  12
ATOM     12  N   UNL     1       4.823   5.617   2.416  0.00  0.00    -0.283 N 
ATOM     13  C   UNL     1       4.388   4.711   1.518  0.00  0.00    +0.215 C 
ATOM     14  O   UNL     1       5.068   4.439   0.552  0.00  0.00    -0.276 OA
ATOM     15  H   UNL     1       4.241   5.905   3.136  0.00  0.00    +0.155 HD
BRANCH  13  16
ATOM     16  C   UNL     1       3.055   4.035   1.716  0.00  0.00    +0.077 C 
BRANCH  16  17
ATOM     17  C   UNL     1       2.802   3.060   0.564  0.00  0.00    -0.070 C 
BRANCH  17  24
ATOM     18  C   UNL     1       0.403   3.368   0.651  0.00  0.00    -0.079 C 
ATOM     19  C   UNL     1      -0.918   2.679   0.999  0.00  0.00    -0.016 C 
ATOM     20  C   UNL     1      -1.147   1.509   0.038  0.00  0.00    -0.018 C 
ATOM     21  C   UNL     1       0.036   0.542   0.132  0.00  0.00    -0.016 C 
ATOM     22  C   UNL     1       1.329   1.294  -0.192  0.00  0.00    -0.079 C 
ATOM     23  C   UNL     1      -2.436   0.778   0.419  0.00  0.00    +0.007 C 
ATOM     24  N   UNL     1       1.504   2.391   0.784  0.00  0.00    +0.380 N 
ATOM     25  H   UNL     1       1.488   1.998   1.733  0.00  0.00    -0.082 HD
ENDBRANCH  17  24
ENDBRANCH  16  17
ENDBRANCH  13  16
ENDBRANCH   8  12
BRANCH   9  26
ATOM     26  C   UNL     1       5.529   8.534   1.962  0.00  0.00    +0.357 C 
ATOM     27  O   UNL     1       4.337   8.308   1.871  0.00  0.00    -0.243 OA
BRANCH  26  28
ATOM     28  O   UNL     1       5.979   9.806   1.929  0.00  0.00    -0.463 OA
ATOM     29  C   UNL     1       5.000  10.837   1.784  0.00  0.00    +0.280 C 
ENDBRANCH  26  28
ENDBRANCH   9  26
TORSDOF 6
