REMARK  Name = ZINC38651159
REMARK  8 active torsions:
REMARK  status: ('A' for Active; 'I' for Inactive)
REMARK    1  A    between atoms: C_1  and  C_2
REMARK    2  A    between atoms: C_5  and  C_8
REMARK    3  A    between atoms: C_9  and  C_10
REMARK    4  A    between atoms: C_10  and  O_12
REMARK    5  A    between atoms: O_12  and  C_13
REMARK    6  A    between atoms: C_20  and  N_33
REMARK    7  A    between atoms: C_21  and  C_31
REMARK    8  A    between atoms: C_22  and  C_24
REMARK                            x       y       z     vdW  Elec       q    Type
REMARK                         _______ _______ _______ _____ _____    ______ ____
ROOT
ATOM      1  C   UNL     1       0.091  -8.427   2.344  0.00  0.00    +0.135 A 
ATOM      2  C   UNL     1       0.137  -9.162   1.167  0.00  0.00    +0.047 A 
ATOM      3  C   UNL     1       0.121 -10.542   1.214  0.00  0.00    +0.012 A 
ATOM      4  C   UNL     1       0.058 -11.198   2.431  0.00  0.00    +0.008 A 
ATOM      5  C   UNL     1       0.012 -10.469   3.610  0.00  0.00    +0.138 A 
ATOM      6  C   UNL     1       0.034  -9.081   3.564  0.00  0.00    +0.093 A 
ATOM      7  O   UNL     1      -0.049 -11.094   4.811  0.00  0.00    -0.441 OA
ATOM      8  C   UNL     1      -0.448 -12.375   4.882  0.00  0.00    +0.199 C 
ATOM      9  C   UNL     1      -0.430 -13.191   3.802  0.00  0.00    +0.098 C 
ATOM     10  C   UNL     1       0.042 -12.703   2.461  0.00  0.00    +0.098 C 
ENDROOT
BRANCH  10  11
ATOM     11  C   UNL     1       1.433 -13.223   2.202  0.00  0.00    -0.033 A 
ATOM     12  C   UNL     1       2.467 -12.885   3.055  0.00  0.00    +0.004 A 
ATOM     13  C   UNL     1       3.743 -13.361   2.818  0.00  0.00    +0.002 A 
ATOM     14  C   UNL     1       3.985 -14.175   1.727  0.00  0.00    +0.020 A 
ATOM     15  C   UNL     1       2.951 -14.512   0.872  0.00  0.00    +0.041 A 
ATOM     16  C   UNL     1       1.673 -14.040   1.114  0.00  0.00    +0.024 A 
ATOM     17 CL   UNL     1       3.256 -15.533  -0.498  0.00  0.00    -0.084 Cl
ENDBRANCH  10  11
BRANCH   8  18
ATOM     18  N   UNL     1      -0.887 -12.870   6.084  0.00  0.00    -0.328 N 
ATOM     19  H   UNL     1      -0.906 -12.298   6.867  0.00  0.00    +0.145 HD
ATOM     20  H   UNL     1      -1.178 -13.793   6.151  0.00  0.00    +0.145 HD
ENDBRANCH   8  18
BRANCH   9  21
ATOM     21  C   UNL     1      -0.869 -14.547   3.940  0.00  0.00    +0.101 C 
ATOM     22  N   UNL     1      -1.216 -15.623   4.050  0.00  0.00    -0.191 NA
ENDBRANCH   9  21
BRANCH   1  23
ATOM     23  O   UNL     1       0.106  -7.069   2.300  0.00  0.00    -0.423 OA
BRANCH  23  24
ATOM     24  C   UNL     1      -1.034  -6.433   1.962  0.00  0.00    +0.337 C 
ATOM     25  O   UNL     1      -2.010  -7.074   1.622  0.00  0.00    -0.245 OA
BRANCH  24  27
ATOM     26  C   UNL     1      -2.238  -4.337   1.667  0.00  0.00    +0.015 C 
ATOM     27  C   UNL     1      -1.097  -4.973   2.005  0.00  0.00    +0.092 C 
BRANCH  26  32
ATOM     28  C   UNL     1      -2.487   1.404   1.839  0.00  0.00    +0.044 C 
ATOM     29  C   UNL     1      -2.422  -0.101   1.793  0.00  0.00    -0.050 A 
ATOM     30  C   UNL     1      -3.534  -0.827   1.405  0.00  0.00    +0.004 A 
ATOM     31  C   UNL     1      -3.482  -2.204   1.361  0.00  0.00    +0.008 A 
ATOM     32  C   UNL     1      -2.302  -2.867   1.710  0.00  0.00    -0.025 A 
ATOM     33  C   UNL     1      -1.182  -2.126   2.102  0.00  0.00    +0.008 A 
ATOM     34  C   UNL     1      -1.248  -0.749   2.135  0.00  0.00    +0.004 A 
ENDBRANCH  26  32
ENDBRANCH  24  27
ENDBRANCH  23  24
ENDBRANCH   1  23
TORSDOF 7
