REMARK  Name = ZINC39355367
REMARK  10 active torsions:
REMARK  status: ('A' for Active; 'I' for Inactive)
REMARK    1  A    between atoms: C_1  and  C_2
REMARK    2  A    between atoms: C_4  and  C_9
REMARK    3  A    between atoms: N_6  and  C_8
REMARK    4  A    between atoms: C_9  and  N_10
REMARK    5  A    between atoms: N_10  and  C_11
REMARK    6  A    between atoms: N_10  and  C_12
REMARK    7  A    between atoms: C_12  and  C_14
REMARK    8  A    between atoms: C_12  and  C_22
REMARK    9  A    between atoms: C_14  and  C_15
REMARK   10  A    between atoms: C_28  and  C_30
REMARK                            x       y       z     vdW  Elec       q    Type
REMARK                         _______ _______ _______ _____ _____    ______ ____
ROOT
ATOM      1  C   UNL     1       0.524  -1.356  -5.582  0.00  0.00    -0.061 C 
ENDROOT
BRANCH   1   2
ATOM      2  C   UNL     1      -0.897  -1.905  -5.712  0.00  0.00    -0.021 C 
ATOM      3  C   UNL     1      -0.865  -3.432  -5.613  0.00  0.00    +0.021 C 
ATOM      4  C   UNL     1      -2.294  -3.977  -5.709  0.00  0.00    +0.108 C 
ATOM      5  N   UNL     1      -2.913  -3.465  -6.939  0.00  0.00    -0.296 N 
ATOM      6  C   UNL     1      -2.917  -2.016  -7.178  0.00  0.00    +0.108 C 
ATOM      7  C   UNL     1      -1.482  -1.493  -7.066  0.00  0.00    +0.021 C 
ATOM      8  C   UNL     1      -3.466  -4.310  -7.832  0.00  0.00    +0.263 C 
ATOM      9  O   UNL     1      -3.872  -3.888  -8.898  0.00  0.00    -0.268 OA
BRANCH   8  10
ATOM     10  C   UNL     1      -3.580  -5.742  -7.516  0.00  0.00    +0.103 A 
ATOM     11  H   UNL     1      -3.612  -5.776  -5.417  0.00  0.00    +0.166 HD
ATOM     12  C   UNL     1      -3.639  -6.747  -8.428  0.00  0.00    +0.040 A 
ATOM     13  C   UNL     1      -3.743  -7.968  -7.719  0.00  0.00    +0.000 A 
ATOM     14  C   UNL     1      -3.836  -9.307  -8.117  0.00  0.00    +0.010 A 
ATOM     15  C   UNL     1      -3.927 -10.291  -7.175  0.00  0.00    +0.001 A 
ATOM     16  C   UNL     1      -3.928  -9.977  -5.822  0.00  0.00    +0.002 A 
ATOM     17  C   UNL     1      -3.838  -8.668  -5.405  0.00  0.00    +0.026 A 
ATOM     18  C   UNL     1      -3.744  -7.647  -6.347  0.00  0.00    +0.047 A 
ATOM     19  N   UNL     1      -3.639  -6.280  -6.245  0.00  0.00    -0.351 N 
ENDBRANCH   8  10
ENDBRANCH   1   2
BRANCH   1  20
ATOM     20  N   UNL     1       1.007  -1.566  -4.211  0.00  0.00    +0.383 N 
ATOM     21  C   UNL     1       0.095  -0.910  -3.265  0.00  0.00    -0.095 C 
ATOM     22  H   UNL     1       1.041  -2.555  -4.015  0.00  0.00    -0.081 HD
BRANCH  20  23
ATOM     23  C   UNL     1       2.353  -0.993  -4.072  0.00  0.00    -0.045 C 
BRANCH  23  26
ATOM     24  C   UNL     1       3.224   0.931  -1.606  0.00  0.00    +0.030 C 
ATOM     25  C   UNL     1       2.658  -0.481  -1.440  0.00  0.00    +0.095 C 
ATOM     26  C   UNL     1       2.887  -1.294  -2.696  0.00  0.00    -0.053 C 
ATOM     27  C   UNL     1       3.644  -2.317  -2.354  0.00  0.00    +0.086 C 
ATOM     28  N   UNL     1       3.957  -2.295  -1.009  0.00  0.00    -0.277 N 
ATOM     29  N   UNL     1       3.393  -1.212  -0.390  0.00  0.00    -0.234 NA
ATOM     30  C   UNL     1       4.783  -3.299  -0.333  0.00  0.00    +0.149 C 
ATOM     31  H   UNL     1       2.773  -1.501   0.352  0.00  0.00    +0.145 HD
ENDBRANCH  23  26
ENDBRANCH  20  23
ENDBRANCH   1  20
BRANCH   1  32
ATOM     32  C   UNL     1       1.444  -2.084  -6.564  0.00  0.00    +0.023 C 
BRANCH  32  33
ATOM     33  C   UNL     1       1.174  -1.593  -7.964  0.00  0.00    -0.014 A 
ATOM     34  C   UNL     1       0.654  -2.456  -8.910  0.00  0.00    +0.006 A 
ATOM     35  C   UNL     1       0.406  -2.007 -10.193  0.00  0.00    +0.000 A 
ATOM     36  C   UNL     1       0.678  -0.694 -10.532  0.00  0.00    +0.003 A 
ATOM     37  C   UNL     1       1.198   0.170  -9.588  0.00  0.00    +0.038 A 
ATOM     38  C   UNL     1       1.442  -0.278  -8.300  0.00  0.00    +0.126 A 
ATOM     39  F   UNL     1       1.946   0.568  -7.374  0.00  0.00    -0.205 F 
ENDBRANCH  32  33
ENDBRANCH   1  32
TORSDOF 7
