REMARK  Name = ZINC36743245
REMARK  5 active torsions:
REMARK  status: ('A' for Active; 'I' for Inactive)
REMARK    1  A    between atoms: C_1  and  C_2
REMARK    2  A    between atoms: N_8  and  S_9
REMARK    3  A    between atoms: S_9  and  N_12
REMARK    4  A    between atoms: N_12  and  C_13
REMARK    5  A    between atoms: C_15  and  N_20
REMARK                            x       y       z     vdW  Elec       q    Type
REMARK                         _______ _______ _______ _____ _____    ______ ____
ROOT
ATOM      1  N   UNL     1       2.269   1.723   1.438  0.00  0.00    -0.086 NA
ENDROOT
BRANCH   1   2
ATOM      2  C   UNL     1       2.979   2.695   2.148  0.00  0.00    +0.095 A 
ATOM      3  C   UNL     1       2.889   2.748   3.532  0.00  0.00    +0.051 A 
ATOM      4  C   UNL     1       3.596   3.714   4.233  0.00  0.00    +0.026 A 
ATOM      5  C   UNL     1       4.390   4.626   3.549  0.00  0.00    +0.024 A 
ATOM      6  C   UNL     1       4.478   4.572   2.171  0.00  0.00    +0.024 A 
ATOM      7  C   UNL     1       3.779   3.607   1.470  0.00  0.00    +0.066 A 
ATOM      8 CL   UNL     1       3.897   3.537  -0.261  0.00  0.00    -0.082 Cl
BRANCH   4   9
ATOM      9  N   UNL     1       3.508   3.771   5.627  0.00  0.00    -0.358 N 
ATOM     10  H   UNL     1       2.953   3.134   6.104  0.00  0.00    +0.142 HD
ATOM     11  H   UNL     1       4.002   4.447   6.117  0.00  0.00    +0.142 HD
ENDBRANCH   4   9
ENDBRANCH   1   2
BRANCH   1  12
ATOM     12  S   UNL     1       1.449   0.536   2.252  0.00  0.00    +0.132 S 
ATOM     13  O   UNL     1       0.340   1.166   2.879  0.00  0.00    -0.136 OA
ATOM     14  O   UNL     1       2.420  -0.200   2.983  0.00  0.00    -0.136 OA
BRANCH  12  21
ATOM     15  C   UNL     1      -0.723   1.336   0.622  0.00  0.00    +0.026 C 
ATOM     16  C   UNL     1      -0.352  -0.119   0.327  0.00  0.00    +0.078 C 
ATOM     17  C   UNL     1      -0.024  -0.274  -1.161  0.00  0.00    +0.020 C 
ATOM     18  C   UNL     1       0.479  -1.696  -1.423  0.00  0.00    +0.003 C 
ATOM     19  C   UNL     1       1.757  -1.943  -0.618  0.00  0.00    +0.017 C 
ATOM     20  C   UNL     1       1.449  -1.807   0.876  0.00  0.00    +0.111 C 
ATOM     21  N   UNL     1       0.828  -0.497   1.117  0.00  0.00    -0.159 NA
ENDBRANCH  12  21
ENDBRANCH   1  12
TORSDOF 4
