REMARK  Name = ZINC06143651
REMARK  5 active torsions:
REMARK  status: ('A' for Active; 'I' for Inactive)
REMARK    1  A    between atoms: C_1  and  C_2
REMARK    2  A    between atoms: C_5  and  C_8
REMARK    3  A    between atoms: C_8  and  S_9
REMARK    4  A    between atoms: S_9  and  C_10
REMARK    5  A    between atoms: C_21  and  C_23
REMARK                            x       y       z     vdW  Elec       q    Type
REMARK                         _______ _______ _______ _____ _____    ______ ____
ROOT
ATOM      1  C   UNL     1       0.002  -0.004   0.002  0.00  0.00    +0.171 A 
ATOM      2  N   UNL     1      -1.176  -0.687   0.010  0.00  0.00    -0.302 N 
ATOM      3  H   UNL     1      -2.017  -0.203   0.017  0.00  0.00    +0.171 HD
ATOM      4  C   UNL     1      -1.177  -2.037   0.007  0.00  0.00    +0.258 A 
ATOM      5  O   UNL     1      -2.228  -2.659   0.018  0.00  0.00    -0.267 OA
ATOM      6  C   UNL     1       0.050  -2.711  -0.009  0.00  0.00    +0.069 A 
ATOM      7  C   UNL     1       1.218  -1.970  -0.021  0.00  0.00    +0.135 A 
ATOM      8  N   UNL     1       1.159  -0.633  -0.018  0.00  0.00    -0.208 NA
ATOM      9  N   UNL     1       2.438  -2.616  -0.043  0.00  0.00    -0.302 N 
ATOM     10  C   UNL     1       2.527  -3.922  -0.442  0.00  0.00    +0.017 C 
ATOM     11  C   UNL     1       1.441  -4.723  -0.443  0.00  0.00    +0.024 C 
ATOM     12  C   UNL     1       0.091  -4.210  -0.007  0.00  0.00    +0.092 C 
ATOM     13  C   UNL     1       1.532  -6.066  -0.850  0.00  0.00    +0.162 C 
ATOM     14  O   UNL     1       0.531  -6.755  -0.858  0.00  0.00    -0.292 OA
ATOM     15  C   UNL     1       2.843  -6.667  -1.276  0.00  0.00    +0.080 C 
ATOM     16  C   UNL     1       3.982  -5.933  -0.559  0.00  0.00    +0.014 C 
ATOM     17  C   UNL     1       3.874  -4.441  -0.883  0.00  0.00    +0.051 C 
ATOM     18  H   UNL     1       3.240  -2.140   0.227  0.00  0.00    +0.153 HD
ENDROOT
BRANCH  12  19
ATOM     19  C   UNL     1      -0.200  -4.710   1.384  0.00  0.00    -0.034 A 
ATOM     20  C   UNL     1      -1.289  -5.533   1.609  0.00  0.00    +0.006 A 
ATOM     21  C   UNL     1      -1.557  -5.992   2.885  0.00  0.00    +0.022 A 
ATOM     22  C   UNL     1      -0.736  -5.629   3.937  0.00  0.00    +0.059 A 
ATOM     23  C   UNL     1       0.354  -4.806   3.712  0.00  0.00    +0.060 A 
ATOM     24  C   UNL     1       0.624  -4.351   2.434  0.00  0.00    +0.026 A 
ATOM     25 CL   UNL     1       1.385  -4.349   5.032  0.00  0.00    -0.082 Cl
ATOM     26 CL   UNL     1      -1.073  -6.205   5.540  0.00  0.00    -0.082 Cl
ENDBRANCH  12  19
BRANCH   1  27
ATOM     27  S   UNL     1      -0.022   1.758   0.012  0.00  0.00    -0.083 S 
BRANCH  27  28
ATOM     28  C   UNL     1       1.756   2.096  -0.004  0.00  0.00    +0.112 C 
BRANCH  28  33
ATOM     29  C   UNL     1       2.630   7.808   0.019  0.00  0.00    +0.044 C 
ATOM     30  C   UNL     1       2.403   6.319   0.013  0.00  0.00    -0.050 A 
ATOM     31  C   UNL     1       2.309   5.629   1.208  0.00  0.00    +0.003 A 
ATOM     32  C   UNL     1       2.100   4.263   1.202  0.00  0.00    +0.005 A 
ATOM     33  C   UNL     1       1.984   3.586   0.002  0.00  0.00    -0.037 A 
ATOM     34  C   UNL     1       2.083   4.275  -1.192  0.00  0.00    +0.005 A 
ATOM     35  C   UNL     1       2.287   5.642  -1.187  0.00  0.00    +0.003 A 
ENDBRANCH  28  33
ENDBRANCH  27  28
ENDBRANCH   1  27
TORSDOF 4
