REMARK  Name = ZINC64218782
REMARK  12 active torsions:
REMARK  status: ('A' for Active; 'I' for Inactive)
REMARK    1  A    between atoms: C_1  and  O_2
REMARK    2  A    between atoms: O_2  and  C_3
REMARK    3  A    between atoms: C_7  and  C_11
REMARK    4  A    between atoms: C_8  and  O_9
REMARK    5  A    between atoms: O_9  and  C_10
REMARK    6  A    between atoms: C_11  and  C_13
REMARK    7  A    between atoms: C_11  and  C_28
REMARK    8  A    between atoms: C_13  and  N_14
REMARK    9  A    between atoms: C_15  and  C_17
REMARK   10  A    between atoms: C_20  and  C_23
REMARK   11  A    between atoms: C_23  and  S_24
REMARK   12  A    between atoms: S_24  and  C_27
REMARK                            x       y       z     vdW  Elec       q    Type
REMARK                         _______ _______ _______ _____ _____    ______ ____
ROOT
ATOM      1  C   UNL     1      -2.549  -4.175   0.017  0.00  0.00    +0.068 C 
ENDROOT
BRANCH   1   2
ATOM      2  C   UNL     1      -3.272  -4.648   1.252  0.00  0.00    -0.033 C 
ATOM      3  C   UNL     1      -2.779  -5.446   2.227  0.00  0.00    -0.000 A 
ATOM      4  C   UNL     1      -1.474  -6.089   2.420  0.00  0.00    +0.010 A 
ATOM      5  C   UNL     1      -1.274  -6.849   3.521  0.00  0.00    +0.001 A 
ATOM      6  C   UNL     1      -2.280  -7.037   4.479  0.00  0.00    +0.002 A 
ATOM      7  C   UNL     1      -3.504  -6.479   4.371  0.00  0.00    +0.026 A 
ATOM      8  C   UNL     1      -3.824  -5.660   3.253  0.00  0.00    +0.043 A 
ATOM      9  N   UNL     1      -4.920  -5.019   2.926  0.00  0.00    -0.380 N 
ATOM     10  C   UNL     1      -4.692  -4.320   1.656  0.00  0.00    +0.145 C 
ATOM     11  H   UNL     1      -5.743  -5.005   3.439  0.00  0.00    +0.160 HD
ENDBRANCH   1   2
BRANCH   1  16
ATOM     12  C   UNL     1      -1.201  -0.638   0.010  0.00  0.00    +0.162 A 
ATOM     13  C   UNL     1      -2.374   0.099   0.019  0.00  0.00    +0.049 A 
ATOM     14  C   UNL     1      -3.596  -0.546   0.027  0.00  0.00    +0.004 A 
ATOM     15  C   UNL     1      -3.652  -1.928   0.026  0.00  0.00    +0.008 A 
ATOM     16  C   UNL     1      -2.485  -2.669   0.017  0.00  0.00    +0.007 A 
ATOM     17  C   UNL     1      -1.257  -2.028   0.003  0.00  0.00    +0.165 A 
BRANCH  12  19
ATOM     18  C   UNL     1      -0.017   1.425   0.010  0.00  0.00    +0.277 C 
ATOM     19  O   UNL     1       0.002  -0.004   0.002  0.00  0.00    -0.491 OA
ENDBRANCH  12  19
BRANCH  17  20
ATOM     20  O   UNL     1      -0.108  -2.756  -0.012  0.00  0.00    -0.491 OA
ATOM     21  C   UNL     1       0.452  -3.110   1.254  0.00  0.00    +0.277 C 
ENDBRANCH  17  20
ENDBRANCH   1  16
BRANCH   1  22
ATOM     22  C   UNL     1      -3.301  -4.653  -1.228  0.00  0.00    +0.117 C 
BRANCH  22  23
ATOM     23  N   UNL     1      -3.260  -6.116  -1.291  0.00  0.00    -0.310 N 
ATOM     24  C   UNL     1      -3.861  -6.764  -2.309  0.00  0.00    +0.244 C 
ATOM     25  O   UNL     1      -4.436  -6.134  -3.175  0.00  0.00    -0.270 OA
ATOM     26  H   UNL     1      -2.801  -6.619  -0.600  0.00  0.00    +0.149 HD
BRANCH  24  27
ATOM     27  C   UNL     1      -3.819  -8.240  -2.373  0.00  0.00    +0.037 A 
ATOM     28  C   UNL     1      -3.164  -8.967  -1.377  0.00  0.00    +0.013 A 
ATOM     29  C   UNL     1      -3.130 -10.344  -1.442  0.00  0.00    +0.006 A 
ATOM     30  C   UNL     1      -3.743 -11.006  -2.491  0.00  0.00    -0.027 A 
ATOM     31  C   UNL     1      -4.393 -10.291  -3.482  0.00  0.00    +0.006 A 
ATOM     32  C   UNL     1      -4.440  -8.914  -3.425  0.00  0.00    +0.013 A 
BRANCH  30  33
ATOM     33  C   UNL     1      -3.701 -12.511  -2.556  0.00  0.00    +0.200 C 
BRANCH  33  34
ATOM     34  S   UNL     1      -5.138 -13.194  -1.684  0.00  0.00    -0.030 S 
ATOM     35  O   UNL     1      -5.023 -12.869  -0.306  0.00  0.00    -0.174 OA
ATOM     36  O   UNL     1      -6.313 -12.815  -2.388  0.00  0.00    -0.174 OA
ATOM     37  C   UNL     1      -4.907 -14.983  -1.873  0.00  0.00    +0.194 C 
ENDBRANCH  33  34
ENDBRANCH  30  33
ENDBRANCH  24  27
ENDBRANCH  22  23
ENDBRANCH   1  22
TORSDOF 9
