REMARK  Name = ZINC39503267
REMARK  7 active torsions:
REMARK  status: ('A' for Active; 'I' for Inactive)
REMARK    1  A    between atoms: C_4  and  C_7
REMARK    2  A    between atoms: C_7  and  C_8
REMARK    3  A    between atoms: C_15  and  S_26
REMARK    4  A    between atoms: N_18  and  C_19
REMARK    5  A    between atoms: C_19  and  C_20
REMARK    6  A    between atoms: S_26  and  O_29
REMARK    7  A    between atoms: O_29  and  C_30
REMARK                            x       y       z     vdW  Elec       q    Type
REMARK                         _______ _______ _______ _____ _____    ______ ____
ROOT
ATOM      1  C   UNL     1       3.520  -1.978   1.618  0.00  0.00    -0.008 C 
ATOM      2  C   UNL     1       2.898  -3.134   2.442  0.00  0.00    +0.002 C 
ATOM      3  C   UNL     1       3.985  -3.418   3.509  0.00  0.00    -0.012 C 
ATOM      4  C   UNL     1       5.310  -3.236   2.751  0.00  0.00    -0.063 C 
ATOM      5  C   UNL     1       5.023  -2.324   1.550  0.00  0.00    -0.008 C 
ATOM      6  C   UNL     1       5.838  -4.599   2.274  0.00  0.00    +0.016 C 
ATOM      7  C   UNL     1       7.374  -4.458   2.457  0.00  0.00    +0.154 C 
ATOM      8  C   UNL     1       7.460  -3.588   3.736  0.00  0.00    -0.048 C 
ATOM      9  N   UNL     1       6.328  -2.640   3.625  0.00  0.00    +0.387 N 
ATOM     10  H   UNL     1       6.651  -1.770   3.228  0.00  0.00    -0.080 HD
ENDROOT
BRANCH   7  11
ATOM     11  S   UNL     1       8.148  -6.078   2.719  0.00  0.00    +0.122 S 
ATOM     12  O   UNL     1       7.679  -6.654   3.930  0.00  0.00    -0.137 OA
ATOM     13  O   UNL     1       8.141  -6.825   1.510  0.00  0.00    -0.137 OA
BRANCH  11  14
ATOM     14  O   UNL     1       9.616  -5.771   2.978  0.00  0.00    -0.346 OA
BRANCH  14  15
ATOM     15  C   UNL     1      10.315  -5.431   1.863  0.00  0.00    +0.156 A 
ATOM     16  C   UNL     1      10.930  -6.414   1.101  0.00  0.00    +0.048 A 
ATOM     17  C   UNL     1      11.639  -6.066  -0.032  0.00  0.00    +0.004 A 
ATOM     18  C   UNL     1      11.737  -4.738  -0.406  0.00  0.00    +0.000 A 
ATOM     19  C   UNL     1      11.126  -3.757   0.352  0.00  0.00    +0.004 A 
ATOM     20  C   UNL     1      10.410  -4.101   1.482  0.00  0.00    +0.048 A 
ENDBRANCH  14  15
ENDBRANCH  11  14
ENDBRANCH   7  11
BRANCH   1  21
ATOM     21  C   UNL     1       2.916  -1.938   0.212  0.00  0.00    +0.038 C 
BRANCH  21  25
ATOM     22  C   UNL     1      -1.184  -0.764   0.455  0.00  0.00    +0.000 A 
ATOM     23  C   UNL     1      -0.198   0.194   0.311  0.00  0.00    +0.000 A 
ATOM     24  C   UNL     1       1.129  -0.186   0.233  0.00  0.00    +0.003 A 
ATOM     25  C   UNL     1       1.470  -1.524   0.299  0.00  0.00    -0.047 A 
ATOM     26  C   UNL     1       0.484  -2.482   0.444  0.00  0.00    +0.003 A 
ATOM     27  C   UNL     1      -0.843  -2.102   0.520  0.00  0.00    +0.000 A 
ENDBRANCH  21  25
ENDBRANCH   1  21
BRANCH   9  28
ATOM     28  C   UNL     1       5.756  -2.394   4.956  0.00  0.00    -0.042 C 
BRANCH  28  29
ATOM     29  C   UNL     1       6.802  -1.772   5.845  0.00  0.00    -0.064 A 
ATOM     30  C   UNL     1       7.635  -2.577   6.600  0.00  0.00    +0.002 A 
ATOM     31  C   UNL     1       8.594  -2.007   7.416  0.00  0.00    +0.000 A 
ATOM     32  C   UNL     1       8.722  -0.631   7.476  0.00  0.00    +0.000 A 
ATOM     33  C   UNL     1       7.890   0.173   6.720  0.00  0.00    +0.000 A 
ATOM     34  C   UNL     1       6.933  -0.397   5.901  0.00  0.00    +0.002 A 
ENDBRANCH  28  29
ENDBRANCH   9  28
TORSDOF 7
