REMARK  Name = ZINC39656579
REMARK  9 active torsions:
REMARK  status: ('A' for Active; 'I' for Inactive)
REMARK    1  A    between atoms: C_1  and  C_2
REMARK    2  A    between atoms: C_2  and  S_3
REMARK    3  A    between atoms: S_3  and  C_4
REMARK    4  A    between atoms: C_4  and  C_5
REMARK    5  A    between atoms: C_5  and  N_6
REMARK    6  A    between atoms: C_7  and  C_9
REMARK    7  A    between atoms: C_20  and  C_22
REMARK    8  A    between atoms: C_27  and  O_28
REMARK    9  A    between atoms: O_28  and  C_29
REMARK                            x       y       z     vdW  Elec       q    Type
REMARK                         _______ _______ _______ _____ _____    ______ ____
ROOT
ATOM      1  C   UNL     1      -3.449  -7.177   0.412  0.00  0.00    +0.100 C 
ATOM      2  C   UNL     1      -2.947  -7.467  -1.020  0.00  0.00    +0.121 C 
ATOM      3  N   UNL     1      -3.693  -8.676  -1.440  0.00  0.00    -0.296 N 
ATOM      4  C   UNL     1      -5.059  -8.473  -0.901  0.00  0.00    +0.115 C 
ATOM      5  C   UNL     1      -4.835  -7.838   0.486  0.00  0.00    -0.004 C 
ATOM      6  C   UNL     1      -5.907  -6.788   0.764  0.00  0.00    -0.010 C 
ATOM      7  C   UNL     1      -7.269  -7.477   0.891  0.00  0.00    -0.082 C 
ATOM      8  N   UNL     1      -7.223  -8.459   1.981  0.00  0.00    +0.379 N 
ATOM      9  C   UNL     1      -6.256  -9.516   1.663  0.00  0.00    -0.082 C 
ATOM     10  C   UNL     1      -4.851  -8.914   1.568  0.00  0.00    -0.010 C 
ATOM     11  C   UNL     1      -3.233  -9.724  -2.152  0.00  0.00    +0.252 C 
ATOM     12  O   UNL     1      -3.997 -10.604  -2.502  0.00  0.00    -0.270 OA
ATOM     13  H   UNL     1      -6.947  -7.998   2.836  0.00  0.00    -0.086 HD
ATOM     14  H   UNL     1      -8.138  -8.867   2.103  0.00  0.00    -0.086 HD
ENDROOT
BRANCH  11  15
ATOM     15  C   UNL     1      -1.804  -9.804  -2.509  0.00  0.00    +0.099 A 
ATOM     16  C   UNL     1      -1.076  -8.645  -2.798  0.00  0.00    +0.020 A 
ATOM     17  C   UNL     1       0.262  -8.774  -3.126  0.00  0.00    +0.021 A 
ATOM     18  C   UNL     1       0.837 -10.032  -3.158  0.00  0.00    +0.114 A 
ATOM     19  N   UNL     1       0.132 -11.112  -2.882  0.00  0.00    -0.220 NA
ATOM     20  C   UNL     1      -1.149 -11.044  -2.557  0.00  0.00    +0.233 A 
BRANCH  20  21
ATOM     21  O   UNL     1      -1.833 -12.178  -2.275  0.00  0.00    -0.437 OA
BRANCH  21  22
ATOM     22  C   UNL     1      -1.189 -13.366  -2.427  0.00  0.00    +0.130 A 
ATOM     23  C   UNL     1      -0.301 -13.803  -1.455  0.00  0.00    +0.048 A 
ATOM     24  C   UNL     1       0.352 -15.011  -1.611  0.00  0.00    +0.023 A 
ATOM     25  C   UNL     1       0.121 -15.783  -2.735  0.00  0.00    +0.041 A 
ATOM     26  C   UNL     1      -0.764 -15.348  -3.706  0.00  0.00    +0.023 A 
ATOM     27  C   UNL     1      -1.423 -14.144  -3.551  0.00  0.00    +0.048 A 
ATOM     28 CL   UNL     1       0.943 -17.300  -2.929  0.00  0.00    -0.084 Cl
ENDBRANCH  21  22
ENDBRANCH  20  21
ENDBRANCH  11  15
BRANCH   1  30
ATOM     29  N   UNL     1      -3.455  -5.188   1.883  0.00  0.00    -0.314 N 
ATOM     30  C   UNL     1      -3.563  -5.691   0.637  0.00  0.00    +0.218 C 
ATOM     31  O   UNL     1      -3.753  -4.948  -0.302  0.00  0.00    -0.275 OA
ATOM     32  H   UNL     1      -3.303  -5.782   2.635  0.00  0.00    +0.149 HD
BRANCH  29  33
ATOM     33  C   UNL     1      -3.566  -3.744   2.102  0.00  0.00    +0.115 C 
BRANCH  33  34
ATOM     34  C   UNL     1      -3.408  -3.440   3.593  0.00  0.00    +0.088 C 
BRANCH  34  35
ATOM     35  S   UNL     1      -3.545  -1.652   3.864  0.00  0.00    -0.159 S 
BRANCH  35  37
ATOM     36  C   UNL     1      -3.434   0.019   6.027  0.00  0.00    +0.015 C 
ATOM     37  C   UNL     1      -3.338  -1.462   5.656  0.00  0.00    +0.066 C 
ENDBRANCH  35  37
ENDBRANCH  34  35
ENDBRANCH  33  34
ENDBRANCH  29  33
ENDBRANCH   1  30
TORSDOF 8
