REMARK  Name = ZINC09127985
REMARK  9 active torsions:
REMARK  status: ('A' for Active; 'I' for Inactive)
REMARK    1  A    between atoms: C_1  and  C_2
REMARK    2  A    between atoms: C_4  and  C_30
REMARK    3  A    between atoms: C_10  and  S_11
REMARK    4  A    between atoms: S_11  and  C_12
REMARK    5  A    between atoms: C_12  and  C_13
REMARK    6  A    between atoms: N_15  and  C_16
REMARK    7  A    between atoms: C_17  and  C_26
REMARK    8  A    between atoms: C_26  and  O_28
REMARK    9  A    between atoms: O_28  and  C_29
REMARK                            x       y       z     vdW  Elec       q    Type
REMARK                         _______ _______ _______ _____ _____    ______ ____
ROOT
ATOM      1  C   UNL     1       4.327   4.612  -0.016  0.00  0.00    +0.228 C 
ATOM      2  O   UNL     1       3.634   5.607  -0.004  0.00  0.00    -0.275 OA
ATOM      3  N   UNL     1       5.670   4.727  -0.028  0.00  0.00    -0.279 N 
ATOM      4  H   UNL     1       6.225   3.931  -0.037  0.00  0.00    +0.155 HD
ENDROOT
BRANCH   3   5
ATOM      5  C   UNL     1       6.259   5.981  -0.027  0.00  0.00    +0.086 A 
ATOM      6  C   UNL     1       7.609   6.301  -0.033  0.00  0.00    +0.091 A 
ATOM      7  C   UNL     1       7.971   7.712  -0.039  0.00  0.00    -0.021 A 
ATOM      8  C   UNL     1       6.927   8.568  -0.020  0.00  0.00    -0.004 A 
ATOM      9  S   UNL     1       5.488   7.532  -0.012  0.00  0.00    -0.077 S 
ATOM     10  C   UNL     1       6.970  10.064   0.004  0.00  0.00    +0.043 C 
ATOM     11  C   UNL     1       7.934  10.561  -1.081  0.00  0.00    +0.005 C 
ATOM     12  C   UNL     1       9.332  10.657  -0.477  0.00  0.00    +0.001 C 
ATOM     13  C   UNL     1       9.526   9.566   0.574  0.00  0.00    +0.005 C 
ATOM     14  C   UNL     1       9.419   8.186  -0.065  0.00  0.00    +0.037 C 
BRANCH   6  15
ATOM     15  C   UNL     1       8.634   5.255  -0.037  0.00  0.00    +0.342 C 
ATOM     16  O   UNL     1       9.056   4.821  -1.092  0.00  0.00    -0.245 OA
BRANCH  15  17
ATOM     17  O   UNL     1       9.111   4.774   1.130  0.00  0.00    -0.464 OA
ATOM     18  C   UNL     1      10.126   3.739   1.050  0.00  0.00    +0.280 C 
ENDBRANCH  15  17
ENDBRANCH   6  15
ENDBRANCH   3   5
BRANCH   1  19
ATOM     19  C   UNL     1       3.687   3.248  -0.016  0.00  0.00    +0.173 C 
BRANCH  19  20
ATOM     20  S   UNL     1       1.882   3.427   0.002  0.00  0.00    -0.076 S 
BRANCH  20  30
ATOM     21  C   UNL     1      -3.581  -0.872   0.033  0.00  0.00    +0.066 C 
ATOM     22  C   UNL     1      -2.303  -0.073   0.024  0.00  0.00    +0.044 A 
ATOM     23  C   UNL     1      -2.360   1.331   0.032  0.00  0.00    +0.044 A 
ATOM     24  C   UNL     1      -1.208   2.044   0.029  0.00  0.00    +0.028 A 
ATOM     25  N   UNL     1      -0.017   1.375   0.010  0.00  0.00    -0.259 N 
ATOM     26  C   UNL     1       0.002  -0.004   0.002  0.00  0.00    +0.257 A 
ATOM     27  N   UNL     1      -1.148  -0.693   0.010  0.00  0.00    -0.216 NA
ATOM     28  N   UNL     1       1.272  -0.366  -0.012  0.00  0.00    -0.108 NA
ATOM     29  N   UNL     1       2.023   0.678  -0.014  0.00  0.00    -0.120 NA
ATOM     30  C   UNL     1       1.289   1.768  -0.001  0.00  0.00    +0.198 A 
ATOM     31  C   UNL     1      -1.240   3.550   0.038  0.00  0.00    +0.064 C 
ENDBRANCH  20  30
ENDBRANCH  19  20
ENDBRANCH   1  19
TORSDOF 6
