REMARK  Name = ZINC05899614
REMARK  4 active torsions:
REMARK  status: ('A' for Active; 'I' for Inactive)
REMARK    1  A    between atoms: C_4  and  C_7
REMARK    2  A    between atoms: C_18  and  S_20
REMARK    3  A    between atoms: S_20  and  C_21
REMARK    4  A    between atoms: C_26  and  N_27
REMARK                            x       y       z     vdW  Elec       q    Type
REMARK                         _______ _______ _______ _____ _____    ______ ____
ROOT
ATOM      1  C   UNL     1      -0.018   1.502   0.010  0.00  0.00    +0.071 C 
ATOM      2  N   UNL     1       1.063   2.191  -0.033  0.00  0.00    -0.248 NA
ATOM      3  C   UNL     1       2.328   1.700  -0.086  0.00  0.00    +0.085 A 
ATOM      4  C   UNL     1       3.226   2.347  -0.954  0.00  0.00    +0.029 A 
ATOM      5  C   UNL     1       4.529   1.919  -1.058  0.00  0.00    +0.002 A 
ATOM      6  C   UNL     1       4.967   0.843  -0.306  0.00  0.00    +0.002 A 
ATOM      7  C   UNL     1       4.099   0.197   0.547  0.00  0.00    +0.025 A 
ATOM      8  C   UNL     1       2.772   0.614   0.666  0.00  0.00    +0.059 A 
ATOM      9  N   UNL     1       1.965  -0.096   1.545  0.00  0.00    -0.283 N 
ATOM     10  C   UNL     1       0.696  -0.435   1.313  0.00  0.00    +0.236 C 
ATOM     11  O   UNL     1       0.093  -1.097   2.131  0.00  0.00    -0.274 OA
ATOM     12  C   UNL     1       0.003  -0.004   0.045  0.00  0.00    +0.186 C 
ATOM     13  H   UNL     1       2.353  -0.366   2.392  0.00  0.00    +0.155 HD
ENDROOT
BRANCH   1  17
ATOM     14  C   UNL     1      -3.752   3.517   0.039  0.00  0.00    +0.000 A 
ATOM     15  C   UNL     1      -2.577   4.242   0.136  0.00  0.00    +0.001 A 
ATOM     16  C   UNL     1      -1.360   3.595   0.128  0.00  0.00    +0.010 A 
ATOM     17  C   UNL     1      -1.314   2.201   0.020  0.00  0.00    -0.002 A 
ATOM     18  C   UNL     1      -2.505   1.476  -0.084  0.00  0.00    +0.010 A 
ATOM     19  C   UNL     1      -3.715   2.138  -0.067  0.00  0.00    +0.001 A 
ENDBRANCH   1  17
BRANCH  12  20
ATOM     20  S   UNL     1       0.907  -0.637  -1.394  0.00  0.00    -0.104 S 
BRANCH  20  21
ATOM     21  C   UNL     1       0.713  -2.385  -1.284  0.00  0.00    +0.030 A 
ATOM     22  C   UNL     1      -0.013  -2.940  -0.240  0.00  0.00    +0.016 A 
ATOM     23  C   UNL     1      -0.163  -4.312  -0.156  0.00  0.00    +0.001 A 
ATOM     24  C   UNL     1       0.407  -5.134  -1.110  0.00  0.00    +0.002 A 
ATOM     25  C   UNL     1       1.132  -4.589  -2.154  0.00  0.00    +0.024 A 
ATOM     26  C   UNL     1       1.285  -3.215  -2.249  0.00  0.00    +0.038 A 
BRANCH  26  27
ATOM     27  N   UNL     1       2.014  -2.661  -3.308  0.00  0.00    -0.357 N 
ATOM     28  H   UNL     1       2.123  -1.699  -3.371  0.00  0.00    +0.142 HD
ATOM     29  H   UNL     1       2.411  -3.239  -3.978  0.00  0.00    +0.142 HD
ENDBRANCH  26  27
ENDBRANCH  20  21
ENDBRANCH  12  20
TORSDOF 4
