REMARK  Name = ZINC23192294
REMARK  7 active torsions:
REMARK  status: ('A' for Active; 'I' for Inactive)
REMARK    1  A    between atoms: C_1  and  C_2
REMARK    2  A    between atoms: C_2  and  C_3
REMARK    3  A    between atoms: N_11  and  C_13
REMARK    4  A    between atoms: C_13  and  C_14
REMARK    5  A    between atoms: C_14  and  C_24
REMARK    6  A    between atoms: C_15  and  C_16
REMARK    7  A    between atoms: C_21  and  O_22
REMARK                            x       y       z     vdW  Elec       q    Type
REMARK                         _______ _______ _______ _____ _____    ______ ____
ROOT
ATOM      1  C   UNL     1       4.544   2.284   1.452  0.00  0.00    +0.037 A 
ATOM      2  C   UNL     1       3.476   2.108   0.578  0.00  0.00    -0.020 A 
ATOM      3  C   UNL     1       3.886   2.480  -0.664  0.00  0.00    +0.063 A 
ATOM      4  N   UNL     1       5.163   2.878  -0.575  0.00  0.00    -0.179 NA
ATOM      5  H   UNL     1       6.516   2.955   1.269  0.00  0.00    +0.189 HD
ATOM      6  N   UNL     1       5.561   2.745   0.765  0.00  0.00    -0.281 N 
ATOM      7  C   UNL     1       2.994   2.424  -1.880  0.00  0.00    +0.039 C 
ATOM      8  C   UNL     1       1.787   1.539  -1.535  0.00  0.00    -0.072 C 
ATOM      9  N   UNL     1       1.212   1.966  -0.252  0.00  0.00    +0.385 N 
ATOM     10  C   UNL     1       2.087   1.603   0.877  0.00  0.00    -0.039 C 
ATOM     11  H   UNL     1       1.130   3.063  -0.275  0.00  0.00    -0.081 HD
ENDROOT
BRANCH   1  13
ATOM     12  C   UNL     1       4.971   0.542   3.165  0.00  0.00    +0.010 C 
ATOM     13  C   UNL     1       4.535   1.990   2.930  0.00  0.00    +0.051 C 
ENDBRANCH   1  13
BRANCH   9  14
ATOM     14  C   UNL     1      -0.137   1.414  -0.070  0.00  0.00    -0.047 C 
BRANCH  14  15
ATOM     15  C   UNL     1      -0.054  -0.085   0.055  0.00  0.00    -0.089 C 
ATOM     16  C   UNL     1      -0.005  -0.649   1.255  0.00  0.00    +0.008 C 
ATOM     17  C   UNL     1      -0.026  -0.945  -1.182  0.00  0.00    +0.037 C 
BRANCH  16  18
ATOM     18  C   UNL     1       0.221  -2.103   1.379  0.00  0.00    +0.018 A 
ATOM     19  C   UNL     1       1.094  -2.754   0.508  0.00  0.00    +0.031 A 
ATOM     20  C   UNL     1       1.301  -4.114   0.629  0.00  0.00    +0.042 A 
ATOM     21  C   UNL     1       0.645  -4.834   1.614  0.00  0.00    +0.023 A 
ATOM     22  C   UNL     1      -0.222  -4.199   2.482  0.00  0.00    +0.047 A 
ATOM     23  C   UNL     1      -0.437  -2.834   2.376  0.00  0.00    +0.124 A 
ATOM     24 CL   UNL     1       2.388  -4.923  -0.456  0.00  0.00    -0.084 Cl
BRANCH  23  25
ATOM     25  O   UNL     1      -1.285  -2.209   3.233  0.00  0.00    -0.506 OA
ATOM     26  H   UNL     1      -1.801  -2.785   4.015  0.00  0.00    +0.292 HD
ENDBRANCH  23  25
ENDBRANCH  16  18
ENDBRANCH  14  15
ENDBRANCH   9  14
TORSDOF 5
