REMARK  Name = ZINC08897158
REMARK  6 active torsions:
REMARK  status: ('A' for Active; 'I' for Inactive)
REMARK    1  A    between atoms: C_4  and  C_7
REMARK    2  A    between atoms: C_16  and  S_18
REMARK    3  A    between atoms: S_18  and  C_19
REMARK    4  A    between atoms: C_19  and  C_20
REMARK    5  A    between atoms: N_22  and  C_23
REMARK    6  A    between atoms: C_24  and  C_32
REMARK                            x       y       z     vdW  Elec       q    Type
REMARK                         _______ _______ _______ _____ _____    ______ ____
ROOT
ATOM      1  C   UNL     1      -2.218   5.793   0.055  0.00  0.00    +0.173 C 
ENDROOT
BRANCH   1   2
ATOM      2  C   UNL     1      -3.414   6.710   0.071  0.00  0.00    +0.228 C 
ATOM      3  O   UNL     1      -4.534   6.245   0.079  0.00  0.00    -0.275 OA
ATOM      4  N   UNL     1      -3.238   8.046   0.076  0.00  0.00    -0.279 N 
ATOM      5  H   UNL     1      -2.342   8.418   0.069  0.00  0.00    +0.155 HD
BRANCH   4   6
ATOM      6  C   UNL     1      -4.339   8.890   0.091  0.00  0.00    +0.084 A 
ATOM      7  C   UNL     1      -4.361  10.277   0.104  0.00  0.00    +0.068 A 
ATOM      8  C   UNL     1      -5.661  10.927   0.115  0.00  0.00    -0.023 A 
ATOM      9  C   UNL     1      -6.722  10.092   0.121  0.00  0.00    -0.004 A 
ATOM     10  S   UNL     1      -6.019   8.467   0.106  0.00  0.00    -0.077 S 
ATOM     11  C   UNL     1      -8.171  10.472   0.139  0.00  0.00    +0.043 C 
ATOM     12  C   UNL     1      -8.277  11.954   0.527  0.00  0.00    +0.005 C 
ATOM     13  C   UNL     1      -7.282  12.757  -0.316  0.00  0.00    +0.005 C 
ATOM     14  C   UNL     1      -5.852  12.439   0.124  0.00  0.00    +0.037 C 
BRANCH   7  15
ATOM     15  C   UNL     1      -3.120  11.058   0.102  0.00  0.00    +0.244 C 
ATOM     16  O   UNL     1      -2.613  11.392  -0.953  0.00  0.00    -0.270 OA
ATOM     17  N   UNL     1      -2.541  11.406   1.268  0.00  0.00    -0.325 N 
ATOM     18  H   UNL     1      -2.946  11.139   2.109  0.00  0.00    +0.145 HD
ATOM     19  H   UNL     1      -1.720  11.922   1.267  0.00  0.00    +0.145 HD
ENDBRANCH   7  15
ENDBRANCH   4   6
ENDBRANCH   1   2
BRANCH   1  20
ATOM     20  S   UNL     1      -2.777   4.072   0.051  0.00  0.00    -0.078 S 
BRANCH  20  30
ATOM     21  C   UNL     1       2.582   1.464  -0.015  0.00  0.00    +0.004 A 
ATOM     22  C   UNL     1       3.595   2.362  -0.021  0.00  0.00    +0.056 A 
ATOM     23  S   UNL     1       2.754   3.934  -0.004  0.00  0.00    -0.076 S 
ATOM     24  C   UNL     1       1.077   3.354   0.010  0.00  0.00    +0.117 A 
ATOM     25  C   UNL     1       1.208   1.955   0.001  0.00  0.00    +0.080 A 
ATOM     26  C   UNL     1      -0.015   1.215   0.009  0.00  0.00    +0.261 A 
ATOM     27  O   UNL     1       0.002  -0.004   0.002  0.00  0.00    -0.267 OA
ATOM     28  N   UNL     1      -1.184   1.880   0.018  0.00  0.00    -0.301 N 
ATOM     29  H   UNL     1      -2.016   1.381   0.019  0.00  0.00    +0.171 HD
ATOM     30  C   UNL     1      -1.222   3.244   0.032  0.00  0.00    +0.170 A 
ATOM     31  N   UNL     1      -0.109   3.951   0.025  0.00  0.00    -0.216 NA
BRANCH  21  35
ATOM     32  C   UNL     1       3.390  -2.710  -0.044  0.00  0.00    +0.000 A 
ATOM     33  C   UNL     1       4.007  -1.882  -0.965  0.00  0.00    +0.001 A 
ATOM     34  C   UNL     1       3.749  -0.526  -0.961  0.00  0.00    +0.008 A 
ATOM     35  C   UNL     1       2.864   0.009  -0.025  0.00  0.00    -0.017 A 
ATOM     36  C   UNL     1       2.250  -0.830   0.904  0.00  0.00    +0.008 A 
ATOM     37  C   UNL     1       2.511  -2.184   0.886  0.00  0.00    +0.001 A 
ENDBRANCH  21  35
ENDBRANCH  20  30
ENDBRANCH   1  20
TORSDOF 6
