REMARK  Name = ZINC06877457
REMARK  9 active torsions:
REMARK  status: ('A' for Active; 'I' for Inactive)
REMARK    1  A    between atoms: C_1  and  C_2
REMARK    2  A    between atoms: C_2  and  N_60
REMARK    3  A    between atoms: C_8  and  N_25
REMARK    4  A    between atoms: C_9  and  C_10
REMARK    5  A    between atoms: C_10  and  C_12
REMARK    6  A    between atoms: C_10  and  N_13
REMARK    7  A    between atoms: N_16  and  C_17
REMARK    8  A    between atoms: C_20  and  C_24
REMARK    9  A    between atoms: C_22  and  C_23
REMARK                            x       y       z     vdW  Elec       q    Type
REMARK                         _______ _______ _______ _____ _____    ______ ____
ROOT
ATOM      1  C   UNL     1      -6.903   0.987  -0.558  0.00  0.00    -0.074 C 
ATOM      2  C   UNL     1      -5.887   1.983   0.005  0.00  0.00    +0.018 C 
ATOM      3  C   UNL     1      -4.486   1.467  -0.315  0.00  0.00    -0.034 A 
ATOM      4  C   UNL     1      -4.317   0.159  -0.654  0.00  0.00    -0.021 A 
ATOM      5  S   UNL     1      -2.574   0.015  -0.934  0.00  0.00    -0.077 S 
ATOM      6  C   UNL     1      -2.133   1.711  -0.585  0.00  0.00    +0.090 A 
ATOM      7  C   UNL     1      -3.340   2.257  -0.278  0.00  0.00    +0.007 A 
ATOM      8  C   UNL     1      -5.380  -0.886  -0.755  0.00  0.00    -0.035 C 
ATOM      9  N   UNL     1      -6.588  -0.370  -0.067  0.00  0.00    +0.383 N 
ATOM     10  H   UNL     1      -6.405  -0.326   0.943  0.00  0.00    -0.081 HD
ENDROOT
BRANCH   6  11
ATOM     11  N   UNL     1      -0.872   2.318  -0.615  0.00  0.00    -0.317 N 
ATOM     12  C   UNL     1      -0.628   3.654  -0.469  0.00  0.00    +0.092 A 
ATOM     13  C   UNL     1       0.704   3.850  -0.551  0.00  0.00    +0.019 A 
ATOM     14  C   UNL     1       1.305   2.593  -0.759  0.00  0.00    +0.019 A 
ATOM     15  C   UNL     1       0.318   1.674  -0.797  0.00  0.00    +0.092 A 
ENDBRANCH   6  11
BRANCH   9  17
ATOM     16  C   UNL     1      -8.104  -1.281  -1.793  0.00  0.00    -0.017 C 
ATOM     17  C   UNL     1      -7.733  -1.275  -0.308  0.00  0.00    -0.082 C 
ENDBRANCH   9  17
BRANCH   7  18
ATOM     18  C   UNL     1      -3.437   3.713   0.098  0.00  0.00    +0.104 C 
ATOM     19  C   UNL     1      -3.255   4.575  -1.153  0.00  0.00    +0.033 C 
BRANCH  18  20
ATOM     20  N   UNL     1      -2.392   4.037   1.071  0.00  0.00    -0.292 N 
ATOM     21  C   UNL     1      -2.494   5.151   1.824  0.00  0.00    +0.304 C 
ATOM     22  O   UNL     1      -3.454   5.886   1.696  0.00  0.00    -0.252 OA
ATOM     23  N   UNL     1      -1.532   5.449   2.720  0.00  0.00    -0.269 N 
ATOM     24  H   UNL     1      -1.626   3.451   1.174  0.00  0.00    +0.151 HD
ATOM     25  H   UNL     1      -0.808   4.824   2.880  0.00  0.00    +0.156 HD
BRANCH  23  26
ATOM     26  C   UNL     1      -1.578   6.661   3.418  0.00  0.00    +0.038 A 
ATOM     27  C   UNL     1      -2.335   7.718   2.929  0.00  0.00    +0.024 A 
ATOM     28  C   UNL     1      -2.378   8.912   3.621  0.00  0.00    +0.005 A 
ATOM     29  C   UNL     1      -1.669   9.057   4.799  0.00  0.00    -0.050 A 
ATOM     30  C   UNL     1      -0.914   8.007   5.288  0.00  0.00    +0.008 A 
ATOM     31  C   UNL     1      -0.871   6.807   4.604  0.00  0.00    -0.029 A 
ATOM     32  C   UNL     1      -0.053   5.661   5.141  0.00  0.00    +0.045 C 
ATOM     33  C   UNL     1      -1.718  10.362   5.551  0.00  0.00    +0.044 C 
ENDBRANCH  23  26
ENDBRANCH  18  20
ENDBRANCH   7  18
TORSDOF 5
