REMARK  Name = ZINC00897444
REMARK  7 active torsions:
REMARK  status: ('A' for Active; 'I' for Inactive)
REMARK    1  A    between atoms: C_1  and  O_2
REMARK    2  A    between atoms: O_2  and  C_3
REMARK    3  A    between atoms: C_6  and  C_11
REMARK    4  A    between atoms: C_7  and  O_9
REMARK    5  A    between atoms: O_9  and  C_10
REMARK    6  A    between atoms: C_23  and  N_27
REMARK    7  A    between atoms: C_24  and  C_25
REMARK                            x       y       z     vdW  Elec       q    Type
REMARK                         _______ _______ _______ _____ _____    ______ ____
ROOT
ATOM      1  C   UNL     1       2.407  -0.115  -0.656  0.00  0.00    +0.108 C 
ATOM      2  C   UNL     1       2.321   1.338  -0.310  0.00  0.00    +0.046 A 
ATOM      3  C   UNL     1       1.186   2.013   0.002  0.00  0.00    +0.149 A 
ATOM      4  C   UNL     1       1.327   3.428   0.310  0.00  0.00    +0.032 A 
ATOM      5  C   UNL     1       0.286   4.323   0.660  0.00  0.00    +0.013 A 
ATOM      6  C   UNL     1       0.629   5.622   0.914  0.00  0.00    +0.001 A 
ATOM      7  C   UNL     1       1.930   6.094   0.843  0.00  0.00    +0.001 A 
ATOM      8  C   UNL     1       2.981   5.253   0.503  0.00  0.00    +0.016 A 
ATOM      9  C   UNL     1       2.650   3.940   0.245  0.00  0.00    +0.023 A 
ATOM     10  S   UNL     1       3.621   2.538  -0.213  0.00  0.00    -0.088 S 
ATOM     11  O   UNL     1      -0.016   1.337   0.009  0.00  0.00    -0.440 OA
ATOM     12  C   UNL     1       0.002  -0.004   0.002  0.00  0.00    +0.199 C 
ATOM     13  C   UNL     1       1.086  -0.756  -0.297  0.00  0.00    +0.099 C 
ENDROOT
BRANCH   1  17
ATOM     14  C   UNL     1       3.144  -0.566  -4.845  0.00  0.00    +0.124 A 
ATOM     15  C   UNL     1       2.017   0.113  -4.404  0.00  0.00    +0.046 A 
ATOM     16  C   UNL     1       1.779   0.253  -3.050  0.00  0.00    +0.012 A 
ATOM     17  C   UNL     1       2.667  -0.274  -2.132  0.00  0.00    +0.008 A 
ATOM     18  C   UNL     1       3.795  -0.954  -2.568  0.00  0.00    +0.128 A 
ATOM     19  C   UNL     1       4.033  -1.101  -3.926  0.00  0.00    +0.091 A 
BRANCH  14  21
ATOM     20  C   UNL     1       2.416  -0.132  -7.066  0.00  0.00    +0.277 C 
ATOM     21  O   UNL     1       3.375  -0.708  -6.176  0.00  0.00    -0.495 OA
ENDBRANCH  14  21
BRANCH  18  22
ATOM     22  O   UNL     1       4.665  -1.477  -1.664  0.00  0.00    -0.495 OA
ATOM     23  C   UNL     1       5.805  -2.165  -2.184  0.00  0.00    +0.277 C 
ENDBRANCH  18  22
ENDBRANCH   1  17
BRANCH  12  24
ATOM     24  N   UNL     1      -1.161  -0.660   0.320  0.00  0.00    -0.328 N 
ATOM     25  H   UNL     1      -1.959  -0.153   0.540  0.00  0.00    +0.145 HD
ATOM     26  H   UNL     1      -1.186  -1.629   0.325  0.00  0.00    +0.145 HD
ENDBRANCH  12  24
BRANCH  13  27
ATOM     27  C   UNL     1       0.981  -2.184  -0.274  0.00  0.00    +0.101 C 
ATOM     28  N   UNL     1       0.897  -3.317  -0.256  0.00  0.00    -0.191 NA
ENDBRANCH  13  27
TORSDOF 5
