REMARK  Name = ZINC48324742
REMARK  7 active torsions:
REMARK  status: ('A' for Active; 'I' for Inactive)
REMARK    1  A    between atoms: C_1  and  N_2
REMARK    2  A    between atoms: N_5  and  C_8
REMARK    3  A    between atoms: C_8  and  C_10
REMARK    4  A    between atoms: C_8  and  C_30
REMARK    5  A    between atoms: C_10  and  N_11
REMARK    6  A    between atoms: C_12  and  C_14
REMARK    7  A    between atoms: C_14  and  N_15
REMARK                            x       y       z     vdW  Elec       q    Type
REMARK                         _______ _______ _______ _____ _____    ______ ____
ROOT
ATOM      1  N   UNL     1       1.379  -3.805   2.405  0.00  0.00    -0.312 N 
ATOM      2  C   UNL     1       1.854  -3.920   3.661  0.00  0.00    +0.231 C 
ATOM      3  O   UNL     1       2.917  -4.469   3.859  0.00  0.00    -0.274 OA
ATOM      4  H   UNL     1       0.529  -3.366   2.246  0.00  0.00    +0.149 HD
ENDROOT
BRANCH   1   5
ATOM      5  C   UNL     1       2.147  -4.343   1.279  0.00  0.00    +0.128 C 
BRANCH   5   6
ATOM      6  C   UNL     1       1.459  -3.965  -0.035  0.00  0.00    +0.110 C 
BRANCH   6  11
ATOM      7  C   UNL     1      -3.599  -6.311  -0.848  0.00  0.00    -0.096 C 
ATOM      8  N   UNL     1      -2.190  -5.902  -0.928  0.00  0.00    +0.379 N 
ATOM      9  C   UNL     1      -2.113  -4.449  -1.129  0.00  0.00    -0.064 C 
ATOM     10  C   UNL     1      -0.646  -4.026  -1.231  0.00  0.00    +0.066 C 
ATOM     11  N   UNL     1       0.058  -4.406   0.002  0.00  0.00    -0.297 NA
ATOM     12  C   UNL     1      -0.032  -5.855   0.229  0.00  0.00    +0.066 C 
ATOM     13  C   UNL     1      -1.504  -6.264   0.319  0.00  0.00    -0.064 C 
ATOM     14  H   UNL     1      -1.748  -6.372  -1.704  0.00  0.00    -0.082 HD
ENDBRANCH   6  11
BRANCH   6  15
ATOM     15  C   UNL     1       1.510  -2.470  -0.216  0.00  0.00    +0.008 A 
ATOM     16  C   UNL     1       2.351  -1.732  -0.982  0.00  0.00    +0.013 A 
ATOM     17  C   UNL     1       2.211  -0.357  -0.996  0.00  0.00    +0.008 A 
ATOM     18  C   UNL     1       1.239   0.213  -0.243  0.00  0.00    +0.045 A 
ATOM     19  S   UNL     1       0.476  -1.212   0.515  0.00  0.00    -0.100 S 
ENDBRANCH   6  15
ENDBRANCH   5   6
ENDBRANCH   1   5
BRANCH   2  20
ATOM     20  C   UNL     1       1.065  -3.366   4.819  0.00  0.00    +0.213 C 
BRANCH  20  21
ATOM     21  N   UNL     1       1.789  -3.616   6.067  0.00  0.00    -0.215 N 
ATOM     22  C   UNL     1       1.642  -4.727   6.822  0.00  0.00    +0.251 C 
ATOM     23  O   UNL     1       0.916  -5.673   6.605  0.00  0.00    -0.272 OA
ATOM     24  C   UNL     1       2.575  -4.539   7.989  0.00  0.00    +0.138 C 
ATOM     25  C   UNL     1       1.813  -4.561   9.320  0.00  0.00    +0.045 C 
ATOM     26  C   UNL     1       2.848  -5.194  10.278  0.00  0.00    +0.038 C 
ATOM     27  C   UNL     1       3.752  -6.026   9.392  0.00  0.00    -0.042 A 
ATOM     28  C   UNL     1       3.594  -5.644   8.070  0.00  0.00    -0.012 A 
ATOM     29  C   UNL     1       4.330  -6.274   7.081  0.00  0.00    +0.006 A 
ATOM     30  C   UNL     1       5.218  -7.281   7.407  0.00  0.00    +0.000 A 
ATOM     31  C   UNL     1       5.375  -7.662   8.727  0.00  0.00    +0.000 A 
ATOM     32  C   UNL     1       4.643  -7.034   9.716  0.00  0.00    +0.004 A 
ATOM     33  N   UNL     1       3.202  -3.238   7.755  0.00  0.00    -0.281 N 
ATOM     34  C   UNL     1       2.683  -2.773   6.601  0.00  0.00    +0.310 C 
ATOM     35  O   UNL     1       2.989  -1.708   6.102  0.00  0.00    -0.252 OA
ATOM     36  H   UNL     1       3.861  -2.800   8.316  0.00  0.00    +0.152 HD
ENDBRANCH  20  21
ENDBRANCH   2  20
TORSDOF 6
