REMARK  Name = ZINC38959775
REMARK  7 active torsions:
REMARK  status: ('A' for Active; 'I' for Inactive)
REMARK    1  A    between atoms: C_1  and  C_2
REMARK    2  A    between atoms: C_5  and  S_9
REMARK    3  A    between atoms: C_7  and  C_8
REMARK    4  A    between atoms: S_9  and  N_12
REMARK    5  A    between atoms: N_12  and  C_13
REMARK    6  A    between atoms: N_16  and  C_17
REMARK    7  A    between atoms: C_21  and  C_23
REMARK                            x       y       z     vdW  Elec       q    Type
REMARK                         _______ _______ _______ _____ _____    ______ ____
ROOT
ATOM      1  C   UNL     1       2.536  -4.673   1.351  0.00  0.00    +0.236 C 
ATOM      2  C   UNL     1       3.493  -5.840   1.251  0.00  0.00    +0.147 C 
ATOM      3  N   UNL     1       3.066  -7.067   1.433  0.00  0.00    -0.231 NA
ATOM      4  N   UNL     1       4.777  -5.605   0.974  0.00  0.00    -0.339 N 
ATOM      5  C   UNL     1       5.234  -4.382   0.786  0.00  0.00    +0.064 A 
ATOM      6  C   UNL     1       6.604  -4.172   0.494  0.00  0.00    +0.028 A 
ATOM      7  C   UNL     1       7.078  -2.921   0.301  0.00  0.00    +0.002 A 
ATOM      8  C   UNL     1       6.263  -1.781   0.375  0.00  0.00    +0.002 A 
ATOM      9  C   UNL     1       4.941  -1.870   0.647  0.00  0.00    +0.027 A 
ATOM     10  C   UNL     1       4.350  -3.196   0.871  0.00  0.00    +0.060 A 
ATOM     11  N   UNL     1       3.077  -3.322   1.135  0.00  0.00    -0.361 N 
ATOM     12  H   UNL     1       2.502  -2.542   1.188  0.00  0.00    +0.162 HD
ATOM     13  H   UNL     1       5.391  -6.353   0.910  0.00  0.00    +0.167 HD
ENDROOT
BRANCH   3  14
ATOM     14  C   UNL     1       3.954  -8.099   1.466  0.00  0.00    +0.067 A 
ATOM     15  C   UNL     1       5.020  -8.081   2.376  0.00  0.00    +0.028 A 
ATOM     16  C   UNL     1       5.919  -9.126   2.410  0.00  0.00    +0.003 A 
ATOM     17  C   UNL     1       5.778 -10.197   1.548  0.00  0.00    +0.015 A 
ATOM     18  C   UNL     1       4.720 -10.230   0.634  0.00  0.00    +0.065 A 
ATOM     19  C   UNL     1       3.802  -9.182   0.596  0.00  0.00    +0.043 A 
BRANCH  18  20
ATOM     20  C   UNL     1       4.572 -11.376  -0.284  0.00  0.00    +0.387 C 
ATOM     21  O   UNL     1       5.376 -12.297  -0.247  0.00  0.00    -0.241 OA
ATOM     22  O   UNL     1       3.647 -11.404  -1.083  0.00  0.00    -0.241 OA
ENDBRANCH  18  20
ENDBRANCH   3  14
BRANCH   1  23
ATOM     23  N   UNL     1       1.466  -4.888   0.374  0.00  0.00    -0.161 NA
ATOM     24  H   UNL     1       1.660  -5.323  -0.470  0.00  0.00    +0.151 HD
BRANCH  23  25
ATOM     25  S   UNL     1      -0.076  -4.387   0.713  0.00  0.00    +0.060 S 
ATOM     26  O   UNL     1      -0.383  -4.868   2.014  0.00  0.00    -0.153 OA
ATOM     27  O   UNL     1      -0.866  -4.708  -0.424  0.00  0.00    -0.153 OA
BRANCH  25  32
ATOM     28  C   UNL     1       0.041   1.634   1.084  0.00  0.00    +0.044 C 
ATOM     29  C   UNL     1       0.012   0.130   0.991  0.00  0.00    -0.047 A 
ATOM     30  C   UNL     1      -0.232  -0.483  -0.224  0.00  0.00    +0.005 A 
ATOM     31  C   UNL     1      -0.259  -1.862  -0.309  0.00  0.00    +0.029 A 
ATOM     32  C   UNL     1      -0.041  -2.629   0.821  0.00  0.00    +0.106 A 
ATOM     33  C   UNL     1       0.204  -2.016   2.035  0.00  0.00    +0.032 A 
ATOM     34  C   UNL     1       0.235  -0.636   2.119  0.00  0.00    -0.046 A 
ATOM     35  C   UNL     1       0.508   0.032   3.442  0.00  0.00    +0.044 C 
ENDBRANCH  25  32
ENDBRANCH  23  25
ENDBRANCH   1  23
TORSDOF 5
