REMARK  Name = ZINC49544329
REMARK  3 active torsions:
REMARK  status: ('A' for Active; 'I' for Inactive)
REMARK    1  A    between atoms: C_1  and  N_2
REMARK    2  A    between atoms: C_7  and  C_14
REMARK    3  A    between atoms: C_11  and  O_13
REMARK                            x       y       z     vdW  Elec       q    Type
REMARK                         _______ _______ _______ _____ _____    ______ ____
ROOT
ATOM      1  C   UNL     1      -0.018   1.461   0.010  0.00  0.00    +0.174 C 
ATOM      2  N   UNL     1       0.002  -0.004   0.002  0.00  0.00    -0.250 N 
ATOM      3  C   UNL     1       0.008  -0.807  -1.120  0.00  0.00    +0.159 A 
ATOM      4  C   UNL     1       0.019  -2.101  -0.674  0.00  0.00    +0.033 A 
ATOM      5  C   UNL     1       0.029  -2.070   0.732  0.00  0.00    +0.141 A 
ATOM      6  N   UNL     1       0.024  -0.828   1.127  0.00  0.00    -0.178 NA
ATOM      7  C   UNL     1       0.014  -3.384  -1.450  0.00  0.00    +0.112 C 
ATOM      8  S   UNL     1       0.904  -3.258  -3.006  0.00  0.00    -0.138 S 
ATOM      9  C   UNL     1      -0.041  -2.114  -4.021  0.00  0.00    +0.165 C 
ATOM     10  C   UNL     1       0.013  -0.721  -3.530  0.00  0.00    +0.199 C 
ATOM     11  N   UNL     1       0.009  -0.282  -2.357  0.00  0.00    -0.197 NA
ENDROOT
BRANCH   7  12
ATOM     12  C   UNL     1       0.652  -4.462  -0.613  0.00  0.00    -0.029 A 
ATOM     13  C   UNL     1       1.970  -4.310  -0.184  0.00  0.00    +0.007 A 
ATOM     14  C   UNL     1       2.576  -5.263   0.573  0.00  0.00    +0.028 A 
ATOM     15  C   UNL     1       1.867  -6.423   0.933  0.00  0.00    +0.071 A 
ATOM     16  C   UNL     1       0.528  -6.576   0.496  0.00  0.00    +0.001 A 
ATOM     17  C   UNL     1      -0.067  -5.568  -0.280  0.00  0.00    +0.015 A 
ATOM     18  C   UNL     1      -0.180  -7.737   0.857  0.00  0.00    +0.011 A 
ATOM     19  C   UNL     1       0.462  -8.672   1.619  0.00  0.00    +0.020 A 
ATOM     20  C   UNL     1       1.780  -8.460   2.015  0.00  0.00    +0.111 A 
ATOM     21  N   UNL     1       2.437  -7.377   1.677  0.00  0.00    -0.255 NA
ENDBRANCH   7  12
BRANCH  10  22
ATOM     22  O   UNL     1       0.074   0.222  -4.492  0.00  0.00    -0.495 OA
ATOM     23  H   UNL     1       0.108   1.127  -4.154  0.00  0.00    +0.293 HD
ENDBRANCH  10  22
TORSDOF 2
