REMARK  Name = ZINC37228460
REMARK  4 active torsions:
REMARK  status: ('A' for Active; 'I' for Inactive)
REMARK    1  A    between atoms: C_1  and  C_2
REMARK    2  A    between atoms: C_8  and  N_10
REMARK    3  A    between atoms: C_11  and  C_13
REMARK    4  A    between atoms: C_13  and  N_14
REMARK                            x       y       z     vdW  Elec       q    Type
REMARK                         _______ _______ _______ _____ _____    ______ ____
ROOT
ATOM      1  N   UNL     1       0.983   0.635   5.953  0.00  0.00    -0.215 N 
ATOM      2  C   UNL     1       1.245  -0.410   6.781  0.00  0.00    +0.251 C 
ATOM      3  O   UNL     1       0.877  -1.545   6.588  0.00  0.00    -0.272 OA
ATOM      4  C   UNL     1       2.067   0.179   7.884  0.00  0.00    +0.138 C 
ATOM      5  C   UNL     1       3.254  -0.636   8.318  0.00  0.00    +0.040 C 
ATOM      6  C   UNL     1       3.063  -2.120   8.304  0.00  0.00    +0.003 C 
ATOM      7  C   UNL     1       2.145  -2.648   9.384  0.00  0.00    +0.005 C 
ATOM      8  C   UNL     1       0.717  -2.126   9.248  0.00  0.00    +0.035 C 
ATOM      9  C   UNL     1       0.603  -0.701   9.740  0.00  0.00    -0.042 A 
ATOM     10  C   UNL     1       1.193   0.365   9.120  0.00  0.00    -0.012 A 
ATOM     11  C   UNL     1       1.018   1.652   9.602  0.00  0.00    +0.006 A 
ATOM     12  C   UNL     1       0.257   1.865  10.736  0.00  0.00    +0.000 A 
ATOM     13  C   UNL     1      -0.324   0.791  11.382  0.00  0.00    +0.000 A 
ATOM     14  C   UNL     1      -0.154  -0.487  10.889  0.00  0.00    +0.004 A 
ATOM     15  N   UNL     1       2.467   1.499   7.374  0.00  0.00    -0.281 N 
ATOM     16  C   UNL     1       1.727   1.702   6.266  0.00  0.00    +0.310 C 
ATOM     17  O   UNL     1       1.736   2.735   5.627  0.00  0.00    -0.252 OA
ATOM     18  H   UNL     1       3.128   2.093   7.757  0.00  0.00    +0.152 HD
ENDROOT
BRANCH   1  19
ATOM     19  C   UNL     1       0.033   0.579   4.842  0.00  0.00    +0.213 C 
BRANCH  19  21
ATOM     20  N   UNL     1       0.056  -0.038   2.447  0.00  0.00    -0.311 N 
ATOM     21  C   UNL     1       0.738   0.093   3.602  0.00  0.00    +0.231 C 
ATOM     22  O   UNL     1       1.919  -0.179   3.644  0.00  0.00    -0.274 OA
ATOM     23  H   UNL     1      -0.888   0.180   2.413  0.00  0.00    +0.149 HD
BRANCH  20  30
ATOM     24  C   UNL     1      -0.019   1.526   0.010  0.00  0.00    +0.009 C 
ATOM     25  C   UNL     1       0.002  -0.004   0.002  0.00  0.00    +0.006 C 
ATOM     26  C   UNL     1       0.718  -0.497  -1.257  0.00  0.00    +0.005 C 
ATOM     27  C   UNL     1       0.739  -2.027  -1.265  0.00  0.00    +0.000 C 
ATOM     28  C   UNL     1       1.479  -2.534  -0.026  0.00  0.00    +0.002 C 
ATOM     29  C   UNL     1       0.763  -2.041   1.233  0.00  0.00    +0.022 C 
ATOM     30  C   UNL     1       0.742  -0.511   1.242  0.00  0.00    +0.076 C 
ENDBRANCH  20  30
ENDBRANCH  19  21
ENDBRANCH   1  19
TORSDOF 3
