REMARK  Name = ZINC33270905
REMARK  8 active torsions:
REMARK  status: ('A' for Active; 'I' for Inactive)
REMARK    1  A    between atoms: C_5  and  C_7
REMARK    2  A    between atoms: C_10  and  S_13
REMARK    3  A    between atoms: S_13  and  C_14
REMARK    4  A    between atoms: C_14  and  C_15
REMARK    5  A    between atoms: C_17  and  C_20
REMARK    6  A    between atoms: C_20  and  C_21
REMARK    7  A    between atoms: C_21  and  C_22
REMARK    8  A    between atoms: N_24  and  C_25
REMARK                            x       y       z     vdW  Elec       q    Type
REMARK                         _______ _______ _______ _____ _____    ______ ____
ROOT
ATOM      1  C   UNL     1      -3.170   7.372   0.536  0.00  0.00    +0.182 A 
ATOM      2  N   UNL     1      -3.258   6.098   0.115  0.00  0.00    -0.195 NA
ATOM      3  C   UNL     1      -2.719   5.373   1.065  0.00  0.00    +0.228 A 
ATOM      4  O   UNL     1      -2.330   6.219   2.025  0.00  0.00    -0.338 OA
ATOM      5  N   UNL     1      -2.592   7.358   1.700  0.00  0.00    -0.060 NA
ENDROOT
BRANCH   1   6
ATOM      6  C   UNL     1      -3.653   8.592  -0.206  0.00  0.00    +0.157 C 
BRANCH   6   7
ATOM      7  S   UNL     1      -5.370   8.936   0.252  0.00  0.00    -0.079 S 
BRANCH   7  11
ATOM      8  C   UNL     1      -6.594  12.101  -1.685  0.00  0.00    +0.184 A 
ATOM      9  N   UNL     1      -6.833  11.077  -0.798  0.00  0.00    -0.201 NA
ATOM     10  H   UNL     1      -3.768  10.687  -1.772  0.00  0.00    +0.191 HD
ATOM     11  C   UNL     1      -5.668  10.367  -0.732  0.00  0.00    +0.185 A 
ATOM     12  N   UNL     1      -4.810  10.951  -1.539  0.00  0.00    -0.253 N 
ATOM     13  N   UNL     1      -5.354  11.973  -2.097  0.00  0.00    -0.152 NA
BRANCH   8  18
ATOM     14  C   UNL     1      -9.684  14.228  -1.857  0.00  0.00    +0.001 A 
ATOM     15  C   UNL     1      -9.349  15.110  -2.870  0.00  0.00    +0.001 A 
ATOM     16  C   UNL     1      -8.121  15.016  -3.499  0.00  0.00    +0.021 A 
ATOM     17  C   UNL     1      -7.218  14.044  -3.115  0.00  0.00    +0.052 A 
ATOM     18  C   UNL     1      -7.553  13.148  -2.098  0.00  0.00    +0.039 A 
ATOM     19  C   UNL     1      -8.794  13.249  -1.468  0.00  0.00    +0.013 A 
ATOM     20 CL   UNL     1      -5.673  13.933  -3.900  0.00  0.00    -0.083 Cl
ENDBRANCH   8  18
ENDBRANCH   7  11
ENDBRANCH   6   7
ENDBRANCH   1   6
BRANCH   3  21
ATOM     21  C   UNL     1      -2.571   3.874   1.077  0.00  0.00    +0.108 C 
BRANCH  21  22
ATOM     22  C   UNL     1      -1.233   3.488   0.443  0.00  0.00    +0.105 C 
BRANCH  22  23
ATOM     23  C   UNL     1      -1.085   1.989   0.455  0.00  0.00    +0.218 C 
ATOM     24  O   UNL     1      -1.963   1.296   0.924  0.00  0.00    -0.275 OA
ATOM     25  N   UNL     1       0.023   1.417  -0.056  0.00  0.00    -0.281 N 
ATOM     26  H   UNL     1       0.843   2.046  -0.434  0.00  0.00    +0.155 HD
BRANCH  25  27
ATOM     27  C   UNL     1       0.132   0.020  -0.107  0.00  0.00    +0.105 A 
ATOM     28  C   UNL     1       1.370  -0.589   0.057  0.00  0.00    +0.147 A 
ATOM     29  C   UNL     1       1.472  -1.968   0.012  0.00  0.00    +0.040 A 
ATOM     30  C   UNL     1       0.346  -2.739  -0.206  0.00  0.00    +0.006 A 
ATOM     31  C   UNL     1      -0.887  -2.137  -0.376  0.00  0.00    +0.040 A 
ATOM     32  C   UNL     1      -0.998  -0.759  -0.327  0.00  0.00    +0.147 A 
ATOM     33  F   UNL     1      -2.203  -0.171  -0.492  0.00  0.00    -0.203 F 
ATOM     34  F   UNL     1       2.472   0.164   0.265  0.00  0.00    -0.203 F 
ENDBRANCH  25  27
ENDBRANCH  22  23
ENDBRANCH  21  22
ENDBRANCH   3  21
TORSDOF 8
