REMARK  Name = ZINC37521565
REMARK  5 active torsions:
REMARK  status: ('A' for Active; 'I' for Inactive)
REMARK    1  A    between atoms: C_1  and  C_2
REMARK    2  A    between atoms: N_6  and  C_16
REMARK    3  A    between atoms: N_12  and  C_13
REMARK    4  A    between atoms: C_13  and  C_14
REMARK    5  A    between atoms: C_13  and  C_15
REMARK                            x       y       z     vdW  Elec       q    Type
REMARK                         _______ _______ _______ _____ _____    ______ ____
ROOT
ATOM      1  C   UNL     1      -0.110   1.739   1.002  0.00  0.00    +0.038 C 
ATOM      2  C   UNL     1      -0.118   0.327   0.413  0.00  0.00    +0.161 C 
ATOM      3  C   UNL     1      -1.500  -0.257   0.520  0.00  0.00    +0.240 C 
ATOM      4  O   UNL     1      -2.443   0.420   0.169  0.00  0.00    -0.273 OA
ATOM      5  N   UNL     1      -1.737  -1.485   0.984  0.00  0.00    -0.268 N 
ATOM      6  C   UNL     1      -0.718  -2.376   1.523  0.00  0.00    +0.132 C 
ATOM      7  C   UNL     1       0.670  -1.983   1.016  0.00  0.00    +0.129 C 
ATOM      8  N   UNL     1       0.820  -0.524   1.161  0.00  0.00    -0.273 N 
ATOM      9  C   UNL     1       1.775   0.009   1.948  0.00  0.00    +0.303 C 
ATOM     10  O   UNL     1       1.817   1.212   2.123  0.00  0.00    -0.253 OA
ATOM     11  N   UNL     1       2.684  -0.791   2.541  0.00  0.00    -0.297 N 
ATOM     12  H   UNL     1       2.608  -1.754   2.460  0.00  0.00    +0.150 HD
ENDROOT
BRANCH   5  13
ATOM     13  C   UNL     1      -3.056  -1.950   0.950  0.00  0.00    +0.037 A 
ATOM     14  C   UNL     1      -3.531  -2.611  -0.176  0.00  0.00    +0.023 A 
ATOM     15  C   UNL     1      -4.834  -3.070  -0.207  0.00  0.00    +0.003 A 
ATOM     16  C   UNL     1      -5.665  -2.872   0.880  0.00  0.00    +0.015 A 
ATOM     17  C   UNL     1      -5.195  -2.213   2.002  0.00  0.00    +0.020 A 
ATOM     18  C   UNL     1      -3.890  -1.758   2.042  0.00  0.00    +0.038 A 
ATOM     19 BR   UNL     1      -6.335  -1.944   3.487  0.00  0.00    -0.050 Br
ENDBRANCH   5  13
BRANCH  11  20
ATOM     20  C   UNL     1       3.787  -0.204   3.306  0.00  0.00    +0.068 C 
ATOM     21  C   UNL     1       3.321   0.080   4.736  0.00  0.00    +0.027 C 
ATOM     22  C   UNL     1       4.963  -1.183   3.338  0.00  0.00    +0.027 C 
ENDBRANCH  11  20
TORSDOF 2
