REMARK  Name = ZINC03011238
REMARK  4 active torsions:
REMARK  status: ('A' for Active; 'I' for Inactive)
REMARK    1  A    between atoms: C_6  and  C_7
REMARK    2  A    between atoms: C_10  and  C_29
REMARK    3  A    between atoms: C_15  and  C_17
REMARK    4  A    between atoms: N_19  and  C_20
REMARK                            x       y       z     vdW  Elec       q    Type
REMARK                         _______ _______ _______ _____ _____    ______ ____
ROOT
ATOM      1  C   UNL     1      -1.337  -0.803   0.019  0.00  0.00    +0.104 C 
ATOM      2  C   UNL     1      -1.901  -0.844   1.443  0.00  0.00    +0.063 C 
ATOM      3  C   UNL     1      -2.069   0.582   1.980  0.00  0.00    +0.215 C 
ATOM      4  N   UNL     1      -2.795   1.379   0.987  0.00  0.00    -0.238 N 
ATOM      5  C   UNL     1      -2.901   1.035  -0.331  0.00  0.00    +0.119 A 
ATOM      6  C   UNL     1      -3.632   1.980  -0.954  0.00  0.00    +0.078 A 
ATOM      7  C   UNL     1      -3.991   2.948   0.012  0.00  0.00    +0.149 A 
ATOM      8  N   UNL     1      -3.483   2.578   1.174  0.00  0.00    -0.164 NA
ATOM      9  N   UNL     1      -2.312  -0.123  -0.857  0.00  0.00    -0.322 N 
ATOM     10  H   UNL     1      -2.532  -0.460  -1.740  0.00  0.00    +0.148 HD
ENDROOT
BRANCH   1  16
ATOM     11  C   UNL     1      -0.044   1.339   0.018  0.00  0.00    +0.009 A 
ATOM     12  C   UNL     1       1.148   2.040   0.011  0.00  0.00    +0.050 A 
ATOM     13  C   UNL     1       2.354   1.359  -0.003  0.00  0.00    +0.166 A 
ATOM     14  C   UNL     1       2.362  -0.034  -0.009  0.00  0.00    +0.167 A 
ATOM     15  C   UNL     1       1.164  -0.730  -0.003  0.00  0.00    +0.055 A 
ATOM     16  C   UNL     1      -0.035  -0.043   0.011  0.00  0.00    -0.024 A 
ATOM     17  O   UNL     1       3.658  -0.463  -0.023  0.00  0.00    -0.453 OA
ATOM     18  C   UNL     1       4.435   0.677  -0.436  0.00  0.00    +0.466 C 
ATOM     19  O   UNL     1       3.644   1.803  -0.012  0.00  0.00    -0.453 OA
ENDBRANCH   1  16
BRANCH   7  20
ATOM     20  C   UNL     1      -4.795   4.162  -0.235  0.00  0.00    +0.268 C 
ATOM     21  O   UNL     1      -5.210   4.399  -1.353  0.00  0.00    -0.268 OA
ATOM     22  N   UNL     1      -5.067   5.008   0.778  0.00  0.00    -0.279 N 
ATOM     23  H   UNL     1      -4.792   4.786   1.682  0.00  0.00    +0.155 HD
BRANCH  22  24
ATOM     24  C   UNL     1      -5.748   6.205   0.527  0.00  0.00    +0.052 A 
ATOM     25  C   UNL     1      -6.730   6.254  -0.454  0.00  0.00    +0.026 A 
ATOM     26  C   UNL     1      -7.400   7.436  -0.699  0.00  0.00    +0.022 A 
ATOM     27  C   UNL     1      -7.095   8.572   0.031  0.00  0.00    +0.042 A 
ATOM     28  C   UNL     1      -6.117   8.526   1.009  0.00  0.00    +0.041 A 
ATOM     29  C   UNL     1      -5.446   7.344   1.263  0.00  0.00    +0.064 A 
ATOM     30 CL   UNL     1      -4.224   7.285   2.495  0.00  0.00    -0.082 Cl
ATOM     31 CL   UNL     1      -7.939  10.056  -0.281  0.00  0.00    -0.083 Cl
ENDBRANCH  22  24
ENDBRANCH   7  20
BRANCH   3  32
ATOM     32  C   UNL     1      -2.860   0.546   3.289  0.00  0.00    +0.412 C 
ATOM     33  F   UNL     1      -2.170  -0.226   4.230  0.00  0.00    -0.168 F 
ATOM     34  F   UNL     1      -3.013   1.848   3.777  0.00  0.00    -0.168 F 
ATOM     35  F   UNL     1      -4.120  -0.016   3.058  0.00  0.00    -0.168 F 
ENDBRANCH   3  32
TORSDOF 4
