REMARK  Name = ZINC06077702
REMARK  13 active torsions:
REMARK  status: ('A' for Active; 'I' for Inactive)
REMARK    1  A    between atoms: C_1  and  C_2
REMARK    2  A    between atoms: C_2  and  C_3
REMARK    3  A    between atoms: C_3  and  C_4
REMARK    4  A    between atoms: C_3  and  C_5
REMARK    5  A    between atoms: C_3  and  N_6
REMARK    6  A    between atoms: C_7  and  C_11
REMARK    7  A    between atoms: C_11  and  C_13
REMARK    8  A    between atoms: C_11  and  N_77
REMARK    9  A    between atoms: C_17  and  C_26
REMARK   10  A    between atoms: C_19  and  C_25
REMARK   11  A    between atoms: N_29  and  C_32
REMARK   12  A    between atoms: C_34  and  C_39
REMARK   13  A    between atoms: C_37  and  C_38
REMARK                            x       y       z     vdW  Elec       q    Type
REMARK                         _______ _______ _______ _____ _____    ______ ____
ROOT
ATOM      1  C   UNL     1       5.753   7.346  -0.536  0.00  0.00    +0.039 C 
ENDROOT
BRANCH   1   2
ATOM      2  C   UNL     1       5.976   8.538  -1.431  0.00  0.00    +0.011 A 
ATOM      3  C   UNL     1       7.133   8.651  -2.129  0.00  0.00    +0.017 A 
ATOM      4  C   UNL     1       7.319   9.821  -2.990  0.00  0.00    -0.001 A 
ATOM      5  C   UNL     1       8.491   9.992  -3.734  0.00  0.00    +0.013 A 
ATOM      6  C   UNL     1       8.634  11.095  -4.528  0.00  0.00    -0.050 A 
ATOM      7  C   UNL     1       7.626  12.047  -4.603  0.00  0.00    +0.008 A 
ATOM      8  C   UNL     1       6.463  11.898  -3.879  0.00  0.00    -0.026 A 
ATOM      9  C   UNL     1       6.295  10.784  -3.063  0.00  0.00    +0.052 A 
ATOM     10  N   UNL     1       5.142  10.609  -2.328  0.00  0.00    -0.322 N 
ATOM     11  H   UNL     1       4.417  11.296  -2.379  0.00  0.00    +0.169 HD
ATOM     12  C   UNL     1       4.978   9.529  -1.545  0.00  0.00    +0.251 A 
ATOM     13  O   UNL     1       3.943   9.405  -0.913  0.00  0.00    -0.268 OA
ATOM     14  C   UNL     1       5.377  12.939  -3.970  0.00  0.00    +0.046 C 
ATOM     15  C   UNL     1       9.897  11.280  -5.329  0.00  0.00    +0.044 C 
ENDBRANCH   1   2
BRANCH   1  21
ATOM     16  C   UNL     1       4.626   6.014  -2.216  0.00  0.00    -0.058 C 
ATOM     17  C   UNL     1       3.278   5.402  -2.607  0.00  0.00    +0.086 C 
ATOM     18  N   UNL     1       2.858   4.449  -1.571  0.00  0.00    -0.333 N 
ATOM     19  C   UNL     1       2.731   5.114  -0.267  0.00  0.00    +0.086 C 
ATOM     20  C   UNL     1       4.078   5.726   0.124  0.00  0.00    -0.058 C 
ATOM     21  N   UNL     1       4.478   6.699  -0.914  0.00  0.00    +0.391 N 
ATOM     22  H   UNL     1       3.750   7.418  -0.996  0.00  0.00    -0.080 HD
BRANCH  18  23
ATOM     23  C   UNL     1       1.665   3.815  -1.928  0.00  0.00    +0.033 A 
ATOM     24  C   UNL     1       0.516   4.566  -2.145  0.00  0.00    +0.026 A 
ATOM     25  C   UNL     1      -0.661   3.936  -2.498  0.00  0.00    -0.049 A 
ATOM     26  C   UNL     1      -0.696   2.561  -2.640  0.00  0.00    +0.004 A 
ATOM     27  C   UNL     1       0.444   1.811  -2.419  0.00  0.00    +0.005 A 
ATOM     28  C   UNL     1       1.625   2.434  -2.066  0.00  0.00    -0.029 A 
ATOM     29  C   UNL     1       2.869   1.616  -1.832  0.00  0.00    +0.045 C 
ATOM     30  C   UNL     1      -1.908   4.750  -2.734  0.00  0.00    +0.044 C 
ENDBRANCH  18  23
ENDBRANCH   1  21
BRANCH   1  32
ATOM     31  N   UNL     1       6.566   7.562   1.871  0.00  0.00    -0.225 N 
ATOM     32  C   UNL     1       5.669   7.803   0.897  0.00  0.00    +0.143 A 
ATOM     33  N   UNL     1       4.706   8.508   1.439  0.00  0.00    -0.115 NA
ATOM     34  N   UNL     1       4.998   8.694   2.680  0.00  0.00    -0.023 NA
ATOM     35  N   UNL     1       6.124   8.127   2.943  0.00  0.00    -0.043 NA
BRANCH  31  36
ATOM     36  C   UNL     1       7.813   6.804   1.738  0.00  0.00    +0.061 C 
ATOM     37  C   UNL     1       7.491   5.351   1.386  0.00  0.00    +0.036 C 
ATOM     38  C   UNL     1       8.668   7.420   0.629  0.00  0.00    +0.036 C 
BRANCH  36  40
ATOM     39  C   UNL     1       9.883   6.059   2.921  0.00  0.00    +0.006 C 
ATOM     40  C   UNL     1       8.582   6.850   3.060  0.00  0.00    +0.026 C 
ENDBRANCH  36  40
ENDBRANCH  31  36
ENDBRANCH   1  32
TORSDOF 6
