REMARK  Name = ZINC33270909
REMARK  8 active torsions:
REMARK  status: ('A' for Active; 'I' for Inactive)
REMARK    1  A    between atoms: C_4  and  N_8
REMARK    2  A    between atoms: C_9  and  C_11
REMARK    3  A    between atoms: C_11  and  C_12
REMARK    4  A    between atoms: C_12  and  C_13
REMARK    5  A    between atoms: C_15  and  C_18
REMARK    6  A    between atoms: C_18  and  S_19
REMARK    7  A    between atoms: S_19  and  C_20
REMARK    8  A    between atoms: C_23  and  C_26
REMARK                            x       y       z     vdW  Elec       q    Type
REMARK                         _______ _______ _______ _____ _____    ______ ____
ROOT
ATOM      1  C   UNL     1       1.482  -1.672  -2.087  0.00  0.00    +0.228 A 
ATOM      2  N   UNL     1       1.917  -0.868  -1.147  0.00  0.00    -0.195 NA
ATOM      3  C   UNL     1       2.943  -0.192  -1.695  0.00  0.00    +0.182 A 
ATOM      4  N   UNL     1       3.076  -0.611  -2.918  0.00  0.00    -0.060 NA
ATOM      5  O   UNL     1       2.246  -1.462  -3.163  0.00  0.00    -0.338 OA
ENDROOT
BRANCH   1   6
ATOM      6  C   UNL     1       0.337  -2.645  -1.976  0.00  0.00    +0.108 C 
BRANCH   6   7
ATOM      7  C   UNL     1      -0.964  -1.953  -2.388  0.00  0.00    +0.105 C 
BRANCH   7   9
ATOM      8  N   UNL     1      -3.359  -2.536  -2.591  0.00  0.00    -0.281 N 
ATOM      9  C   UNL     1      -2.108  -2.927  -2.277  0.00  0.00    +0.218 C 
ATOM     10  O   UNL     1      -1.904  -4.063  -1.904  0.00  0.00    -0.275 OA
ATOM     11  H   UNL     1      -3.558  -1.485  -2.850  0.00  0.00    +0.155 HD
BRANCH   8  15
ATOM     12  C   UNL     1      -6.477  -5.307  -2.586  0.00  0.00    +0.006 A 
ATOM     13  C   UNL     1      -6.192  -4.588  -1.440  0.00  0.00    +0.040 A 
ATOM     14  C   UNL     1      -5.159  -3.668  -1.438  0.00  0.00    +0.147 A 
ATOM     15  C   UNL     1      -4.406  -3.467  -2.589  0.00  0.00    +0.105 A 
ATOM     16  C   UNL     1      -4.699  -4.189  -3.740  0.00  0.00    +0.147 A 
ATOM     17  C   UNL     1      -5.731  -5.111  -3.733  0.00  0.00    +0.040 A 
ATOM     18  F   UNL     1      -3.974  -3.994  -4.864  0.00  0.00    -0.203 F 
ATOM     19  F   UNL     1      -4.881  -2.965  -0.318  0.00  0.00    -0.203 F 
ENDBRANCH   8  15
ENDBRANCH   7   9
ENDBRANCH   6   7
ENDBRANCH   1   6
BRANCH   3  20
ATOM     20  C   UNL     1       3.783   0.859  -1.016  0.00  0.00    +0.157 C 
BRANCH  20  21
ATOM     21  S   UNL     1       5.200   0.071  -0.212  0.00  0.00    -0.079 S 
BRANCH  21  22
ATOM     22  C   UNL     1       5.986   1.488   0.480  0.00  0.00    +0.185 A 
ATOM     23  N   UNL     1       7.132   1.497   1.223  0.00  0.00    -0.201 NA
ATOM     24  H   UNL     1       4.697   3.148  -0.134  0.00  0.00    +0.191 HD
ATOM     25  C   UNL     1       7.359   2.817   1.539  0.00  0.00    +0.182 A 
ATOM     26  N   UNL     1       6.388   3.515   0.998  0.00  0.00    -0.152 NA
ATOM     27  N   UNL     1       5.578   2.733   0.378  0.00  0.00    -0.253 N 
BRANCH  25  28
ATOM     28  C   UNL     1       8.485   3.348   2.336  0.00  0.00    +0.021 A 
ATOM     29  C   UNL     1       9.452   2.481   2.848  0.00  0.00    +0.013 A 
ATOM     30  C   UNL     1      10.502   2.983   3.588  0.00  0.00    +0.021 A 
ATOM     31  C   UNL     1      10.593   4.343   3.832  0.00  0.00    +0.041 A 
ATOM     32  C   UNL     1       9.634   5.208   3.331  0.00  0.00    +0.021 A 
ATOM     33  C   UNL     1       8.582   4.718   2.586  0.00  0.00    +0.013 A 
ATOM     34 CL   UNL     1      11.914   4.967   4.770  0.00  0.00    -0.084 Cl
ENDBRANCH  25  28
ENDBRANCH  21  22
ENDBRANCH  20  21
ENDBRANCH   3  20
TORSDOF 8
