REMARK  Name = ZINC14920351
REMARK  5 active torsions:
REMARK  status: ('A' for Active; 'I' for Inactive)
REMARK    1  A    between atoms: C_8  and  C_27
REMARK    2  A    between atoms: C_9  and  N_10
REMARK    3  A    between atoms: C_11  and  C_12
REMARK    4  A    between atoms: C_15  and  C_17
REMARK    5  A    between atoms: C_19  and  N_24
REMARK                            x       y       z     vdW  Elec       q    Type
REMARK                         _______ _______ _______ _____ _____    ______ ____
ROOT
ATOM      1  C   UNL     1      -0.017   1.381   0.010  0.00  0.00    +0.005 A 
ATOM      2  C   UNL     1       1.188   2.083   0.002  0.00  0.00    +0.018 A 
ATOM      3  C   UNL     1       2.367   1.404  -0.013  0.00  0.00    +0.095 A 
ATOM      4  N   UNL     1       2.388   0.046  -0.021  0.00  0.00    -0.284 N 
ATOM      5  C   UNL     1       1.229  -0.676  -0.013  0.00  0.00    +0.140 A 
ATOM      6  C   UNL     1       0.002  -0.004   0.002  0.00  0.00    +0.047 A 
ATOM      7  N   UNL     1       1.501  -1.992  -0.022  0.00  0.00    -0.226 NA
ATOM      8  C   UNL     1       2.801  -2.196  -0.035  0.00  0.00    +0.117 A 
ATOM      9  C   UNL     1       3.442  -0.861  -0.035  0.00  0.00    +0.166 A 
ENDROOT
BRANCH   8  10
ATOM     10  C   UNL     1       3.488  -3.501  -0.048  0.00  0.00    +0.022 A 
ATOM     11  C   UNL     1       4.886  -3.561  -0.055  0.00  0.00    +0.013 A 
ATOM     12  C   UNL     1       5.520  -4.783  -0.066  0.00  0.00    +0.021 A 
ATOM     13  C   UNL     1       4.777  -5.954  -0.071  0.00  0.00    +0.042 A 
ATOM     14  C   UNL     1       3.393  -5.905  -0.065  0.00  0.00    +0.040 A 
ATOM     15  C   UNL     1       2.744  -4.687  -0.047  0.00  0.00    +0.052 A 
ATOM     16 CL   UNL     1       1.009  -4.626  -0.032  0.00  0.00    -0.083 Cl
ATOM     17 CL   UNL     1       5.587  -7.490  -0.087  0.00  0.00    -0.083 Cl
ENDBRANCH   8  10
BRANCH   9  18
ATOM     18  N   UNL     1       4.731  -0.591  -0.045  0.00  0.00    -0.232 NA
ATOM     19  C   UNL     1       5.395  -0.460   1.105  0.00  0.00    +0.159 C 
BRANCH  19  20
ATOM     20  C   UNL     1       6.755  -0.175   1.093  0.00  0.00    +0.147 A 
ATOM     21  C   UNL     1       7.575  -0.017   2.225  0.00  0.00    +0.051 A 
ATOM     22  C   UNL     1       8.846   0.255   1.762  0.00  0.00    +0.050 A 
ATOM     23  C   UNL     1       8.784   0.259   0.368  0.00  0.00    +0.137 A 
ATOM     24  O   UNL     1       7.521  -0.007  -0.007  0.00  0.00    -0.454 OA
BRANCH  23  25
ATOM     25  C   UNL     1       9.913   0.506  -0.540  0.00  0.00    +0.038 A 
ATOM     26  C   UNL     1      10.169  -0.372  -1.601  0.00  0.00    +0.045 A 
ATOM     27  C   UNL     1      11.229  -0.133  -2.448  0.00  0.00    +0.127 A 
ATOM     28  C   UNL     1      12.042   0.972  -2.252  0.00  0.00    +0.034 A 
ATOM     29  C   UNL     1      11.798   1.845  -1.207  0.00  0.00    +0.023 A 
ATOM     30  C   UNL     1      10.737   1.625  -0.352  0.00  0.00    +0.052 A 
ATOM     31 CL   UNL     1      10.428   2.724   0.955  0.00  0.00    -0.083 Cl
BRANCH  27  32
ATOM     32  N   UNL     1      11.501  -1.059  -3.570  0.00  0.00    +0.056 N 
ATOM     33  O   UNL     1      10.730  -2.110  -3.757  0.00  0.00    -0.126 OA
ATOM     34  O   UNL     1      12.514  -0.832  -4.380  0.00  0.00    -0.126 OA
ENDBRANCH  27  32
ENDBRANCH  23  25
ENDBRANCH  19  20
ENDBRANCH   9  18
TORSDOF 5
