REMARK  Name = ZINC28213447
REMARK  11 active torsions:
REMARK  status: ('A' for Active; 'I' for Inactive)
REMARK    1  A    between atoms: C_1  and  S_2
REMARK    2  A    between atoms: S_2  and  N_5
REMARK    3  A    between atoms: N_5  and  C_6
REMARK    4  A    between atoms: N_5  and  C_30
REMARK    5  A    between atoms: C_6  and  C_7
REMARK    6  A    between atoms: N_9  and  N_10
REMARK    7  A    between atoms: C_11  and  C_12
REMARK    8  A    between atoms: C_15  and  O_18
REMARK    9  A    between atoms: O_18  and  C_19
REMARK   10  A    between atoms: C_19  and  C_20
REMARK   11  A    between atoms: N_22  and  C_23
REMARK                            x       y       z     vdW  Elec       q    Type
REMARK                         _______ _______ _______ _____ _____    ______ ____
ROOT
ATOM      1  N   UNL     1       3.719  -3.932  -0.005  0.00  0.00    -0.188 NA
ATOM      2  C   UNL     1       4.877  -4.517  -0.052  0.00  0.00    +0.138 C 
ENDROOT
BRANCH   2   3
ATOM      3  C   UNL     1       4.974  -5.975   0.138  0.00  0.00    -0.005 A 
ATOM      4  C   UNL     1       3.820  -6.731   0.363  0.00  0.00    +0.013 A 
ATOM      5  C   UNL     1       3.916  -8.095   0.539  0.00  0.00    +0.046 A 
ATOM      6  C   UNL     1       5.157  -8.717   0.494  0.00  0.00    +0.121 A 
ATOM      7  C   UNL     1       6.306  -7.970   0.270  0.00  0.00    +0.046 A 
ATOM      8  C   UNL     1       6.219  -6.607   0.087  0.00  0.00    +0.013 A 
BRANCH   6   9
ATOM      9  O   UNL     1       5.246 -10.062   0.668  0.00  0.00    -0.483 OA
BRANCH   9  10
ATOM     10  C   UNL     1       6.553 -10.638   0.609  0.00  0.00    +0.324 C 
BRANCH  10  11
ATOM     11  C   UNL     1       6.455 -12.127   0.823  0.00  0.00    +0.255 C 
ATOM     12  O   UNL     1       5.373 -12.643   1.008  0.00  0.00    -0.272 OA
ATOM     13  N   UNL     1       7.570 -12.884   0.809  0.00  0.00    -0.283 N 
ATOM     14  H   UNL     1       8.441 -12.464   0.730  0.00  0.00    +0.155 HD
BRANCH  13  15
ATOM     15  C   UNL     1       7.471 -14.277   0.909  0.00  0.00    +0.034 A 
ATOM     16  C   UNL     1       8.462 -14.999   1.561  0.00  0.00    +0.026 A 
ATOM     17  C   UNL     1       8.363 -16.373   1.658  0.00  0.00    +0.040 A 
ATOM     18  C   UNL     1       7.277 -17.031   1.107  0.00  0.00    +0.124 A 
ATOM     19  C   UNL     1       6.287 -16.313   0.456  0.00  0.00    +0.040 A 
ATOM     20  C   UNL     1       6.380 -14.938   0.362  0.00  0.00    +0.026 A 
ATOM     21  F   UNL     1       7.182 -18.375   1.202  0.00  0.00    -0.205 F 
ENDBRANCH  13  15
ENDBRANCH  10  11
ENDBRANCH   9  10
ENDBRANCH   6   9
ENDBRANCH   2   3
BRANCH   1  24
ATOM     22  C   UNL     1       2.424  -1.938  -0.136  0.00  0.00    +0.251 C 
ATOM     23  O   UNL     1       1.422  -2.592   0.064  0.00  0.00    -0.272 OA
ATOM     24  N   UNL     1       3.627  -2.546  -0.186  0.00  0.00    -0.206 N 
ATOM     25  H   UNL     1       4.428  -2.023  -0.346  0.00  0.00    +0.177 HD
BRANCH  22  26
ATOM     26  C   UNL     1       2.325  -0.447  -0.331  0.00  0.00    +0.228 C 
BRANCH  26  27
ATOM     27  N   UNL     1       0.923  -0.034  -0.233  0.00  0.00    -0.199 N 
BRANCH  27  28
ATOM     28  C   UNL     1       0.094  -0.101  -1.357  0.00  0.00    +0.052 A 
ATOM     29  C   UNL     1       0.410   0.624  -2.498  0.00  0.00    +0.027 A 
ATOM     30  C   UNL     1      -0.409   0.556  -3.608  0.00  0.00    +0.040 A 
ATOM     31  C   UNL     1      -1.546  -0.234  -3.583  0.00  0.00    +0.124 A 
ATOM     32  C   UNL     1      -1.863  -0.958  -2.446  0.00  0.00    +0.040 A 
ATOM     33  C   UNL     1      -1.044  -0.897  -1.336  0.00  0.00    +0.027 A 
ATOM     34  F   UNL     1      -2.346  -0.298  -4.669  0.00  0.00    -0.205 F 
ENDBRANCH  27  28
BRANCH  27  36
ATOM     35  C   UNL     1       0.744   2.274   1.256  0.00  0.00    +0.218 C 
ATOM     36  S   UNL     1       0.319   0.511   1.210  0.00  0.00    +0.043 S 
ATOM     37  O   UNL     1       1.053  -0.195   2.200  0.00  0.00    -0.155 OA
ATOM     38  O   UNL     1      -1.088   0.350   1.098  0.00  0.00    -0.155 OA
ENDBRANCH  27  36
ENDBRANCH  26  27
ENDBRANCH  22  26
ENDBRANCH   1  24
TORSDOF 10
