REMARK  Name = ZINC08961029
REMARK  8 active torsions:
REMARK  status: ('A' for Active; 'I' for Inactive)
REMARK    1  A    between atoms: C_1  and  C_2
REMARK    2  A    between atoms: C_4  and  C_31
REMARK    3  A    between atoms: C_5  and  C_30
REMARK    4  A    between atoms: C_6  and  S_9
REMARK    5  A    between atoms: C_7  and  C_8
REMARK    6  A    between atoms: S_9  and  N_12
REMARK    7  A    between atoms: N_12  and  C_13
REMARK    8  A    between atoms: N_21  and  C_29
REMARK                            x       y       z     vdW  Elec       q    Type
REMARK                         _______ _______ _______ _____ _____    ______ ____
ROOT
ATOM      1  C   UNL     1       2.350   5.241   3.138  0.00  0.00    +0.049 A 
ATOM      2  C   UNL     1       1.016   5.566   2.916  0.00  0.00    +0.028 A 
ATOM      3  C   UNL     1       0.363   5.097   1.794  0.00  0.00    +0.049 A 
ATOM      4  C   UNL     1       1.033   4.298   0.878  0.00  0.00    +0.141 A 
ATOM      5  C   UNL     1       2.381   3.986   1.081  0.00  0.00    +0.081 A 
ATOM      6  C   UNL     1       3.034   4.454   2.226  0.00  0.00    +0.041 A 
ATOM      7  C   UNL     1       3.127   3.202   0.088  0.00  0.00    +0.254 C 
ATOM      8  O   UNL     1       4.282   3.515  -0.125  0.00  0.00    -0.270 OA
ATOM      9  N   UNL     1       2.634   2.177  -0.595  0.00  0.00    -0.267 N 
ATOM     10  C   UNL     1       1.345   1.657  -0.484  0.00  0.00    +0.079 A 
ATOM     11  C   UNL     1       1.170   0.278  -0.552  0.00  0.00    +0.027 A 
ATOM     12  C   UNL     1      -0.098  -0.266  -0.499  0.00  0.00    +0.002 A 
ATOM     13  C   UNL     1      -1.202   0.557  -0.377  0.00  0.00    +0.004 A 
ATOM     14  C   UNL     1      -1.036   1.927  -0.296  0.00  0.00    +0.048 A 
ATOM     15  C   UNL     1       0.236   2.480  -0.338  0.00  0.00    +0.150 A 
ATOM     16  O   UNL     1       0.373   3.823  -0.204  0.00  0.00    -0.453 OA
ATOM     17  C   UNL     1       3.529   1.529  -1.557  0.00  0.00    +0.139 C 
ENDROOT
BRANCH   1  18
ATOM     18  N   UNL     1       3.003   5.710   4.283  0.00  0.00    -0.216 N 
ATOM     19  H   UNL     1       3.545   5.106   4.814  0.00  0.00    +0.174 HD
BRANCH  18  20
ATOM     20  S   UNL     1       2.850   7.296   4.732  0.00  0.00    +0.073 S 
ATOM     21  O   UNL     1       3.636   7.465   5.904  0.00  0.00    -0.150 OA
ATOM     22  O   UNL     1       3.056   8.072   3.559  0.00  0.00    -0.150 OA
BRANCH  20  28
ATOM     23  C   UNL     1      -1.880   9.386   3.971  0.00  0.00    +0.044 C 
ATOM     24  C   UNL     1      -0.975   8.526   4.814  0.00  0.00    -0.045 A 
ATOM     25  C   UNL     1      -1.460   7.930   5.963  0.00  0.00    +0.007 A 
ATOM     26  C   UNL     1      -0.629   7.140   6.736  0.00  0.00    -0.045 A 
ATOM     27  C   UNL     1       0.687   6.947   6.360  0.00  0.00    -0.021 A 
ATOM     28  C   UNL     1       1.172   7.543   5.211  0.00  0.00    +0.115 A 
ATOM     29  C   UNL     1       0.343   8.337   4.441  0.00  0.00    -0.021 A 
ATOM     30  C   UNL     1       0.874   8.992   3.192  0.00  0.00    +0.046 C 
ATOM     31  C   UNL     1       1.592   6.086   7.203  0.00  0.00    +0.046 C 
ATOM     32  C   UNL     1      -1.159   6.491   7.989  0.00  0.00    +0.044 C 
ENDBRANCH  20  28
ENDBRANCH  18  20
ENDBRANCH   1  18
TORSDOF 3
