REMARK  Name = ZINC00670795
REMARK  8 active torsions:
REMARK  status: ('A' for Active; 'I' for Inactive)
REMARK    1  A    between atoms: C_1  and  C_2
REMARK    2  A    between atoms: C_7  and  O_8
REMARK    3  A    between atoms: O_8  and  C_9
REMARK    4  A    between atoms: C_9  and  C_11
REMARK    5  A    between atoms: C_9  and  C_12
REMARK    6  A    between atoms: N_14  and  C_15
REMARK    7  A    between atoms: C_16  and  C_26
REMARK    8  A    between atoms: C_21  and  C_25
REMARK                            x       y       z     vdW  Elec       q    Type
REMARK                         _______ _______ _______ _____ _____    ______ ____
ROOT
ATOM      1  C   UNL     1       5.841   1.340  -4.029  0.00  0.00    +0.258 C 
ATOM      2  O   UNL     1       6.228   1.432  -2.883  0.00  0.00    -0.271 OA
ATOM      3  N   UNL     1       4.520   1.320  -4.295  0.00  0.00    -0.276 N 
ATOM      4  H   UNL     1       4.211   1.246  -5.212  0.00  0.00    +0.155 HD
ENDROOT
BRANCH   3   5
ATOM      5  C   UNL     1       3.603   1.405  -3.259  0.00  0.00    +0.084 A 
ATOM      6  C   UNL     1       2.217   1.401  -3.332  0.00  0.00    +0.068 A 
ATOM      7  C   UNL     1       1.479   1.503  -2.084  0.00  0.00    -0.023 A 
ATOM      8  C   UNL     1       2.239   1.592  -0.972  0.00  0.00    -0.004 A 
ATOM      9  S   UNL     1       3.909   1.543  -1.559  0.00  0.00    -0.077 S 
ATOM     10  C   UNL     1       1.760   1.707   0.443  0.00  0.00    +0.046 C 
ATOM     11  C   UNL     1       0.271   1.333   0.481  0.00  0.00    -0.009 C 
ATOM     12  C   UNL     1      -0.455   2.082  -0.640  0.00  0.00    +0.008 C 
ATOM     13  C   UNL     1      -0.042   1.513  -1.998  0.00  0.00    +0.037 C 
ATOM     14  C   UNL     1      -0.322   1.728   1.835  0.00  0.00    +0.008 C 
BRANCH   6  15
ATOM     15  C   UNL     1       1.524   1.296  -4.619  0.00  0.00    +0.244 C 
ATOM     16  O   UNL     1       1.235   0.202  -5.068  0.00  0.00    -0.270 OA
ATOM     17  N   UNL     1       1.206   2.412  -5.306  0.00  0.00    -0.325 N 
ATOM     18  H   UNL     1       1.436   3.283  -4.948  0.00  0.00    +0.145 HD
ATOM     19  H   UNL     1       0.747   2.342  -6.158  0.00  0.00    +0.145 HD
ENDBRANCH   6  15
ENDBRANCH   3   5
BRANCH   1  20
ATOM     20  C   UNL     1       6.839   1.247  -5.155  0.00  0.00    +0.256 C 
ATOM     21  C   UNL     1       6.633  -0.067  -5.911  0.00  0.00    +0.062 C 
BRANCH  20  22
ATOM     22  O   UNL     1       8.164   1.288  -4.622  0.00  0.00    -0.480 OA
BRANCH  22  29
ATOM     23  C   UNL     1      10.743   1.615  -3.518  0.00  0.00    +0.047 C 
ATOM     24  C   UNL     1      10.434   1.913  -4.962  0.00  0.00    -0.007 A 
ATOM     25  C   UNL     1      11.434   2.360  -5.805  0.00  0.00    +0.027 A 
ATOM     26  C   UNL     1      11.149   2.640  -7.130  0.00  0.00    +0.041 A 
ATOM     27  C   UNL     1       9.865   2.466  -7.615  0.00  0.00    +0.023 A 
ATOM     28  C   UNL     1       8.864   2.014  -6.777  0.00  0.00    +0.047 A 
ATOM     29  C   UNL     1       9.147   1.733  -5.448  0.00  0.00    +0.125 A 
ATOM     30 CL   UNL     1      12.405   3.208  -8.185  0.00  0.00    -0.084 Cl
ENDBRANCH  22  29
ENDBRANCH  20  22
ENDBRANCH   1  20
TORSDOF 5
