REMARK  Name = ZINC39686542
REMARK  12 active torsions:
REMARK  status: ('A' for Active; 'I' for Inactive)
REMARK    1  A    between atoms: C_1  and  C_2
REMARK    2  A    between atoms: C_2  and  C_3
REMARK    3  A    between atoms: C_3  and  C_4
REMARK    4  A    between atoms: C_3  and  C_6
REMARK    5  A    between atoms: C_4  and  C_5
REMARK    6  A    between atoms: C_10  and  C_19
REMARK    7  A    between atoms: N_21  and  C_22
REMARK    8  A    between atoms: C_22  and  C_24
REMARK    9  A    between atoms: C_22  and  C_25
REMARK   10  A    between atoms: C_25  and  C_26
REMARK   11  A    between atoms: C_31  and  O_32
REMARK   12  A    between atoms: O_32  and  C_33
REMARK                            x       y       z     vdW  Elec       q    Type
REMARK                         _______ _______ _______ _____ _____    ______ ____
ROOT
ATOM      1  C   UNL     1       1.171  -1.902   1.159  0.00  0.00    +0.219 C 
ATOM      2  O   UNL     1       0.833  -2.666   2.039  0.00  0.00    -0.275 OA
ATOM      3  N   UNL     1       1.745  -2.379   0.037  0.00  0.00    -0.300 N 
ATOM      4  C   UNL     1       2.227  -1.609  -1.134  0.00  0.00    +0.121 C 
ATOM      5  C   UNL     1       3.538  -2.312  -1.550  0.00  0.00    +0.100 C 
ATOM      6  C   UNL     1       3.407  -3.744  -1.004  0.00  0.00    -0.004 C 
ATOM      7  C   UNL     1       2.042  -3.791  -0.302  0.00  0.00    +0.115 C 
ATOM      8  C   UNL     1       4.520  -4.032  -0.002  0.00  0.00    -0.010 C 
ATOM      9  C   UNL     1       4.401  -5.479   0.484  0.00  0.00    -0.082 C 
ATOM     10  N   UNL     1       4.500  -6.391  -0.663  0.00  0.00    +0.379 N 
ATOM     11  C   UNL     1       3.373  -6.170  -1.577  0.00  0.00    -0.082 C 
ATOM     12  C   UNL     1       3.448  -4.751  -2.149  0.00  0.00    -0.010 C 
ATOM     13  H   UNL     1       5.367  -6.221  -1.152  0.00  0.00    -0.086 HD
ATOM     14  H   UNL     1       4.483  -7.345  -0.335  0.00  0.00    -0.086 HD
ENDROOT
BRANCH   5  15
ATOM     15  C   UNL     1       3.671  -2.329  -3.051  0.00  0.00    +0.218 C 
ATOM     16  O   UNL     1       2.679  -2.317  -3.748  0.00  0.00    -0.275 OA
ATOM     17  N   UNL     1       4.893  -2.359  -3.619  0.00  0.00    -0.312 N 
ATOM     18  H   UNL     1       5.687  -2.369  -3.062  0.00  0.00    +0.149 HD
BRANCH  17  19
ATOM     19  C   UNL     1       5.022  -2.377  -5.078  0.00  0.00    +0.074 C 
ATOM     20  C   UNL     1       4.970  -0.944  -5.612  0.00  0.00    +0.028 C 
BRANCH  19  21
ATOM     21  C   UNL     1       6.357  -3.016  -5.465  0.00  0.00    +0.060 C 
BRANCH  21  22
ATOM     22  C   UNL     1       6.360  -4.464  -5.047  0.00  0.00    -0.004 A 
ATOM     23  C   UNL     1       6.906  -4.832  -3.832  0.00  0.00    +0.007 A 
ATOM     24  C   UNL     1       6.909  -6.161  -3.449  0.00  0.00    +0.000 A 
ATOM     25  C   UNL     1       6.366  -7.124  -4.279  0.00  0.00    +0.004 A 
ATOM     26  C   UNL     1       5.819  -6.761  -5.494  0.00  0.00    +0.046 A 
ATOM     27  C   UNL     1       5.809  -5.428  -5.879  0.00  0.00    +0.123 A 
BRANCH  27  28
ATOM     28  O   UNL     1       5.266  -5.067  -7.072  0.00  0.00    -0.495 OA
ATOM     29  C   UNL     1       4.718  -6.113  -7.877  0.00  0.00    +0.277 C 
ENDBRANCH  27  28
ENDBRANCH  21  22
ENDBRANCH  19  21
ENDBRANCH  17  19
ENDBRANCH   5  15
BRANCH   1  30
ATOM     30  C   UNL     1       0.950  -0.420   1.322  0.00  0.00    +0.075 C 
BRANCH  30  32
ATOM     31  C   UNL     1      -0.081   1.608   0.289  0.00  0.00    +0.004 C 
ATOM     32  C   UNL     1       0.042   0.086   0.199  0.00  0.00    +0.009 C 
ENDBRANCH  30  32
BRANCH  30  33
ATOM     33  C   UNL     1       0.288  -0.148   2.674  0.00  0.00    +0.009 C 
ATOM     34  C   UNL     1       1.267  -0.490   3.799  0.00  0.00    +0.004 C 
ENDBRANCH  30  33
ENDBRANCH   1  30
TORSDOF 8
