REMARK  Name = ZINC36048487
REMARK  13 active torsions:
REMARK  status: ('A' for Active; 'I' for Inactive)
REMARK    1  A    between atoms: C_1  and  C_2
REMARK    2  A    between atoms: C_2  and  C_3
REMARK    3  A    between atoms: C_3  and  C_5
REMARK    4  A    between atoms: C_3  and  N_28
REMARK    5  A    between atoms: C_9  and  O_26
REMARK    6  A    between atoms: C_10  and  O_24
REMARK    7  A    between atoms: N_15  and  C_16
REMARK    8  A    between atoms: C_16  and  C_17
REMARK    9  A    between atoms: O_24  and  C_25
REMARK   10  A    between atoms: O_26  and  C_27
REMARK   11  A    between atoms: N_31  and  C_32
REMARK   12  A    between atoms: C_32  and  C_33
REMARK   13  A    between atoms: C_32  and  C_34
REMARK                            x       y       z     vdW  Elec       q    Type
REMARK                         _______ _______ _______ _____ _____    ______ ____
ROOT
ATOM      1  C   UNL     1       0.758  -2.186  -1.107  0.00  0.00    -0.016 C 
ATOM      2  C   UNL     1       1.474  -2.759  -2.302  0.00  0.00    -0.052 A 
ATOM      3  C   UNL     1       2.750  -2.296  -2.592  0.00  0.00    +0.051 A 
ATOM      4  C   UNL     1       3.445  -2.797  -3.678  0.00  0.00    +0.162 A 
ATOM      5  C   UNL     1       2.860  -3.770  -4.484  0.00  0.00    +0.162 A 
ATOM      6  C   UNL     1       1.588  -4.227  -4.191  0.00  0.00    +0.053 A 
ATOM      7  C   UNL     1       0.895  -3.721  -3.102  0.00  0.00    -0.044 A 
ATOM      8  C   UNL     1      -0.492  -4.242  -2.824  0.00  0.00    +0.017 C 
ATOM      9  C   UNL     1      -0.908  -3.875  -1.399  0.00  0.00    -0.073 C 
ATOM     10  N   UNL     1      -0.683  -2.435  -1.202  0.00  0.00    +0.388 N 
ATOM     11  H   UNL     1      -1.063  -1.923  -1.984  0.00  0.00    -0.080 HD
ENDROOT
BRANCH   5  12
ATOM     12  O   UNL     1       3.537  -4.268  -5.553  0.00  0.00    -0.491 OA
ATOM     13  C   UNL     1       2.873  -5.264  -6.333  0.00  0.00    +0.277 C 
ENDBRANCH   5  12
BRANCH   4  14
ATOM     14  O   UNL     1       4.695  -2.340  -3.958  0.00  0.00    -0.491 OA
ATOM     15  C   UNL     1       5.231  -1.342  -3.087  0.00  0.00    +0.277 C 
ENDBRANCH   4  14
BRANCH   1  16
ATOM     16  C   UNL     1       1.007  -0.678  -1.045  0.00  0.00    +0.065 C 
BRANCH  16  17
ATOM     17  N   UNL     1       0.772  -0.200   0.320  0.00  0.00    -0.298 N 
ATOM     18  C   UNL     1       1.404   0.904   0.766  0.00  0.00    +0.300 C 
ATOM     19  O   UNL     1       2.169   1.503   0.035  0.00  0.00    -0.253 OA
ATOM     20  N   UNL     1       1.187   1.344   2.021  0.00  0.00    -0.297 N 
ATOM     21  H   UNL     1       0.161  -0.678   0.903  0.00  0.00    +0.150 HD
ATOM     22  H   UNL     1       0.577   0.866   2.604  0.00  0.00    +0.150 HD
BRANCH  20  23
ATOM     23  C   UNL     1       1.874   2.543   2.506  0.00  0.00    +0.068 C 
ATOM     24  C   UNL     1       1.084   3.786   2.091  0.00  0.00    +0.027 C 
ATOM     25  C   UNL     1       1.978   2.490   4.032  0.00  0.00    +0.027 C 
ENDBRANCH  20  23
ENDBRANCH  16  17
BRANCH  16  27
ATOM     26  C   UNL     1       0.400   1.526  -2.054  0.00  0.00    +0.005 C 
ATOM     27  C   UNL     1       0.054   0.036  -2.006  0.00  0.00    +0.017 C 
ENDBRANCH  16  27
ENDBRANCH   1  16
BRANCH  10  28
ATOM     28  C   UNL     1      -1.340  -2.000   0.038  0.00  0.00    -0.042 C 
BRANCH  28  29
ATOM     29  C   UNL     1      -2.823  -2.246  -0.067  0.00  0.00    -0.064 A 
ATOM     30  C   UNL     1      -3.651  -1.266  -0.582  0.00  0.00    +0.004 A 
ATOM     31  C   UNL     1      -5.011  -1.491  -0.679  0.00  0.00    +0.038 A 
ATOM     32  C   UNL     1      -5.545  -2.698  -0.260  0.00  0.00    +0.123 A 
ATOM     33  C   UNL     1      -4.715  -3.678   0.257  0.00  0.00    +0.038 A 
ATOM     34  C   UNL     1      -3.354  -3.454   0.347  0.00  0.00    +0.004 A 
ATOM     35  F   UNL     1      -6.874  -2.918  -0.353  0.00  0.00    -0.205 F 
ENDBRANCH  28  29
ENDBRANCH  10  28
TORSDOF 8
