REMARK  Name = ZINC12959160
REMARK  4 active torsions:
REMARK  status: ('A' for Active; 'I' for Inactive)
REMARK    1  A    between atoms: C_4  and  C_26
REMARK    2  A    between atoms: C_5  and  C_7
REMARK    3  A    between atoms: C_20  and  N_24
REMARK    4  A    between atoms: C_21  and  C_22
REMARK                            x       y       z     vdW  Elec       q    Type
REMARK                         _______ _______ _______ _____ _____    ______ ____
ROOT
ATOM      1  C   UNL     1      -1.332   2.114   0.020  0.00  0.00    +0.098 C 
ATOM      2  C   UNL     1      -2.100   1.746   1.263  0.00  0.00    +0.008 A 
ATOM      3  C   UNL     1      -1.734   2.300   2.453  0.00  0.00    +0.016 A 
ATOM      4  C   UNL     1      -2.432   1.973   3.626  0.00  0.00    -0.016 A 
ATOM      5  C   UNL     1      -2.077   2.528   4.867  0.00  0.00    +0.023 A 
ATOM      6  C   UNL     1      -2.775   2.185   5.984  0.00  0.00    +0.018 A 
ATOM      7  C   UNL     1      -3.842   1.289   5.917  0.00  0.00    +0.016 A 
ATOM      8  C   UNL     1      -4.215   0.732   4.732  0.00  0.00    +0.010 A 
ATOM      9  C   UNL     1      -3.517   1.062   3.557  0.00  0.00    -0.014 A 
ATOM     10  C   UNL     1      -3.871   0.509   2.318  0.00  0.00    +0.055 A 
ATOM     11  C   UNL     1      -3.170   0.849   1.192  0.00  0.00    +0.135 A 
ATOM     12  O   UNL     1      -3.534   0.298   0.006  0.00  0.00    -0.441 OA
ATOM     13  C   UNL     1      -3.154   0.876  -1.145  0.00  0.00    +0.199 C 
ATOM     14  C   UNL     1      -2.118   1.745  -1.206  0.00  0.00    +0.098 C 
ATOM     15 BR   UNL     1      -2.292   2.934   7.652  0.00  0.00    -0.050 Br
ENDROOT
BRANCH   1  20
ATOM     16  C   UNL     1       1.208  -0.679  -0.013  0.00  0.00    +0.000 A 
ATOM     17  C   UNL     1       2.396   0.029  -0.021  0.00  0.00    +0.001 A 
ATOM     18  C   UNL     1       2.377   1.411  -0.015  0.00  0.00    +0.012 A 
ATOM     19  C   UNL     1       1.171   2.086   0.002  0.00  0.00    +0.059 A 
ATOM     20  C   UNL     1      -0.017   1.378   0.010  0.00  0.00    -0.023 A 
ATOM     21  C   UNL     1       0.002  -0.004   0.002  0.00  0.00    +0.005 A 
BRANCH  19  22
ATOM     22  C   UNL     1       1.150   3.592   0.010  0.00  0.00    +0.418 C 
ATOM     23  F   UNL     1       2.463   4.077   0.001  0.00  0.00    -0.166 F 
ATOM     24  F   UNL     1       0.474   4.056  -1.123  0.00  0.00    -0.166 F 
ATOM     25  F   UNL     1       0.495   4.044   1.161  0.00  0.00    -0.166 F 
ENDBRANCH  19  22
ENDBRANCH   1  20
BRANCH  13  26
ATOM     26  N   UNL     1      -3.837   0.575  -2.297  0.00  0.00    -0.328 N 
ATOM     27  H   UNL     1      -3.575   0.983  -3.137  0.00  0.00    +0.145 HD
ATOM     28  H   UNL     1      -4.582  -0.046  -2.271  0.00  0.00    +0.145 HD
ENDBRANCH  13  26
BRANCH  14  29
ATOM     29  C   UNL     1      -1.764   2.326  -2.466  0.00  0.00    +0.101 C 
ATOM     30  N   UNL     1      -1.483   2.787  -3.466  0.00  0.00    -0.191 NA
ENDBRANCH  14  29
TORSDOF 4
