REMARK  Name = ZINC23435474
REMARK  9 active torsions:
REMARK  status: ('A' for Active; 'I' for Inactive)
REMARK    1  A    between atoms: C_4  and  C_7
REMARK    2  A    between atoms: C_7  and  C_8
REMARK    3  A    between atoms: C_7  and  O_14
REMARK    4  A    between atoms: O_14  and  C_15
REMARK    5  A    between atoms: C_15  and  C_16
REMARK    6  A    between atoms: C_16  and  N_17
REMARK    7  A    between atoms: N_20  and  S_23
REMARK    8  A    between atoms: S_23  and  C_26
REMARK    9  A    between atoms: C_30  and  N_32
REMARK                            x       y       z     vdW  Elec       q    Type
REMARK                         _______ _______ _______ _____ _____    ______ ____
ROOT
ATOM      1  N   UNL     1      -0.031   5.844  -4.298  0.00  0.00    +0.383 N 
ATOM      2  C   UNL     1      -0.631   7.179  -4.175  0.00  0.00    -0.061 C 
ATOM      3  C   UNL     1      -0.354   7.733  -2.773  0.00  0.00    +0.091 C 
ATOM      4  N   UNL     1      -0.817   6.749  -1.782  0.00  0.00    -0.180 NA
ATOM      5  C   UNL     1      -0.361   5.357  -1.918  0.00  0.00    +0.091 C 
ATOM      6  C   UNL     1      -0.643   4.896  -3.357  0.00  0.00    -0.061 C 
ATOM      7  H   UNL     1       1.034   5.931  -4.040  0.00  0.00    -0.082 HD
ENDROOT
BRANCH   4   8
ATOM      8  S   UNL     1      -1.820   7.199  -0.543  0.00  0.00    +0.061 S 
ATOM      9  O   UNL     1      -1.621   8.591  -0.345  0.00  0.00    -0.153 OA
ATOM     10  O   UNL     1      -1.633   6.247   0.495  0.00  0.00    -0.153 OA
BRANCH   8  11
ATOM     11  C   UNL     1      -3.475   7.002  -1.115  0.00  0.00    +0.108 A 
ATOM     12  C   UNL     1      -4.130   5.798  -0.935  0.00  0.00    +0.028 A 
ATOM     13  C   UNL     1      -5.428   5.644  -1.384  0.00  0.00    +0.004 A 
ATOM     14  C   UNL     1      -6.072   6.693  -2.013  0.00  0.00    +0.033 A 
ATOM     15  C   UNL     1      -5.415   7.896  -2.197  0.00  0.00    +0.128 A 
ATOM     16  C   UNL     1      -4.118   8.052  -1.743  0.00  0.00    +0.061 A 
BRANCH  15  17
ATOM     17  N   UNL     1      -6.102   9.018  -2.875  0.00  0.00    +0.056 N 
ATOM     18  O   UNL     1      -7.246   8.882  -3.271  0.00  0.00    -0.126 OA
ATOM     19  O   UNL     1      -5.523  10.077  -3.038  0.00  0.00    -0.126 OA
ENDBRANCH  15  17
ENDBRANCH   8  11
ENDBRANCH   4   8
BRANCH   1  20
ATOM     20  C   UNL     1      -0.125   5.349  -5.678  0.00  0.00    -0.050 C 
BRANCH  20  21
ATOM     21  C   UNL     1       0.915   6.061  -6.546  0.00  0.00    +0.142 C 
BRANCH  21  22
ATOM     22  O   UNL     1       2.227   5.713  -6.099  0.00  0.00    -0.369 OA
BRANCH  22  23
ATOM     23  C   UNL     1       3.278   6.328  -6.848  0.00  0.00    +0.178 C 
BRANCH  23  27
ATOM     24  C   UNL     1       4.294  10.073  -5.062  0.00  0.00    +0.000 A 
ATOM     25  C   UNL     1       4.246   9.954  -6.438  0.00  0.00    +0.000 A 
ATOM     26  C   UNL     1       3.918   8.742  -7.016  0.00  0.00    +0.006 A 
ATOM     27  C   UNL     1       3.637   7.649  -6.218  0.00  0.00    -0.015 A 
ATOM     28  C   UNL     1       3.679   7.769  -4.841  0.00  0.00    +0.006 A 
ATOM     29  C   UNL     1       4.013   8.980  -4.263  0.00  0.00    +0.000 A 
ENDBRANCH  23  27
BRANCH  23  30
ATOM     30  C   UNL     1       4.486   5.427  -6.849  0.00  0.00    -0.015 A 
ATOM     31  C   UNL     1       4.785   4.669  -5.732  0.00  0.00    +0.006 A 
ATOM     32  C   UNL     1       5.891   3.840  -5.736  0.00  0.00    +0.000 A 
ATOM     33  C   UNL     1       6.704   3.776  -6.852  0.00  0.00    +0.000 A 
ATOM     34  C   UNL     1       6.408   4.538  -7.967  0.00  0.00    +0.000 A 
ATOM     35  C   UNL     1       5.299   5.364  -7.965  0.00  0.00    +0.006 A 
ENDBRANCH  23  30
ENDBRANCH  22  23
ENDBRANCH  21  22
ENDBRANCH  20  21
ENDBRANCH   1  20
TORSDOF 9
