REMARK  Name = ZINC38688994
REMARK  6 active torsions:
REMARK  status: ('A' for Active; 'I' for Inactive)
REMARK    1  A    between atoms: C_1  and  C_2
REMARK    2  A    between atoms: C_6  and  N_8
REMARK    3  A    between atoms: C_9  and  C_20
REMARK    4  A    between atoms: C_21  and  C_22
REMARK    5  A    between atoms: C_25  and  O_31
REMARK    6  A    between atoms: O_31  and  C_32
REMARK                            x       y       z     vdW  Elec       q    Type
REMARK                         _______ _______ _______ _____ _____    ______ ____
ROOT
ATOM      1  N   UNL     1       0.051  -2.797   2.392  0.00  0.00    -0.245 N 
ATOM      2  C   UNL     1      -0.035  -4.258   2.369  0.00  0.00    +0.190 C 
ATOM      3  N   UNL     1      -0.754  -4.744   3.552  0.00  0.00    -0.322 N 
ATOM      4  C   UNL     1      -0.465  -4.180   4.790  0.00  0.00    +0.041 A 
ATOM      5  C   UNL     1      -0.605  -4.895   5.967  0.00  0.00    +0.024 A 
ATOM      6  C   UNL     1      -0.316  -4.288   7.175  0.00  0.00    +0.002 A 
ATOM      7  C   UNL     1       0.112  -2.970   7.216  0.00  0.00    +0.001 A 
ATOM      8  C   UNL     1       0.261  -2.245   6.052  0.00  0.00    +0.015 A 
ATOM      9  C   UNL     1      -0.022  -2.846   4.827  0.00  0.00    +0.058 A 
ATOM     10  C   UNL     1       0.150  -2.123   3.555  0.00  0.00    +0.254 C 
ATOM     11  O   UNL     1       0.375  -0.927   3.553  0.00  0.00    -0.270 OA
ATOM     12  H   UNL     1      -1.418  -5.446   3.473  0.00  0.00    +0.148 HD
ENDROOT
BRANCH   1  18
ATOM     13  C   UNL     1      -2.493  -0.557  -1.169  0.00  0.00    +0.044 C 
ATOM     14  C   UNL     1      -1.183  -0.991  -0.563  0.00  0.00    -0.049 A 
ATOM     15  C   UNL     1       0.006  -0.689  -1.200  0.00  0.00    +0.003 A 
ATOM     16  C   UNL     1       1.210  -1.086  -0.648  0.00  0.00    +0.002 A 
ATOM     17  C   UNL     1       1.229  -1.785   0.543  0.00  0.00    +0.023 A 
ATOM     18  C   UNL     1       0.036  -2.089   1.186  0.00  0.00    +0.039 A 
ATOM     19  C   UNL     1      -1.172  -1.685   0.631  0.00  0.00    +0.027 A 
ENDBRANCH   1  18
BRANCH   2  20
ATOM     20  C   UNL     1       1.355  -4.839   2.359  0.00  0.00    +0.015 C 
ATOM     21  C   UNL     1       1.749  -5.618   1.341  0.00  0.00    +0.005 C 
BRANCH  21  22
ATOM     22  C   UNL     1       3.050  -6.162   1.332  0.00  0.00    -0.019 C 
ATOM     23  C   UNL     1       3.612  -6.977   0.358  0.00  0.00    +0.006 A 
ATOM     24  C   UNL     1       3.110  -7.495  -0.859  0.00  0.00    +0.056 A 
ATOM     25  C   UNL     1       3.902  -8.286  -1.631  0.00  0.00    +0.121 A 
ATOM     26  C   UNL     1       5.216  -8.603  -1.251  0.00  0.00    +0.047 A 
ATOM     27  C   UNL     1       5.758  -8.141  -0.102  0.00  0.00    +0.029 A 
ATOM     28  C   UNL     1       4.991  -7.309   0.759  0.00  0.00    +0.043 A 
ATOM     29  N   UNL     1       5.284  -6.743   1.910  0.00  0.00    -0.380 N 
ATOM     30  C   UNL     1       4.126  -5.975   2.378  0.00  0.00    +0.149 C 
ATOM     31  H   UNL     1       6.133  -6.818   2.373  0.00  0.00    +0.160 HD
BRANCH  25  32
ATOM     32  O   UNL     1       3.410  -8.780  -2.798  0.00  0.00    -0.495 OA
ATOM     33  C   UNL     1       4.284  -9.604  -3.572  0.00  0.00    +0.277 C 
ENDBRANCH  25  32
ENDBRANCH  21  22
ENDBRANCH   2  20
TORSDOF 4
