REMARK  Name = ZINC40352065
REMARK  6 active torsions:
REMARK  status: ('A' for Active; 'I' for Inactive)
REMARK    1  A    between atoms: C_3  and  O_8
REMARK    2  A    between atoms: C_6  and  N_7
REMARK    3  A    between atoms: O_8  and  C_9
REMARK    4  A    between atoms: C_9  and  C_10
REMARK    5  A    between atoms: C_10  and  C_12
REMARK    6  A    between atoms: C_10  and  O_20
REMARK                            x       y       z     vdW  Elec       q    Type
REMARK                         _______ _______ _______ _____ _____    ______ ____
ROOT
ATOM      1  C   UNL     1       4.758   1.349  -0.036  0.00  0.00    +0.265 C 
ENDROOT
BRANCH   1   2
ATOM      2  O   UNL     1       3.549   2.110  -0.021  0.00  0.00    -0.489 OA
BRANCH   2   5
ATOM      3  C   UNL     1      -0.017   1.384   0.010  0.00  0.00    +0.026 A 
ATOM      4  C   UNL     1       1.170   2.091   0.002  0.00  0.00    +0.047 A 
ATOM      5  C   UNL     1       2.380   1.414  -0.013  0.00  0.00    +0.121 A 
ATOM      6  C   UNL     1       2.400   0.027  -0.021  0.00  0.00    +0.047 A 
ATOM      7  C   UNL     1       1.214  -0.681  -0.013  0.00  0.00    +0.026 A 
ATOM      8  C   UNL     1       0.002  -0.004   0.002  0.00  0.00    +0.025 A 
BRANCH   8   9
ATOM      9  N   UNL     1      -1.200  -0.721   0.010  0.00  0.00    -0.358 N 
ATOM     10  H   UNL     1      -2.047  -0.247   0.021  0.00  0.00    +0.142 HD
ATOM     11  H   UNL     1      -1.186  -1.690   0.005  0.00  0.00    +0.142 HD
ENDBRANCH   8   9
ENDBRANCH   2   5
ENDBRANCH   1   2
BRANCH   1  12
ATOM     12  C   UNL     1       5.958   2.297  -0.043  0.00  0.00    +0.183 C 
BRANCH  12  13
ATOM     13  C   UNL     1       7.231   1.498   0.064  0.00  0.00    -0.001 A 
ATOM     14  C   UNL     1       7.926   1.149  -1.079  0.00  0.00    +0.022 A 
ATOM     15  C   UNL     1       9.095   0.415  -0.980  0.00  0.00    +0.018 A 
ATOM     16  C   UNL     1       9.567   0.031   0.262  0.00  0.00    +0.016 A 
ATOM     17  C   UNL     1       8.872   0.380   1.404  0.00  0.00    +0.017 A 
ATOM     18  C   UNL     1       7.707   1.119   1.306  0.00  0.00    +0.024 A 
ATOM     19 BR   UNL     1       6.759   1.603   2.869  0.00  0.00    -0.050 Br
ATOM     20 BR   UNL     1      10.045  -0.063  -2.543  0.00  0.00    -0.050 Br
ENDBRANCH  12  13
BRANCH  12  21
ATOM     21  O   UNL     1       5.967   3.046  -1.261  0.00  0.00    -0.384 OA
ATOM     22  H   UNL     1       6.029   2.501  -2.057  0.00  0.00    +0.210 HD
ENDBRANCH  12  21
ENDBRANCH   1  12
TORSDOF 6
