REMARK  Name = ZINC14456421
REMARK  4 active torsions:
REMARK  status: ('A' for Active; 'I' for Inactive)
REMARK    1  A    between atoms: C_1  and  C_2
REMARK    2  A    between atoms: C_5  and  C_7
REMARK    3  A    between atoms: C_17  and  N_24
REMARK    4  A    between atoms: C_20  and  O_23
REMARK                            x       y       z     vdW  Elec       q    Type
REMARK                         _______ _______ _______ _____ _____    ______ ____
ROOT
ATOM      1  C   UNL     1       2.565   1.272  -0.015  0.00  0.00    +0.112 C 
ATOM      2  C   UNL     1       3.117   1.345  -1.441  0.00  0.00    +0.029 C 
ATOM      3  C   UNL     1       2.350   0.302  -2.302  0.00  0.00    +0.033 C 
ATOM      4  C   UNL     1       3.063  -1.001  -1.998  0.00  0.00    -0.030 C 
ATOM      5  C   UNL     1       4.267  -0.770  -1.538  0.00  0.00    -0.023 C 
ATOM      6  C   UNL     1       4.527   0.717  -1.462  0.00  0.00    +0.051 C 
ATOM      7  C   UNL     1       5.300   1.057  -0.221  0.00  0.00    +0.014 A 
ATOM      8  C   UNL     1       6.641   0.696  -0.169  0.00  0.00    +0.132 A 
ATOM      9  C   UNL     1       7.404   0.978   0.944  0.00  0.00    +0.037 A 
ATOM     10  C   UNL     1       6.838   1.626   2.027  0.00  0.00    +0.049 A 
ATOM     11  C   UNL     1       5.505   1.990   1.987  0.00  0.00    +0.138 A 
ATOM     12  C   UNL     1       4.730   1.706   0.858  0.00  0.00    +0.076 A 
ATOM     13  N   UNL     1       3.389   2.098   0.868  0.00  0.00    -0.333 N 
ATOM     14  H   UNL     1       2.930   2.916   1.442  0.00  0.00    +0.147 HD
ENDROOT
BRANCH   1  19
ATOM     15  C   UNL     1      -2.355   4.080   0.046  0.00  0.00    +0.051 C 
ATOM     16  C   UNL     1      -1.196   3.116   0.030  0.00  0.00    -0.013 A 
ATOM     17  C   UNL     1      -1.213   1.761   0.017  0.00  0.00    +0.011 A 
ATOM     18  C   UNL     1      -0.013   1.076   0.008  0.00  0.00    +0.013 A 
ATOM     19  C   UNL     1       1.146   1.780   0.001  0.00  0.00    +0.010 A 
ATOM     20  S   UNL     1       0.555   3.464   0.015  0.00  0.00    -0.097 S 
ENDBRANCH   1  19
BRANCH   8  21
ATOM     21  N   UNL     1       7.258   0.003  -1.323  0.00  0.00    +0.057 N 
ATOM     22  O   UNL     1       8.433  -0.316  -1.284  0.00  0.00    -0.126 OA
ATOM     23  O   UNL     1       6.590  -0.249  -2.310  0.00  0.00    -0.126 OA
ENDBRANCH   8  21
BRANCH  11  24
ATOM     24  O   UNL     1       4.945   2.628   3.049  0.00  0.00    -0.505 OA
ATOM     25  H   UNL     1       3.885   2.919   3.020  0.00  0.00    +0.292 HD
ENDBRANCH  11  24
TORSDOF 3
