REMARK  Name = ZINC37260820
REMARK  2 active torsions:
REMARK  status: ('A' for Active; 'I' for Inactive)
REMARK    1  A    between atoms: C_2  and  N_7
REMARK    2  A    between atoms: N_7  and  C_8
REMARK                            x       y       z     vdW  Elec       q    Type
REMARK                         _______ _______ _______ _____ _____    ______ ____
ROOT
ATOM      1  C   UNL     1       3.132   3.434  -0.010  0.00  0.00    +0.071 C 
ATOM      2  C   UNL     1       3.671   3.413   1.422  0.00  0.00    +0.022 C 
ATOM      3  C   UNL     1       5.166   3.738   1.410  0.00  0.00    +0.005 C 
ATOM      4  C   UNL     1       5.381   5.127   0.805  0.00  0.00    -0.008 C 
ATOM      5  C   UNL     1       4.639   6.169   1.645  0.00  0.00    +0.004 C 
ATOM      6  C   UNL     1       4.854   7.558   1.040  0.00  0.00    +0.000 C 
ATOM      7  C   UNL     1       4.316   7.580  -0.392  0.00  0.00    +0.000 C 
ATOM      8  C   UNL     1       5.057   6.537  -1.232  0.00  0.00    +0.004 C 
ATOM      9  C   UNL     1       4.842   5.148  -0.627  0.00  0.00    -0.006 C 
ATOM     10  C   UNL     1       3.347   4.823  -0.615  0.00  0.00    +0.026 C 
ENDROOT
BRANCH   1  11
ATOM     11  N   UNL     1       1.701   3.123   0.002  0.00  0.00    -0.339 N 
ATOM     12  H   UNL     1       1.048   3.841   0.012  0.00  0.00    +0.146 HD
BRANCH  11  14
ATOM     13  C   UNL     1      -0.016   1.355   0.009  0.00  0.00    +0.127 A 
ATOM     14  C   UNL     1       1.272   1.782  -0.001  0.00  0.00    +0.065 A 
ATOM     15  C   UNL     1       2.100   0.651  -0.015  0.00  0.00    +0.157 A 
ATOM     16  N   UNL     1       1.341  -0.415  -0.013  0.00  0.00    -0.180 NA
ATOM     17  N   UNL     1       0.002  -0.004   0.002  0.00  0.00    -0.283 N 
ATOM     18  H   UNL     1      -0.774  -0.586   0.007  0.00  0.00    +0.188 HD
ENDBRANCH  11  14
ENDBRANCH   1  11
TORSDOF 2
