REMARK  Name = ZINC02050059
REMARK  13 active torsions:
REMARK  status: ('A' for Active; 'I' for Inactive)
REMARK    1  A    between atoms: C_1  and  C_2
REMARK    2  A    between atoms: C_2  and  O_3
REMARK    3  A    between atoms: O_3  and  C_4
REMARK    4  A    between atoms: N_6  and  C_7
REMARK    5  A    between atoms: C_7  and  C_8
REMARK    6  A    between atoms: C_7  and  C_12
REMARK    7  A    between atoms: C_7  and  N_16
REMARK    8  A    between atoms: N_16  and  C_17
REMARK    9  A    between atoms: C_20  and  S_23
REMARK   10  A    between atoms: S_23  and  N_26
REMARK   11  A    between atoms: N_26  and  C_27
REMARK   12  A    between atoms: C_28  and  C_33
REMARK   13  A    between atoms: C_29  and  C_32
REMARK                            x       y       z     vdW  Elec       q    Type
REMARK                         _______ _______ _______ _____ _____    ______ ____
ROOT
ATOM      1  N   UNL     1       0.186   1.166   0.166  0.00  0.00    -0.309 N 
ATOM      2  H   UNL     1       0.052   0.238   0.416  0.00  0.00    +0.149 HD
ENDROOT
BRANCH   1   3
ATOM      3  C   UNL     1      -0.914   2.015   0.018  0.00  0.00    +0.029 A 
ATOM      4  C   UNL     1      -0.724   3.345  -0.333  0.00  0.00    +0.025 A 
ATOM      5  C   UNL     1      -1.813   4.180  -0.484  0.00  0.00    +0.030 A 
ATOM      6  C   UNL     1      -3.092   3.696  -0.276  0.00  0.00    +0.109 A 
ATOM      7  C   UNL     1      -3.284   2.373   0.078  0.00  0.00    +0.030 A 
ATOM      8  C   UNL     1      -2.199   1.531   0.225  0.00  0.00    +0.025 A 
BRANCH   6   9
ATOM      9  S   UNL     1      -4.479   4.766  -0.464  0.00  0.00    +0.075 S 
ATOM     10  O   UNL     1      -4.068   5.814  -1.331  0.00  0.00    -0.150 OA
ATOM     11  O   UNL     1      -5.597   3.936  -0.748  0.00  0.00    -0.150 OA
BRANCH   9  12
ATOM     12  N   UNL     1      -4.766   5.458   1.012  0.00  0.00    -0.183 N 
ATOM     13  H   UNL     1      -5.591   5.267   1.486  0.00  0.00    +0.177 HD
BRANCH  12  14
ATOM     14  C   UNL     1      -3.831   6.309   1.571  0.00  0.00    +0.240 A 
ATOM     15  C   UNL     1      -3.924   6.958   2.771  0.00  0.00    +0.035 A 
ATOM     16  C   UNL     1      -2.719   7.682   2.859  0.00  0.00    +0.085 A 
ATOM     17  N   UNL     1      -2.052   7.427   1.768  0.00  0.00    -0.081 NA
ATOM     18  O   UNL     1      -2.651   6.669   1.041  0.00  0.00    -0.338 OA
ATOM     19  C   UNL     1      -2.288   8.580   3.990  0.00  0.00    +0.069 C 
ATOM     20  C   UNL     1      -5.053   6.908   3.768  0.00  0.00    +0.051 C 
ENDBRANCH  12  14
ENDBRANCH   9  12
ENDBRANCH   6   9
ENDBRANCH   1   3
BRANCH   1  21
ATOM     21  C   UNL     1       1.540   1.676  -0.061  0.00  0.00    +0.295 C 
BRANCH  21  24
ATOM     22  C   UNL     1       1.216   3.166   1.840  0.00  0.00    +0.402 C 
ATOM     23  O   UNL     1       0.747   2.231   2.458  0.00  0.00    -0.226 OA
ATOM     24  N   UNL     1       1.687   2.980   0.591  0.00  0.00    -0.245 N 
ATOM     25  H   UNL     1       2.123   3.709   0.123  0.00  0.00    +0.155 HD
BRANCH  22  26
ATOM     26  O   UNL     1       1.265   4.388   2.402  0.00  0.00    -0.451 OA
BRANCH  26  28
ATOM     27  C   UNL     1       0.880   5.965   4.218  0.00  0.00    +0.048 C 
ATOM     28  C   UNL     1       0.739   4.515   3.750  0.00  0.00    +0.230 C 
ENDBRANCH  26  28
ENDBRANCH  22  26
ENDBRANCH  21  24
BRANCH  21  29
ATOM     29  C   UNL     1       2.559   0.696   0.525  0.00  0.00    +0.436 C 
ATOM     30  F   UNL     1       2.368  -0.569  -0.042  0.00  0.00    -0.166 F 
ATOM     31  F   UNL     1       3.853   1.144   0.241  0.00  0.00    -0.166 F 
ATOM     32  F   UNL     1       2.386   0.616   1.911  0.00  0.00    -0.166 F 
ENDBRANCH  21  29
BRANCH  21  33
ATOM     33  C   UNL     1       1.783   1.826  -1.564  0.00  0.00    +0.436 C 
ATOM     34  F   UNL     1       0.913   2.791  -2.083  0.00  0.00    -0.166 F 
ATOM     35  F   UNL     1       3.106   2.224  -1.785  0.00  0.00    -0.166 F 
ATOM     36  F   UNL     1       1.553   0.601  -2.198  0.00  0.00    -0.166 F 
ENDBRANCH  21  33
ENDBRANCH   1  21
TORSDOF 10
