REMARK  Name = ZINC64197160
REMARK  7 active torsions:
REMARK  status: ('A' for Active; 'I' for Inactive)
REMARK    1  A    between atoms: C_3  and  N_8
REMARK    2  A    between atoms: C_9  and  S_14
REMARK    3  A    between atoms: S_14  and  C_15
REMARK    4  A    between atoms: C_15  and  C_16
REMARK    5  A    between atoms: N_18  and  C_19
REMARK    6  A    between atoms: C_19  and  C_20
REMARK    7  A    between atoms: C_20  and  C_21
REMARK                            x       y       z     vdW  Elec       q    Type
REMARK                         _______ _______ _______ _____ _____    ______ ____
ROOT
ATOM      1  C   UNL     1       5.021   1.760   2.806  0.00  0.00    +0.167 C 
ENDROOT
BRANCH   1   2
ATOM      2  C   UNL     1       5.236   1.066   4.127  0.00  0.00    +0.223 C 
ATOM      3  O   UNL     1       5.498  -0.117   4.155  0.00  0.00    -0.275 OA
ATOM      4  N   UNL     1       5.137   1.762   5.277  0.00  0.00    -0.314 N 
ATOM      5  H   UNL     1       4.927   2.709   5.255  0.00  0.00    +0.149 HD
BRANCH   4   6
ATOM      6  C   UNL     1       5.345   1.088   6.561  0.00  0.00    +0.108 C 
BRANCH   6   7
ATOM      7  C   UNL     1       5.176   2.096   7.700  0.00  0.00    +0.052 C 
BRANCH   7   8
ATOM      8  C   UNL     1       5.391   1.403   9.020  0.00  0.00    -0.040 C 
ATOM      9  C   UNL     1       6.540   1.346   9.732  0.00  0.00    +0.000 A 
ATOM     10  C   UNL     1       7.883   1.891   9.497  0.00  0.00    +0.030 A 
ATOM     11  C   UNL     1       8.853   1.662  10.412  0.00  0.00    +0.042 A 
ATOM     12  C   UNL     1       8.608   0.917  11.575  0.00  0.00    +0.022 A 
ATOM     13  C   UNL     1       7.401   0.385  11.860  0.00  0.00    +0.027 A 
ATOM     14  C   UNL     1       6.308   0.564  10.967  0.00  0.00    +0.043 A 
ATOM     15  N   UNL     1       5.064   0.154  11.018  0.00  0.00    -0.380 N 
ATOM     16  C   UNL     1       4.364   0.635   9.822  0.00  0.00    +0.144 C 
ATOM     17 CL   UNL     1      10.442   2.305  10.138  0.00  0.00    -0.084 Cl
ATOM     18  H   UNL     1       4.671  -0.375  11.730  0.00  0.00    +0.160 HD
ENDBRANCH   7   8
ENDBRANCH   6   7
ENDBRANCH   4   6
ENDBRANCH   1   2
BRANCH   1  19
ATOM     19  S   UNL     1       5.222   0.565   1.456  0.00  0.00    -0.114 S 
BRANCH  19  21
ATOM     20  N   UNL     1       3.582   2.124  -0.021  0.00  0.00    -0.254 N 
ATOM     21  C   UNL     1       4.936   1.544  -0.043  0.00  0.00    +0.203 C 
ATOM     22  N   UNL     1       5.867   2.699  -0.088  0.00  0.00    -0.320 NA
ATOM     23  N   UNL     1       5.016   3.779  -0.617  0.00  0.00    +0.411 N 
ATOM     24  N   UNL     1       3.710   3.493  -0.016  0.00  0.00    -0.265 NA
ATOM     25  H   UNL     1       6.207   2.925   0.834  0.00  0.00    +0.106 HD
ATOM     26  H   UNL     1       5.358   4.681  -0.320  0.00  0.00    -0.031 HD
ATOM     27  H   UNL     1       2.966   3.927  -0.542  0.00  0.00    +0.125 HD
ATOM     28  H   UNL     1       4.961   3.731  -1.623  0.00  0.00    -0.031 HD
BRANCH  20  31
ATOM     29  C   UNL     1      -0.017   1.378   0.010  0.00  0.00    +0.003 A 
ATOM     30  C   UNL     1       1.169   2.087   0.002  0.00  0.00    +0.024 A 
ATOM     31  C   UNL     1       2.382   1.410  -0.013  0.00  0.00    +0.047 A 
ATOM     32  C   UNL     1       2.398   0.021  -0.021  0.00  0.00    +0.044 A 
ATOM     33  C   UNL     1       1.208  -0.683  -0.013  0.00  0.00    +0.043 A 
ATOM     34  C   UNL     1       0.002  -0.004   0.002  0.00  0.00    +0.020 A 
ATOM     35 CL   UNL     1       1.227  -2.419  -0.023  0.00  0.00    -0.083 Cl
ENDBRANCH  20  31
ENDBRANCH  19  21
ENDBRANCH   1  19
TORSDOF 7
