REMARK  Name = ZINC09272515
REMARK  15 active torsions:
REMARK  status: ('A' for Active; 'I' for Inactive)
REMARK    1  A    between atoms: C_1  and  C_2
REMARK    2  A    between atoms: C_2  and  C_32
REMARK    3  A    between atoms: N_3  and  N_4
REMARK    4  A    between atoms: C_5  and  C_7
REMARK    5  A    between atoms: C_7  and  S_8
REMARK    6  A    between atoms: S_8  and  C_9
REMARK    7  A    between atoms: C_12  and  C_22
REMARK    8  A    between atoms: N_13  and  C_14
REMARK    9  A    between atoms: C_17  and  O_20
REMARK   10  A    between atoms: O_20  and  C_21
REMARK   11  A    between atoms: C_25  and  C_28
REMARK   12  A    between atoms: C_28  and  C_29
REMARK   13  A    between atoms: C_28  and  C_30
REMARK   14  A    between atoms: C_28  and  C_31
REMARK   15  A    between atoms: C_35  and  O_38
REMARK                            x       y       z     vdW  Elec       q    Type
REMARK                         _______ _______ _______ _____ _____    ______ ____
ROOT
ATOM      1  C   UNL     1      -4.168   0.875  -3.754  0.00  0.00    +0.197 A 
ATOM      2  N   UNL     1      -4.225  -0.410  -3.488  0.00  0.00    -0.122 NA
ATOM      3  N   UNL     1      -5.276  -0.926  -4.018  0.00  0.00    -0.128 NA
ATOM      4  C   UNL     1      -5.956  -0.002  -4.656  0.00  0.00    +0.169 A 
ATOM      5  N   UNL     1      -5.271   1.183  -4.503  0.00  0.00    -0.270 N 
ENDROOT
BRANCH   5   6
ATOM      6  C   UNL     1      -5.627   2.441  -5.012  0.00  0.00    +0.051 A 
ATOM      7  C   UNL     1      -6.783   3.067  -4.566  0.00  0.00    +0.030 A 
ATOM      8  C   UNL     1      -7.130   4.308  -5.062  0.00  0.00    +0.047 A 
ATOM      9  C   UNL     1      -6.331   4.924  -6.014  0.00  0.00    +0.120 A 
ATOM     10  C   UNL     1      -5.179   4.295  -6.465  0.00  0.00    +0.047 A 
ATOM     11  C   UNL     1      -4.827   3.057  -5.965  0.00  0.00    +0.030 A 
BRANCH   9  12
ATOM     12  O   UNL     1      -6.676   6.143  -6.506  0.00  0.00    -0.495 OA
ATOM     13  C   UNL     1      -7.875   6.732  -5.998  0.00  0.00    +0.277 C 
ENDBRANCH   9  12
ENDBRANCH   5   6
BRANCH   4  14
ATOM     14  C   UNL     1      -7.222  -0.196  -5.395  0.00  0.00    +0.020 A 
ATOM     15  C   UNL     1      -7.677   0.786  -6.276  0.00  0.00    +0.012 A 
ATOM     16  C   UNL     1      -8.856   0.596  -6.967  0.00  0.00    +0.005 A 
ATOM     17  C   UNL     1      -9.593  -0.560  -6.779  0.00  0.00    -0.042 A 
ATOM     18  C   UNL     1      -9.150  -1.535  -5.902  0.00  0.00    +0.005 A 
ATOM     19  C   UNL     1      -7.970  -1.360  -5.210  0.00  0.00    +0.012 A 
BRANCH  17  20
ATOM     20  C   UNL     1     -10.883  -0.757  -7.532  0.00  0.00    -0.013 C 
ATOM     21  C   UNL     1     -12.035  -0.913  -6.538  0.00  0.00    +0.015 C 
ATOM     22  C   UNL     1     -11.142   0.456  -8.427  0.00  0.00    +0.015 C 
ATOM     23  C   UNL     1     -10.781  -2.016  -8.396  0.00  0.00    +0.015 C 
ENDBRANCH  17  20
ENDBRANCH   4  14
BRANCH   1  24
ATOM     24  S   UNL     1      -2.910   1.996  -3.237  0.00  0.00    -0.076 S 
BRANCH  24  25
ATOM     25  C   UNL     1      -1.843   0.865  -2.311  0.00  0.00    +0.174 C 
BRANCH  25  27
ATOM     26  N   UNL     1       0.269   0.983  -1.029  0.00  0.00    -0.206 N 
ATOM     27  C   UNL     1      -0.665   1.625  -1.758  0.00  0.00    +0.242 C 
ATOM     28  O   UNL     1      -0.557   2.814  -1.970  0.00  0.00    -0.273 OA
ATOM     29  H   UNL     1       0.182   0.032  -0.859  0.00  0.00    +0.177 HD
BRANCH  26  32
ATOM     30  C   UNL     1       3.409   1.821   0.792  0.00  0.00    +0.068 C 
ATOM     31  C   UNL     1       2.324   1.052   0.084  0.00  0.00    +0.063 C 
ATOM     32  N   UNL     1       1.367   1.688  -0.520  0.00  0.00    -0.185 NA
BRANCH  31  33
ATOM     33  C   UNL     1       2.349  -0.422   0.075  0.00  0.00    -0.002 A 
ATOM     34  C   UNL     1       2.790  -1.121   1.202  0.00  0.00    +0.013 A 
ATOM     35  C   UNL     1       2.807  -2.499   1.192  0.00  0.00    +0.046 A 
ATOM     36  C   UNL     1       2.396  -3.192   0.060  0.00  0.00    +0.117 A 
ATOM     37  C   UNL     1       1.962  -2.501  -1.063  0.00  0.00    +0.046 A 
ATOM     38  C   UNL     1       1.936  -1.123  -1.060  0.00  0.00    +0.013 A 
BRANCH  36  39
ATOM     39  O   UNL     1       2.419  -4.551   0.053  0.00  0.00    -0.507 OA
ATOM     40  H   UNL     1       3.253  -4.928  -0.259  0.00  0.00    +0.292 HD
ENDBRANCH  36  39
ENDBRANCH  31  33
ENDBRANCH  26  32
ENDBRANCH  25  27
ENDBRANCH  24  25
ENDBRANCH   1  24
TORSDOF 10
