REMARK  Name = ZINC21524943
REMARK  5 active torsions:
REMARK  status: ('A' for Active; 'I' for Inactive)
REMARK    1  A    between atoms: C_1  and  N_2
REMARK    2  A    between atoms: C_5  and  C_24
REMARK    3  A    between atoms: C_8  and  C_17
REMARK    4  A    between atoms: C_21  and  O_23
REMARK    5  A    between atoms: N_33  and  C_36
REMARK                            x       y       z     vdW  Elec       q    Type
REMARK                         _______ _______ _______ _____ _____    ______ ____
ROOT
ATOM      1  C   UNL     1       3.371  -2.412   0.314  0.00  0.00    +0.154 C 
ATOM      2  N   UNL     1       1.949  -2.106   0.144  0.00  0.00    -0.294 N 
ATOM      3  C   UNL     1       1.489  -0.782   0.078  0.00  0.00    +0.082 A 
ATOM      4  C   UNL     1       0.035  -0.537  -0.093  0.00  0.00    +0.089 A 
ATOM      5  C   UNL     1      -0.131   0.825  -0.125  0.00  0.00    +0.069 A 
ATOM      6  N   UNL     1       1.095   1.392   0.030  0.00  0.00    -0.306 N 
ATOM      7  C   UNL     1       2.069   0.408   0.135  0.00  0.00    +0.073 A 
ATOM      8  C   UNL     1       3.536   0.756   0.269  0.00  0.00    +0.150 C 
ATOM      9  N   UNL     1       3.629   2.099   0.862  0.00  0.00    -0.330 N 
ATOM     10  C   UNL     1       2.725   3.097   0.485  0.00  0.00    +0.052 A 
ATOM     11  C   UNL     1       1.431   2.752   0.078  0.00  0.00    +0.068 A 
ATOM     12  C   UNL     1       0.523   3.735  -0.266  0.00  0.00    +0.028 A 
ATOM     13  C   UNL     1       0.901   5.066  -0.219  0.00  0.00    +0.002 A 
ATOM     14  C   UNL     1       2.183   5.411   0.170  0.00  0.00    +0.002 A 
ATOM     15  C   UNL     1       3.095   4.433   0.521  0.00  0.00    +0.025 A 
ATOM     16  C   UNL     1      -0.877  -1.681  -0.191  0.00  0.00    +0.266 A 
ATOM     17  O   UNL     1      -2.078  -1.546  -0.336  0.00  0.00    -0.267 OA
ATOM     18  N   UNL     1      -0.290  -2.903  -0.111  0.00  0.00    -0.263 N 
ATOM     19  C   UNL     1       1.025  -3.087   0.046  0.00  0.00    +0.332 A 
ATOM     20  O   UNL     1       1.423  -4.234   0.105  0.00  0.00    -0.246 OA
ATOM     21  C   UNL     1      -1.147  -4.088  -0.200  0.00  0.00    +0.157 C 
ATOM     22  H   UNL     1       4.411   2.319   1.604  0.00  0.00    +0.147 HD
ENDROOT
BRANCH   5  23
ATOM     23  C   UNL     1      -1.408   1.544  -0.302  0.00  0.00    -0.000 A 
ATOM     24  C   UNL     1      -1.841   2.454   0.666  0.00  0.00    +0.011 A 
ATOM     25  C   UNL     1      -3.032   3.126   0.491  0.00  0.00    +0.020 A 
ATOM     26  C   UNL     1      -3.804   2.893  -0.635  0.00  0.00    +0.041 A 
ATOM     27  C   UNL     1      -3.383   1.989  -1.595  0.00  0.00    +0.020 A 
ATOM     28  C   UNL     1      -2.191   1.314  -1.436  0.00  0.00    +0.011 A 
ATOM     29 CL   UNL     1      -5.306   3.739  -0.843  0.00  0.00    -0.084 Cl
ENDBRANCH   5  23
BRANCH   8  30
ATOM     30  C   UNL     1       4.187   0.752  -1.090  0.00  0.00    -0.018 A 
ATOM     31  C   UNL     1       5.082  -0.248  -1.425  0.00  0.00    +0.006 A 
ATOM     32  C   UNL     1       5.680  -0.255  -2.671  0.00  0.00    +0.004 A 
ATOM     33  C   UNL     1       5.386   0.739  -3.585  0.00  0.00    +0.045 A 
ATOM     34  C   UNL     1       4.490   1.744  -3.252  0.00  0.00    +0.117 A 
ATOM     35  C   UNL     1       3.886   1.745  -2.002  0.00  0.00    +0.051 A 
BRANCH  34  36
ATOM     36  O   UNL     1       4.199   2.722  -4.149  0.00  0.00    -0.507 OA
ATOM     37  H   UNL     1       3.488   3.518  -3.883  0.00  0.00    +0.292 HD
ENDBRANCH  34  36
ENDBRANCH   8  30
TORSDOF 3
