REMARK  Name = ZINC15634648
REMARK  8 active torsions:
REMARK  status: ('A' for Active; 'I' for Inactive)
REMARK    1  A    between atoms: C_4  and  C_7
REMARK    2  A    between atoms: C_7  and  C_9
REMARK    3  A    between atoms: C_11  and  C_23
REMARK    4  A    between atoms: C_17  and  C_18
REMARK    5  A    between atoms: C_17  and  O_22
REMARK    6  A    between atoms: C_26  and  O_29
REMARK    7  A    between atoms: O_29  and  C_30
REMARK    8  A    between atoms: C_30  and  C_32
REMARK                            x       y       z     vdW  Elec       q    Type
REMARK                         _______ _______ _______ _____ _____    ______ ____
ROOT
ATOM      1  C   UNL     1       4.858  -0.640  -0.285  0.00  0.00    +0.144 C 
ATOM      2  C   UNL     1       6.079  -0.745   0.635  0.00  0.00    +0.120 C 
ATOM      3  N   UNL     1       6.981  -1.776   0.120  0.00  0.00    -0.292 N 
ATOM      4  C   UNL     1       7.045  -2.055  -1.190  0.00  0.00    +0.302 C 
ATOM      5  O   UNL     1       7.820  -2.913  -1.567  0.00  0.00    -0.253 OA
ATOM      6  N   UNL     1       6.288  -1.426  -2.101  0.00  0.00    -0.264 N 
ATOM      7  C   UNL     1       5.345  -0.376  -1.714  0.00  0.00    +0.243 C 
ATOM      8  H   UNL     1       7.544  -2.266   0.739  0.00  0.00    +0.151 HD
ATOM      9  H   UNL     1       6.366  -1.673  -3.036  0.00  0.00    +0.153 HD
ENDROOT
BRANCH   2  10
ATOM     10  C   UNL     1       5.631  -1.117   2.026  0.00  0.00    -0.026 A 
ATOM     11  C   UNL     1       5.338  -0.126   2.945  0.00  0.00    +0.009 A 
ATOM     12  C   UNL     1       4.923  -0.464   4.218  0.00  0.00    +0.047 A 
ATOM     13  C   UNL     1       4.810  -1.800   4.577  0.00  0.00    +0.132 A 
ATOM     14  C   UNL     1       5.110  -2.792   3.655  0.00  0.00    +0.047 A 
ATOM     15  C   UNL     1       5.520  -2.448   2.381  0.00  0.00    +0.009 A 
BRANCH  13  16
ATOM     16  O   UNL     1       4.406  -2.135   5.831  0.00  0.00    -0.422 OA
BRANCH  16  17
ATOM     17  C   UNL     1       5.366  -2.484   6.710  0.00  0.00    +0.346 C 
ATOM     18  O   UNL     1       6.521  -2.573   6.345  0.00  0.00    -0.244 OA
BRANCH  17  19
ATOM     19  C   UNL     1       5.013  -2.759   8.118  0.00  0.00    +0.077 A 
ATOM     20  C   UNL     1       6.001  -3.129   9.040  0.00  0.00    +0.018 A 
ATOM     21  C   UNL     1       5.619  -3.369  10.348  0.00  0.00    +0.020 A 
ATOM     22  C   UNL     1       4.285  -3.249  10.697  0.00  0.00    +0.111 A 
ATOM     23  N   UNL     1       3.376  -2.905   9.806  0.00  0.00    -0.262 NA
ATOM     24  C   UNL     1       3.690  -2.660   8.550  0.00  0.00    +0.125 A 
ENDBRANCH  17  19
ENDBRANCH  16  17
ENDBRANCH  13  16
ENDBRANCH   2  10
BRANCH   7  25
ATOM     25  C   UNL     1       6.041   0.985  -1.773  0.00  0.00    +0.436 C 
ATOM     26  F   UNL     1       7.134   0.989  -0.900  0.00  0.00    -0.166 F 
ATOM     27  F   UNL     1       6.485   1.225  -3.078  0.00  0.00    -0.166 F 
ATOM     28  F   UNL     1       5.140   1.987  -1.395  0.00  0.00    -0.166 F 
ENDBRANCH   7  25
BRANCH   1  29
ATOM     29  C   UNL     1       4.082  -1.932  -0.245  0.00  0.00    +0.173 C 
ATOM     30  O   UNL     1       4.664  -2.983  -0.082  0.00  0.00    -0.292 OA
BRANCH  29  34
ATOM     31  C   UNL     1      -0.134  -1.889  -0.706  0.00  0.00    +0.000 A 
ATOM     32  C   UNL     1       0.574  -0.701  -0.743  0.00  0.00    +0.001 A 
ATOM     33  C   UNL     1       1.945  -0.706  -0.594  0.00  0.00    +0.011 A 
ATOM     34  C   UNL     1       2.619  -1.917  -0.405  0.00  0.00    +0.018 A 
ATOM     35  C   UNL     1       1.896  -3.113  -0.369  0.00  0.00    +0.011 A 
ATOM     36  C   UNL     1       0.526  -3.091  -0.519  0.00  0.00    +0.001 A 
ENDBRANCH  29  34
ENDBRANCH   1  29
BRANCH   7  37
ATOM     37  O   UNL     1       4.230  -0.382  -2.607  0.00  0.00    -0.364 OA
ATOM     38  H   UNL     1       4.465  -0.220  -3.531  0.00  0.00    +0.212 HD
ENDBRANCH   7  37
TORSDOF 8
