REMARK  Name = ZINC39315977
REMARK  2 active torsions:
REMARK  status: ('A' for Active; 'I' for Inactive)
REMARK    1  A    between atoms: N_12  and  C_13
REMARK    2  A    between atoms: C_16  and  C_19
REMARK                            x       y       z     vdW  Elec       q    Type
REMARK                         _______ _______ _______ _____ _____    ______ ____
ROOT
ATOM      1  C   UNL     1      -0.019   1.524   0.010  0.00  0.00    +0.005 C 
ATOM      2  C   UNL     1       1.430   2.025  -0.001  0.00  0.00    +0.006 C 
ATOM      3  C   UNL     1       2.066   1.690   1.347  0.00  0.00    +0.056 C 
ATOM      4  C   UNL     1       1.857   0.237   1.685  0.00  0.00    +0.053 A 
ATOM      5  C   UNL     1       0.913  -0.527   1.080  0.00  0.00    +0.038 A 
ATOM      6  C   UNL     1       0.777  -1.877   1.467  0.00  0.00    +0.256 A 
ATOM      7  O   UNL     1      -0.068  -2.588   0.947  0.00  0.00    -0.267 OA
ATOM      8  N   UNL     1       1.594  -2.372   2.418  0.00  0.00    -0.295 N 
ATOM      9  H   UNL     1       1.516  -3.299   2.695  0.00  0.00    +0.172 HD
ATOM     10  C   UNL     1       2.528  -1.562   2.986  0.00  0.00    +0.198 A 
ATOM     11  N   UNL     1       2.643  -0.304   2.624  0.00  0.00    -0.221 NA
ATOM     12  N   UNL     1       3.360  -2.066   3.950  0.00  0.00    -0.285 N 
ATOM     13  C   UNL     1       0.002  -0.004   0.002  0.00  0.00    +0.042 C 
ATOM     14  H   UNL     1       3.282  -2.993   4.223  0.00  0.00    +0.152 HD
ENDROOT
BRANCH  12  15
ATOM     15  C   UNL     1       4.370  -1.203   4.569  0.00  0.00    +0.251 C 
ATOM     16  N   UNL     1       5.327  -1.993   5.370  0.00  0.00    -0.250 NA
ATOM     17  C   UNL     1       5.250  -2.007   6.624  0.00  0.00    +0.128 C 
ATOM     18  C   UNL     1       4.154  -1.194   7.298  0.00  0.00    +0.132 C 
ATOM     19  S   UNL     1       3.624  -0.136   5.878  0.00  0.00    -0.109 S 
BRANCH  17  20
ATOM     20  C   UNL     1       6.224  -2.813   7.444  0.00  0.00    +0.431 C 
ATOM     21  F   UNL     1       7.124  -3.463   6.594  0.00  0.00    -0.165 F 
ATOM     22  F   UNL     1       6.926  -1.962   8.304  0.00  0.00    -0.165 F 
ATOM     23  F   UNL     1       5.525  -3.763   8.197  0.00  0.00    -0.165 F 
ENDBRANCH  17  20
ENDBRANCH  12  15
TORSDOF 2
