REMARK  Name = ZINC15135236
REMARK  8 active torsions:
REMARK  status: ('A' for Active; 'I' for Inactive)
REMARK    1  A    between atoms: C_1  and  C_2
REMARK    2  A    between atoms: C_2  and  O_3
REMARK    3  A    between atoms: O_3  and  C_4
REMARK    4  A    between atoms: C_4  and  C_6
REMARK    5  A    between atoms: C_7  and  C_23
REMARK    6  A    between atoms: C_8  and  N_12
REMARK    7  A    between atoms: C_13  and  C_14
REMARK    8  A    between atoms: C_19  and  O_20
REMARK                            x       y       z     vdW  Elec       q    Type
REMARK                         _______ _______ _______ _____ _____    ______ ____
ROOT
ATOM      1  C   UNL     1      -2.852  -2.419   0.016  0.00  0.00    +0.179 A 
ATOM      2  C   UNL     1      -3.174  -3.804   0.018  0.00  0.00    +0.060 A 
ATOM      3  C   UNL     1      -4.568  -3.848   0.029  0.00  0.00    +0.157 A 
ATOM      4  N   UNL     1      -4.993  -2.550   0.033  0.00  0.00    -0.259 N 
ATOM      5  H   UNL     1      -5.922  -2.271   0.041  0.00  0.00    +0.191 HD
ATOM      6  N   UNL     1      -3.988  -1.752   0.031  0.00  0.00    -0.165 NA
ENDROOT
BRANCH   2   7
ATOM      7  C   UNL     1      -2.236  -4.949   0.009  0.00  0.00    -0.012 A 
ATOM      8  C   UNL     1      -1.402  -5.163  -1.089  0.00  0.00    +0.009 A 
ATOM      9  C   UNL     1      -0.529  -6.231  -1.091  0.00  0.00    +0.001 A 
ATOM     10  C   UNL     1      -0.479  -7.090  -0.007  0.00  0.00    +0.000 A 
ATOM     11  C   UNL     1      -1.304  -6.883   1.085  0.00  0.00    +0.001 A 
ATOM     12  C   UNL     1      -2.177  -5.815   1.101  0.00  0.00    +0.009 A 
ENDBRANCH   2   7
BRANCH   1  13
ATOM     13  C   UNL     1      -1.497  -1.837   0.006  0.00  0.00    +0.360 C 
ATOM     14  O   UNL     1      -0.523  -2.564  -0.007  0.00  0.00    -0.243 OA
BRANCH  13  15
ATOM     15  O   UNL     1      -1.339  -0.499   0.012  0.00  0.00    -0.460 OA
BRANCH  15  17
ATOM     16  C   UNL     1      -0.019   1.526   0.010  0.00  0.00    +0.048 C 
ATOM     17  C   UNL     1       0.002  -0.004   0.002  0.00  0.00    +0.229 C 
ENDBRANCH  15  17
ENDBRANCH  13  15
ENDBRANCH   1  13
BRANCH   3  18
ATOM     18  N   UNL     1      -5.348  -4.960   0.034  0.00  0.00    -0.235 NA
ATOM     19  C   UNL     1      -6.649  -4.845   0.044  0.00  0.00    +0.124 C 
BRANCH  19  20
ATOM     20  C   UNL     1      -7.493  -6.048   0.050  0.00  0.00    +0.037 A 
ATOM     21  C   UNL     1      -8.887  -5.930   0.056  0.00  0.00    +0.028 A 
ATOM     22  C   UNL     1      -9.672  -7.063   0.061  0.00  0.00    +0.020 A 
ATOM     23  C   UNL     1      -9.087  -8.320   0.061  0.00  0.00    +0.034 A 
ATOM     24  C   UNL     1      -7.711  -8.451   0.057  0.00  0.00    +0.061 A 
ATOM     25  C   UNL     1      -6.905  -7.322   0.044  0.00  0.00    +0.139 A 
ATOM     26 BR   UNL     1      -6.927 -10.171   0.059  0.00  0.00    -0.046 Br
ATOM     27 BR   UNL     1     -11.557  -6.902   0.068  0.00  0.00    -0.050 Br
BRANCH  25  28
ATOM     28  O   UNL     1      -5.554  -7.450   0.033  0.00  0.00    -0.505 OA
ATOM     29  H   UNL     1      -5.155  -7.488   0.914  0.00  0.00    +0.292 HD
ENDBRANCH  25  28
ENDBRANCH  19  20
ENDBRANCH   3  18
TORSDOF 7
