REMARK  Name = ZINC39459399
REMARK  9 active torsions:
REMARK  status: ('A' for Active; 'I' for Inactive)
REMARK    1  A    between atoms: C_1  and  C_2
REMARK    2  A    between atoms: C_2  and  O_3
REMARK    3  A    between atoms: O_3  and  C_4
REMARK    4  A    between atoms: C_5  and  C_36
REMARK    5  A    between atoms: N_6  and  C_29
REMARK    6  A    between atoms: C_18  and  S_19
REMARK    7  A    between atoms: S_19  and  O_22
REMARK    8  A    between atoms: O_22  and  C_23
REMARK    9  A    between atoms: C_34  and  O_35
REMARK                            x       y       z     vdW  Elec       q    Type
REMARK                         _______ _______ _______ _____ _____    ______ ____
ROOT
ATOM      1  C   UNL     1       0.052  -1.866  -0.913  0.00  0.00    +0.145 A 
ATOM      2  C   UNL     1       1.058  -2.614  -0.391  0.00  0.00    +0.063 A 
ATOM      3  N   UNL     1       0.917  -3.905  -0.822  0.00  0.00    -0.305 N 
ATOM      4  C   UNL     1      -0.181  -3.970  -1.631  0.00  0.00    +0.080 A 
ATOM      5  C   UNL     1      -0.747  -2.710  -1.689  0.00  0.00    +0.022 A 
ATOM      6  C   UNL     1      -2.001  -2.376  -2.447  0.00  0.00    +0.049 C 
ATOM      7  C   UNL     1      -1.734  -2.392  -3.959  0.00  0.00    +0.084 C 
ATOM      8  C   UNL     1      -0.871  -3.586  -4.298  0.00  0.00    +0.168 C 
ATOM      9  O   UNL     1       0.049  -3.450  -5.077  0.00  0.00    -0.292 OA
ATOM     10  C   UNL     1      -1.118  -4.899  -3.708  0.00  0.00    +0.073 A 
ATOM     11  C   UNL     1      -0.736  -5.119  -2.366  0.00  0.00    +0.100 A 
ATOM     12  N   UNL     1      -0.900  -6.308  -1.813  0.00  0.00    -0.253 NA
ATOM     13  C   UNL     1      -1.437  -7.308  -2.486  0.00  0.00    +0.113 A 
ATOM     14  C   UNL     1      -1.852  -7.157  -3.800  0.00  0.00    +0.051 A 
ATOM     15  C   UNL     1      -1.704  -5.943  -4.425  0.00  0.00    +0.142 A 
ATOM     16  C   UNL     1       2.151  -2.106   0.515  0.00  0.00    +0.068 C 
ENDROOT
BRANCH   3  17
ATOM     17  C   UNL     1       1.756  -4.978  -0.490  0.00  0.00    +0.089 A 
ATOM     18  C   UNL     1       1.481  -5.757   0.625  0.00  0.00    +0.030 A 
ATOM     19  C   UNL     1       2.309  -6.814   0.950  0.00  0.00    +0.002 A 
ATOM     20  C   UNL     1       3.413  -7.098   0.167  0.00  0.00    +0.004 A 
ATOM     21  C   UNL     1       3.694  -6.326  -0.945  0.00  0.00    +0.047 A 
ATOM     22  C   UNL     1       2.865  -5.268  -1.281  0.00  0.00    +0.141 A 
BRANCH  22  23
ATOM     23  O   UNL     1       3.137  -4.511  -2.377  0.00  0.00    -0.505 OA
ATOM     24  H   UNL     1       3.710  -3.752  -2.199  0.00  0.00    +0.292 HD
ENDBRANCH  22  23
ENDBRANCH   3  17
BRANCH  15  25
ATOM     25  S   UNL     1      -2.226  -5.719  -6.093  0.00  0.00    +0.152 S 
ATOM     26  O   UNL     1      -3.608  -5.391  -6.045  0.00  0.00    -0.131 OA
ATOM     27  O   UNL     1      -1.264  -4.875  -6.710  0.00  0.00    -0.131 OA
BRANCH  25  28
ATOM     28  O   UNL     1      -2.124  -7.072  -6.782  0.00  0.00    -0.342 OA
BRANCH  28  29
ATOM     29  C   UNL     1      -0.853  -7.438  -7.097  0.00  0.00    +0.157 A 
ATOM     30  C   UNL     1      -0.274  -6.992  -8.276  0.00  0.00    +0.048 A 
ATOM     31  C   UNL     1       1.018  -7.365  -8.593  0.00  0.00    +0.004 A 
ATOM     32  C   UNL     1       1.733  -8.181  -7.737  0.00  0.00    +0.000 A 
ATOM     33  C   UNL     1       1.158  -8.626  -6.561  0.00  0.00    +0.004 A 
ATOM     34  C   UNL     1      -0.131  -8.252  -6.236  0.00  0.00    +0.048 A 
ENDBRANCH  28  29
ENDBRANCH  25  28
ENDBRANCH  15  25
BRANCH   1  35
ATOM     35  O   UNL     1      -0.146  -0.533  -0.712  0.00  0.00    -0.490 OA
BRANCH  35  37
ATOM     36  C   UNL     1      -1.064   1.366   0.467  0.00  0.00    +0.048 C 
ATOM     37  C   UNL     1      -0.956  -0.159   0.404  0.00  0.00    +0.226 C 
ENDBRANCH  35  37
ENDBRANCH   1  35
TORSDOF 7
