REMARK  Name = ZINC27591264
REMARK  11 active torsions:
REMARK  status: ('A' for Active; 'I' for Inactive)
REMARK    1  A    between atoms: C_1  and  C_2
REMARK    2  A    between atoms: C_5  and  C_8
REMARK    3  A    between atoms: C_8  and  C_32
REMARK    4  A    between atoms: N_11  and  C_15
REMARK    5  A    between atoms: C_15  and  C_16
REMARK    6  A    between atoms: N_18  and  C_19
REMARK    7  A    between atoms: C_19  and  C_20
REMARK    8  A    between atoms: C_20  and  C_22
REMARK    9  A    between atoms: C_20  and  N_29
REMARK   10  A    between atoms: N_29  and  C_30
REMARK   11  A    between atoms: N_29  and  C_31
REMARK                            x       y       z     vdW  Elec       q    Type
REMARK                         _______ _______ _______ _____ _____    ______ ____
ROOT
ATOM      1  C   UNL     1      -0.498  -7.061  -2.712  0.00  0.00    +0.213 C 
ENDROOT
BRANCH   1   5
ATOM      2  C   UNL     1       3.143  -6.369  -2.473  0.00  0.00    +0.135 C 
ATOM      3  C   UNL     1       1.877  -6.590  -3.276  0.00  0.00    +0.251 C 
ATOM      4  O   UNL     1       1.764  -6.577  -4.483  0.00  0.00    -0.272 OA
ATOM      5  N   UNL     1       0.903  -6.802  -2.369  0.00  0.00    -0.215 N 
ATOM      6  C   UNL     1       1.373  -6.747  -1.118  0.00  0.00    +0.310 C 
ATOM      7  O   UNL     1       0.683  -6.906  -0.130  0.00  0.00    -0.252 OA
ATOM      8  N   UNL     1       2.693  -6.494  -1.076  0.00  0.00    -0.281 N 
ATOM      9  C   UNL     1       4.185  -7.439  -2.805  0.00  0.00    +0.047 C 
ATOM     10  H   UNL     1       3.415  -6.378  -0.253  0.00  0.00    +0.152 HD
BRANCH   2  15
ATOM     11  C   UNL     1       5.277  -1.089  -3.454  0.00  0.00    +0.044 C 
ATOM     12  C   UNL     1       4.721  -2.466  -3.199  0.00  0.00    -0.050 A 
ATOM     13  C   UNL     1       4.005  -3.116  -4.186  0.00  0.00    +0.004 A 
ATOM     14  C   UNL     1       3.499  -4.382  -3.953  0.00  0.00    +0.006 A 
ATOM     15  C   UNL     1       3.700  -4.992  -2.729  0.00  0.00    -0.015 A 
ATOM     16  C   UNL     1       4.411  -4.339  -1.740  0.00  0.00    +0.006 A 
ATOM     17  C   UNL     1       4.922  -3.076  -1.975  0.00  0.00    +0.004 A 
ENDBRANCH   2  15
ENDBRANCH   1   5
BRANCH   1  18
ATOM     18  C   UNL     1      -0.711  -8.544  -2.869  0.00  0.00    +0.231 C 
ATOM     19  O   UNL     1       0.216  -9.310  -2.710  0.00  0.00    -0.274 OA
ATOM     20  N   UNL     1      -1.931  -9.021  -3.185  0.00  0.00    -0.315 N 
ATOM     21  H   UNL     1      -2.772  -8.326  -3.329  0.00  0.00    +0.149 HD
BRANCH  20  22
ATOM     22  C   UNL     1      -2.138 -10.463  -3.338  0.00  0.00    +0.093 C 
BRANCH  22  23
ATOM     23  C   UNL     1      -3.621 -10.741  -3.593  0.00  0.00    -0.021 C 
BRANCH  23  24
ATOM     24  C   UNL     1      -3.830 -12.223  -3.775  0.00  0.00    -0.057 A 
ATOM     25  C   UNL     1      -4.508 -12.948  -2.812  0.00  0.00    +0.002 A 
ATOM     26  C   UNL     1      -4.700 -14.307  -2.977  0.00  0.00    +0.003 A 
ATOM     27  C   UNL     1      -4.215 -14.942  -4.105  0.00  0.00    +0.038 A 
ATOM     28  C   UNL     1      -3.537 -14.216  -5.070  0.00  0.00    +0.124 A 
ATOM     29  C   UNL     1      -3.349 -12.854  -4.906  0.00  0.00    +0.040 A 
ATOM     30  F   UNL     1      -3.062 -14.836  -6.172  0.00  0.00    -0.205 F 
ENDBRANCH  23  24
BRANCH  23  31
ATOM     31  N   UNL     1      -4.050 -10.034  -4.807  0.00  0.00    +0.382 N 
ATOM     32  C   UNL     1      -2.927  -9.855  -5.737  0.00  0.00    -0.096 C 
ATOM     33  C   UNL     1      -5.166 -10.733  -5.458  0.00  0.00    -0.096 C 
ATOM     34  H   UNL     1      -4.404  -9.036  -4.509  0.00  0.00    -0.082 HD
ENDBRANCH  23  31
ENDBRANCH  22  23
ENDBRANCH  20  22
ENDBRANCH   1  18
TORSDOF 7
