REMARK  Name = ZINC21226015
REMARK  5 active torsions:
REMARK  status: ('A' for Active; 'I' for Inactive)
REMARK    1  A    between atoms: C_1  and  O_2
REMARK    2  A    between atoms: O_2  and  C_3
REMARK    3  A    between atoms: C_5  and  C_10
REMARK    4  A    between atoms: C_8  and  O_9
REMARK    5  A    between atoms: C_15  and  C_20
REMARK                            x       y       z     vdW  Elec       q    Type
REMARK                         _______ _______ _______ _____ _____    ______ ____
ROOT
ATOM      1  C   UNL     1      -2.513   0.975   0.019  0.00  0.00    +0.136 C 
ATOM      2  C   UNL     1      -2.896   0.682  -1.412  0.00  0.00    +0.036 C 
ATOM      3  C   UNL     1      -2.875  -0.521  -2.007  0.00  0.00    +0.017 C 
ATOM      4  C   UNL     1      -3.303  -0.674  -3.456  0.00  0.00    +0.060 C 
ATOM      5  C   UNL     1      -2.959   0.585  -4.238  0.00  0.00    +0.039 C 
ATOM      6  C   UNL     1      -3.705   1.754  -3.583  0.00  0.00    +0.088 C 
ATOM      7  C   UNL     1      -3.306   1.824  -2.140  0.00  0.00    +0.163 C 
ATOM      8  O   UNL     1      -3.336   2.900  -1.575  0.00  0.00    -0.292 OA
ATOM      9  N   UNL     1      -2.500  -1.674  -1.398  0.00  0.00    -0.316 N 
ATOM     10  C   UNL     1      -1.367  -1.826  -0.608  0.00  0.00    +0.052 A 
ATOM     11  C   UNL     1      -0.344  -2.696  -0.942  0.00  0.00    +0.025 A 
ATOM     12  C   UNL     1       0.701  -2.887  -0.054  0.00  0.00    +0.002 A 
ATOM     13  C   UNL     1       0.723  -2.213   1.154  0.00  0.00    +0.002 A 
ATOM     14  C   UNL     1      -0.288  -1.326   1.479  0.00  0.00    +0.025 A 
ATOM     15  C   UNL     1      -1.327  -1.119   0.585  0.00  0.00    +0.049 A 
ATOM     16  N   UNL     1      -2.342  -0.201   0.846  0.00  0.00    -0.331 N 
ATOM     17  H   UNL     1      -3.112  -2.581  -1.513  0.00  0.00    +0.152 HD
ATOM     18  H   UNL     1      -3.019  -0.379   1.695  0.00  0.00    +0.147 HD
ENDROOT
BRANCH   1  21
ATOM     19  C   UNL     1      -0.008   3.765   0.479  0.00  0.00    +0.162 A 
ATOM     20  C   UNL     1      -1.195   3.050   0.485  0.00  0.00    +0.055 A 
ATOM     21  C   UNL     1      -1.220   1.749   0.017  0.00  0.00    -0.019 A 
ATOM     22  C   UNL     1      -0.061   1.156  -0.447  0.00  0.00    +0.009 A 
ATOM     23  C   UNL     1       1.126   1.864  -0.456  0.00  0.00    +0.049 A 
ATOM     24  C   UNL     1       1.157   3.170   0.006  0.00  0.00    +0.158 A 
BRANCH  19  26
ATOM     25  C   UNL     1      -1.216   5.593   1.404  0.00  0.00    +0.277 C 
ATOM     26  O   UNL     1       0.018   5.047   0.934  0.00  0.00    -0.491 OA
ENDBRANCH  19  26
BRANCH  24  27
ATOM     27  O   UNL     1       2.324   3.868  -0.003  0.00  0.00    -0.503 OA
ATOM     28  H   UNL     1       3.245   3.396  -0.377  0.00  0.00    +0.292 HD
ENDBRANCH  24  27
ENDBRANCH   1  21
BRANCH   5  29
ATOM     29  C   UNL     1      -3.402   0.434  -5.670  0.00  0.00    -0.006 A 
ATOM     30  C   UNL     1      -2.666   0.517  -6.805  0.00  0.00    +0.011 A 
ATOM     31  C   UNL     1      -3.291   0.339  -8.025  0.00  0.00    +0.008 A 
ATOM     32  C   UNL     1      -4.625   0.097  -8.051  0.00  0.00    +0.045 A 
ATOM     33  S   UNL     1      -5.036   0.109  -6.313  0.00  0.00    -0.101 S 
ENDBRANCH   5  29
TORSDOF 4
