REMARK  Name = ZINC01088974
REMARK  9 active torsions:
REMARK  status: ('A' for Active; 'I' for Inactive)
REMARK    1  A    between atoms: C_1  and  O_2
REMARK    2  A    between atoms: O_2  and  C_3
REMARK    3  A    between atoms: C_7  and  C_10
REMARK    4  A    between atoms: C_8  and  O_9
REMARK    5  A    between atoms: N_11  and  N_12
REMARK    6  A    between atoms: C_13  and  C_15
REMARK    7  A    between atoms: C_20  and  C_21
REMARK    8  A    between atoms: C_20  and  N_54
REMARK    9  A    between atoms: C_24  and  N_27
REMARK                            x       y       z     vdW  Elec       q    Type
REMARK                         _______ _______ _______ _____ _____    ______ ____
ROOT
ATOM      1  N   UNL     1      -2.536   4.101   0.036  0.00  0.00    -0.207 N 
ATOM      2  C   UNL     1      -2.551   5.449   0.044  0.00  0.00    +0.235 C 
ATOM      3  O   UNL     1      -1.507   6.067   0.042  0.00  0.00    -0.274 OA
ATOM      4  H   UNL     1      -3.371   3.607   0.038  0.00  0.00    +0.177 HD
ENDROOT
BRANCH   2   5
ATOM      5  C   UNL     1      -3.864   6.188   0.054  0.00  0.00    +0.073 C 
ATOM      6  C   UNL     1      -4.666   5.823  -1.198  0.00  0.00    -0.006 C 
ATOM      7  C   UNL     1      -5.971   6.623  -1.213  0.00  0.00    -0.078 C 
ATOM      8  C   UNL     1      -4.938   8.442   0.010  0.00  0.00    -0.078 C 
ATOM      9  C   UNL     1      -3.602   7.697   0.061  0.00  0.00    -0.006 C 
ATOM     10  N   UNL     1      -5.650   8.066  -1.230  0.00  0.00    +0.382 N 
ATOM     11  H   UNL     1      -5.043   8.262  -2.035  0.00  0.00    -0.081 HD
BRANCH  10  12
ATOM     12  C   UNL     1      -6.890   8.857  -1.359  0.00  0.00    -0.043 C 
BRANCH  12  13
ATOM     13  C   UNL     1      -7.479   8.617  -2.725  0.00  0.00    -0.064 A 
ATOM     14  C   UNL     1      -7.107   9.417  -3.789  0.00  0.00    +0.004 A 
ATOM     15  C   UNL     1      -7.645   9.193  -5.043  0.00  0.00    +0.033 A 
ATOM     16  C   UNL     1      -8.561   8.175  -5.231  0.00  0.00    +0.126 A 
ATOM     17  C   UNL     1      -8.937   7.378  -4.166  0.00  0.00    +0.033 A 
ATOM     18  C   UNL     1      -8.396   7.599  -2.913  0.00  0.00    +0.004 A 
BRANCH  16  19
ATOM     19  N   UNL     1      -9.140   7.939  -6.573  0.00  0.00    +0.056 N 
ATOM     20  O   UNL     1      -9.947   7.042  -6.738  0.00  0.00    -0.126 OA
ATOM     21  O   UNL     1      -8.809   8.641  -7.511  0.00  0.00    -0.126 OA
ENDBRANCH  16  19
ENDBRANCH  12  13
ENDBRANCH  10  12
ENDBRANCH   2   5
BRANCH   1  23
ATOM     22  C   UNL     1      -1.301   2.116   0.020  0.00  0.00    +0.142 C 
ATOM     23  N   UNL     1      -1.315   3.414   0.027  0.00  0.00    -0.188 NA
BRANCH  22  28
ATOM     24  C   UNL     1       2.395   1.412  -0.013  0.00  0.00    +0.163 A 
ATOM     25  C   UNL     1       2.400   0.026  -0.020  0.00  0.00    +0.064 A 
ATOM     26  C   UNL     1       1.206  -0.677  -0.013  0.00  0.00    +0.022 A 
ATOM     27  C   UNL     1       0.002  -0.004   0.002  0.00  0.00    +0.028 A 
ATOM     28  C   UNL     1      -0.017   1.393   0.010  0.00  0.00    +0.041 A 
ATOM     29  C   UNL     1       1.190   2.103   0.002  0.00  0.00    +0.167 A 
ATOM     30 BR   UNL     1       1.228  -2.568  -0.024  0.00  0.00    -0.050 Br
BRANCH  24  32
ATOM     31  C   UNL     1       4.772   1.321  -0.036  0.00  0.00    +0.277 C 
ATOM     32  O   UNL     1       3.571   2.096  -0.020  0.00  0.00    -0.491 OA
ENDBRANCH  24  32
BRANCH  29  33
ATOM     33  O   UNL     1       1.182   3.462   0.009  0.00  0.00    -0.503 OA
ATOM     34  H   UNL     1       1.188   3.851   0.894  0.00  0.00    +0.292 HD
ENDBRANCH  29  33
ENDBRANCH  22  28
ENDBRANCH   1  23
TORSDOF 8
