REMARK  Name = ZINC44458361
REMARK  3 active torsions:
REMARK  status: ('A' for Active; 'I' for Inactive)
REMARK    1  A    between atoms: C_1  and  C_2
REMARK    2  A    between atoms: C_13  and  C_15
REMARK    3  A    between atoms: N_24  and  C_25
REMARK                            x       y       z     vdW  Elec       q    Type
REMARK                         _______ _______ _______ _____ _____    ______ ____
ROOT
ATOM      1  C   UNL     1      -0.179   2.228   0.751  0.00  0.00    +0.028 C 
ATOM      2  C   UNL     1       0.875   1.439  -0.027  0.00  0.00    +0.079 C 
ATOM      3  C   UNL     1       1.866   2.406  -0.688  0.00  0.00    +0.027 C 
ATOM      4  C   UNL     1       2.865   1.599  -1.517  0.00  0.00    +0.039 C 
ATOM      5  C   UNL     1       3.471   0.497  -0.687  0.00  0.00    -0.023 A 
ATOM      6  C   UNL     1       4.676  -0.057  -1.086  0.00  0.00    +0.043 A 
ATOM      7  C   UNL     1       5.255  -1.072  -0.348  0.00  0.00    +0.124 A 
ATOM      8  C   UNL     1       4.632  -1.541   0.797  0.00  0.00    +0.040 A 
ATOM      9  C   UNL     1       3.432  -0.992   1.201  0.00  0.00    +0.026 A 
ATOM     10  C   UNL     1       2.849   0.030   0.460  0.00  0.00    +0.040 A 
ATOM     11  N   UNL     1       1.632   0.578   0.892  0.00  0.00    -0.268 N 
ATOM     12  C   UNL     1       1.165   0.320   2.130  0.00  0.00    +0.225 C 
ATOM     13  O   UNL     1      -0.011   0.478   2.380  0.00  0.00    -0.275 OA
ATOM     14  F   UNL     1       6.431  -1.608  -0.743  0.00  0.00    -0.205 F 
ENDROOT
BRANCH  12  15
ATOM     15  C   UNL     1       2.106  -0.163   3.204  0.00  0.00    +0.093 C 
ATOM     16  C   UNL     1       2.227   0.903   4.295  0.00  0.00    +0.016 C 
ATOM     17  C   UNL     1       3.207   0.427   5.370  0.00  0.00    +0.020 C 
ATOM     18  C   UNL     1       2.672  -0.859   6.008  0.00  0.00    +0.109 C 
ATOM     19  N   UNL     1       2.416  -1.843   4.947  0.00  0.00    -0.285 N 
ATOM     20  C   UNL     1       1.559  -1.457   3.817  0.00  0.00    +0.122 C 
ATOM     21  C   UNL     1       2.956  -3.076   5.008  0.00  0.00    +0.302 C 
ATOM     22  O   UNL     1       2.665  -3.909   4.172  0.00  0.00    -0.253 OA
ATOM     23  N   UNL     1       3.820  -3.385   5.996  0.00  0.00    -0.296 N 
ATOM     24  H   UNL     1       3.997  -2.745   6.703  0.00  0.00    +0.151 HD
BRANCH  23  25
ATOM     25  C   UNL     1       4.490  -4.687   6.001  0.00  0.00    +0.075 C 
ATOM     26  C   UNL     1       4.577  -5.431   7.335  0.00  0.00    +0.024 C 
ATOM     27  C   UNL     1       5.829  -4.789   6.735  0.00  0.00    +0.024 C 
ENDBRANCH  23  25
ENDBRANCH  12  15
TORSDOF 2
