REMARK  Name = ZINC38599358
REMARK  5 active torsions:
REMARK  status: ('A' for Active; 'I' for Inactive)
REMARK    1  A    between atoms: C_1  and  C_2
REMARK    2  A    between atoms: C_7  and  N_8
REMARK    3  A    between atoms: C_9  and  C_21
REMARK    4  A    between atoms: C_22  and  C_23
REMARK    5  A    between atoms: C_31  and  C_33
REMARK                            x       y       z     vdW  Elec       q    Type
REMARK                         _______ _______ _______ _____ _____    ______ ____
ROOT
ATOM      1  N   UNL     1       0.010  -0.030   2.452  0.00  0.00    -0.245 N 
ATOM      2  C   UNL     1      -1.263   0.320   3.083  0.00  0.00    +0.190 C 
ATOM      3  N   UNL     1      -1.125   0.316   4.544  0.00  0.00    -0.322 N 
ATOM      4  C   UNL     1       0.005   0.895   5.111  0.00  0.00    +0.041 A 
ATOM      5  C   UNL     1      -0.022   1.457   6.376  0.00  0.00    +0.025 A 
ATOM      6  C   UNL     1       1.129   2.011   6.903  0.00  0.00    +0.016 A 
ATOM      7  C   UNL     1       2.310   2.007   6.176  0.00  0.00    +0.014 A 
ATOM      8  C   UNL     1       2.352   1.455   4.912  0.00  0.00    +0.029 A 
ATOM      9  C   UNL     1       1.198   0.897   4.367  0.00  0.00    +0.059 A 
ATOM     10  C   UNL     1       1.186   0.312   3.016  0.00  0.00    +0.254 C 
ATOM     11  O   UNL     1       2.228   0.143   2.412  0.00  0.00    -0.270 OA
ATOM     12  I   UNL     1       4.042   2.846   7.003  0.00  0.00    -0.044 I 
ATOM     13  H   UNL     1      -1.810  -0.083   5.103  0.00  0.00    +0.148 HD
ENDROOT
BRANCH   1  20
ATOM     14  C   UNL     1      -0.014   1.456   0.025  0.00  0.00    +0.045 C 
ATOM     15  C   UNL     1      -0.005  -0.051   0.037  0.00  0.00    -0.029 A 
ATOM     16  C   UNL     1      -0.002  -0.752  -1.153  0.00  0.00    +0.005 A 
ATOM     17  C   UNL     1       0.007  -2.134  -1.143  0.00  0.00    +0.000 A 
ATOM     18  C   UNL     1       0.013  -2.820   0.058  0.00  0.00    +0.002 A 
ATOM     19  C   UNL     1       0.011  -2.126   1.252  0.00  0.00    +0.024 A 
ATOM     20  C   UNL     1       0.007  -0.736   1.245  0.00  0.00    +0.042 A 
ENDBRANCH   1  20
BRANCH   2  21
ATOM     21  C   UNL     1      -1.684   1.694   2.629  0.00  0.00    +0.015 C 
ATOM     22  C   UNL     1      -2.846   1.859   1.979  0.00  0.00    +0.005 C 
BRANCH  22  23
ATOM     23  C   UNL     1      -3.300   3.156   1.666  0.00  0.00    -0.017 C 
ATOM     24  C   UNL     1      -4.518   3.504   1.095  0.00  0.00    +0.003 A 
ATOM     25  C   UNL     1      -5.626   2.737   0.667  0.00  0.00    +0.010 A 
ATOM     26  C   UNL     1      -6.707   3.358   0.134  0.00  0.00    +0.001 A 
ATOM     27  C   UNL     1      -6.760   4.749  -0.007  0.00  0.00    +0.002 A 
ATOM     28  C   UNL     1      -5.737   5.546   0.381  0.00  0.00    +0.026 A 
ATOM     29  C   UNL     1      -4.568   4.970   0.949  0.00  0.00    +0.043 A 
ATOM     30  N   UNL     1      -3.458   5.516   1.397  0.00  0.00    -0.378 N 
ATOM     31  C   UNL     1      -2.567   4.461   1.889  0.00  0.00    +0.107 C 
ATOM     32  C   UNL     1      -1.257   4.470   1.098  0.00  0.00    +0.035 C 
ATOM     33  H   UNL     1      -3.262   6.465   1.404  0.00  0.00    +0.160 HD
ENDBRANCH  22  23
ENDBRANCH   2  21
TORSDOF 3
