REMARK  Name = ZINC39960774
REMARK  9 active torsions:
REMARK  status: ('A' for Active; 'I' for Inactive)
REMARK    1  A    between atoms: C_1  and  C_2
REMARK    2  A    between atoms: C_4  and  C_13
REMARK    3  A    between atoms: C_6  and  C_8
REMARK    4  A    between atoms: C_22  and  C_24
REMARK    5  A    between atoms: C_24  and  N_25
REMARK    6  A    between atoms: N_25  and  C_26
REMARK    7  A    between atoms: C_26  and  C_27
REMARK    8  A    between atoms: C_30  and  C_32
REMARK    9  A    between atoms: C_32  and  O_33
REMARK                            x       y       z     vdW  Elec       q    Type
REMARK                         _______ _______ _______ _____ _____    ______ ____
ROOT
ATOM      1  C   UNL     1      -0.466  -2.652  -2.319  0.00  0.00    +0.024 C 
ATOM      2  C   UNL     1       0.574  -3.774  -2.370  0.00  0.00    -0.069 C 
ATOM      3  N   UNL     1      -0.094  -5.070  -2.506  0.00  0.00    +0.381 N 
ATOM      4  C   UNL     1      -0.861  -5.127  -3.753  0.00  0.00    -0.078 C 
ATOM      5  C   UNL     1      -1.949  -4.050  -3.748  0.00  0.00    -0.015 C 
ATOM      6  C   UNL     1      -1.868  -3.267  -2.431  0.00  0.00    -0.007 C 
ATOM      7  C   UNL     1      -2.057  -4.254  -1.272  0.00  0.00    -0.013 C 
ATOM      8  C   UNL     1      -0.962  -5.327  -1.354  0.00  0.00    -0.086 C 
ATOM      9  H   UNL     1       0.612  -5.791  -2.542  0.00  0.00    -0.082 HD
ENDROOT
BRANCH   1  13
ATOM     10  C   UNL     1       2.245  -1.252   1.502  0.00  0.00    +0.088 C 
ATOM     11  C   UNL     1       0.920  -1.244   0.785  0.00  0.00    +0.127 A 
ATOM     12  N   UNL     1       0.804  -1.893  -0.357  0.00  0.00    -0.237 NA
ATOM     13  C   UNL     1      -0.344  -1.908  -1.014  0.00  0.00    +0.047 A 
ATOM     14  C   UNL     1      -1.432  -1.231  -0.487  0.00  0.00    +0.047 A 
ATOM     15  C   UNL     1      -1.272  -0.561   0.716  0.00  0.00    +0.048 A 
ATOM     16  N   UNL     1      -0.094  -0.594   1.319  0.00  0.00    -0.237 NA
BRANCH  15  17
ATOM     17  C   UNL     1      -2.424   0.190   1.331  0.00  0.00    +0.038 C 
ATOM     18  C   UNL     1      -3.355  -0.788   2.076  0.00  0.00    +0.010 C 
ATOM     19  C   UNL     1      -4.778  -0.236   1.812  0.00  0.00    +0.001 C 
ATOM     20  C   UNL     1      -4.688   0.248   0.343  0.00  0.00    +0.001 C 
ATOM     21  C   UNL     1      -3.272   0.849   0.229  0.00  0.00    +0.010 C 
ENDBRANCH  15  17
ENDBRANCH   1  13
BRANCH   8  22
ATOM     22  C   UNL     1      -0.125  -5.301  -0.073  0.00  0.00    -0.098 C 
BRANCH  22  23
ATOM     23  N   UNL     1       0.986  -6.254  -0.195  0.00  0.00    +0.383 N 
ATOM     24  H   UNL     1       0.620  -7.192  -0.264  0.00  0.00    -0.085 HD
ATOM     25  H   UNL     1       1.523  -6.041  -1.022  0.00  0.00    -0.085 HD
BRANCH  23  26
ATOM     26  C   UNL     1       1.850  -6.152   0.989  0.00  0.00    -0.007 C 
BRANCH  26  27
ATOM     27  C   UNL     1       3.054  -7.040   0.810  0.00  0.00    +0.089 A 
ATOM     28  C   UNL     1       4.225  -6.676   0.257  0.00  0.00    +0.043 A 
ATOM     29  C   UNL     1       5.066  -7.812   0.291  0.00  0.00    +0.047 A 
ATOM     30  C   UNL     1       4.359  -8.803   0.864  0.00  0.00    +0.130 A 
ATOM     31  O   UNL     1       3.143  -8.328   1.182  0.00  0.00    -0.464 OA
BRANCH  30  32
ATOM     32  C   UNL     1       4.849 -10.206   1.113  0.00  0.00    +0.230 C 
BRANCH  32  33
ATOM     33  O   UNL     1       5.461 -10.275   2.402  0.00  0.00    -0.387 OA
ATOM     34  H   UNL     1       5.801 -11.151   2.630  0.00  0.00    +0.210 HD
ENDBRANCH  32  33
ENDBRANCH  30  32
ENDBRANCH  26  27
ENDBRANCH  23  26
ENDBRANCH  22  23
ENDBRANCH   8  22
TORSDOF 8
