REMARK  Name = ZINC25080088
REMARK  11 active torsions:
REMARK  status: ('A' for Active; 'I' for Inactive)
REMARK    1  A    between atoms: C_1  and  C_2
REMARK    2  A    between atoms: C_2  and  C_3
REMARK    3  A    between atoms: C_2  and  C_4
REMARK    4  A    between atoms: C_4  and  C_6
REMARK    5  A    between atoms: C_4  and  N_22
REMARK    6  A    between atoms: N_8  and  C_9
REMARK    7  A    between atoms: C_9  and  C_10
REMARK    8  A    between atoms: C_10  and  C_12
REMARK    9  A    between atoms: C_10  and  N_17
REMARK   10  A    between atoms: N_22  and  S_23
REMARK   11  A    between atoms: S_23  and  C_26
REMARK                            x       y       z     vdW  Elec       q    Type
REMARK                         _______ _______ _______ _____ _____    ______ ____
ROOT
ATOM      1  C   UNL     1       1.967  -2.007  -3.880  0.00  0.00    +0.232 C 
ATOM      2  O   UNL     1       0.786  -1.909  -4.137  0.00  0.00    -0.274 OA
ATOM      3  N   UNL     1       2.883  -1.460  -4.703  0.00  0.00    -0.315 N 
ATOM      4  H   UNL     1       3.955  -1.550  -4.470  0.00  0.00    +0.149 HD
ENDROOT
BRANCH   1   5
ATOM      5  C   UNL     1       2.410  -2.742  -2.641  0.00  0.00    +0.165 C 
BRANCH   5   7
ATOM      6  C   UNL     1       3.870  -4.577  -1.778  0.00  0.00    +0.009 C 
ATOM      7  C   UNL     1       3.301  -3.921  -3.038  0.00  0.00    +0.010 C 
ATOM      8  C   UNL     1       2.474  -4.945  -3.818  0.00  0.00    +0.009 C 
ENDBRANCH   5   7
BRANCH   5   9
ATOM      9  N   UNL     1       1.234  -3.239  -1.922  0.00  0.00    -0.178 NA
ATOM     10  H   UNL     1       0.454  -3.796  -2.461  0.00  0.00    +0.149 HD
BRANCH   9  11
ATOM     11  S   UNL     1       0.953  -2.758  -0.362  0.00  0.00    +0.059 S 
ATOM     12  O   UNL     1       2.179  -2.915   0.338  0.00  0.00    -0.153 OA
ATOM     13  O   UNL     1      -0.247  -3.397   0.050  0.00  0.00    -0.153 OA
BRANCH  11  14
ATOM     14  C   UNL     1       0.614  -1.029  -0.404  0.00  0.00    +0.105 A 
ATOM     15  C   UNL     1      -0.685  -0.583  -0.558  0.00  0.00    +0.030 A 
ATOM     16  C   UNL     1      -0.952   0.773  -0.590  0.00  0.00    +0.022 A 
ATOM     17  C   UNL     1       0.083   1.684  -0.468  0.00  0.00    +0.041 A 
ATOM     18  C   UNL     1       1.383   1.237  -0.314  0.00  0.00    +0.022 A 
ATOM     19  C   UNL     1       1.648  -0.119  -0.281  0.00  0.00    +0.030 A 
ATOM     20 CL   UNL     1      -0.251   3.387  -0.508  0.00  0.00    -0.084 Cl
ENDBRANCH  11  14
ENDBRANCH   9  11
ENDBRANCH   5   9
ENDBRANCH   1   5
BRANCH   3  21
ATOM     21  C   UNL     1       2.453  -0.746  -5.907  0.00  0.00    +0.094 C 
BRANCH  21  22
ATOM     22  C   UNL     1       3.671  -0.128  -6.597  0.00  0.00    -0.013 C 
BRANCH  22  23
ATOM     23  N   UNL     1       3.235   0.623  -7.781  0.00  0.00    +0.386 N 
ATOM     24  C   UNL     1       2.282   1.700  -7.408  0.00  0.00    -0.078 C 
ATOM     25  C   UNL     1       2.352   2.669  -8.614  0.00  0.00    -0.020 C 
ATOM     26  C   UNL     1       3.848   2.630  -9.003  0.00  0.00    -0.020 C 
ATOM     27  C   UNL     1       4.378   1.303  -8.429  0.00  0.00    -0.078 C 
ATOM     28  H   UNL     1       2.773  -0.117  -8.452  0.00  0.00    -0.081 HD
ENDBRANCH  22  23
BRANCH  22  29
ATOM     29  C   UNL     1       4.619  -1.222  -7.016  0.00  0.00    -0.022 A 
ATOM     30  C   UNL     1       5.753  -1.648  -6.409  0.00  0.00    +0.009 A 
ATOM     31  C   UNL     1       6.473  -2.680  -6.981  0.00  0.00    +0.008 A 
ATOM     32  C   UNL     1       6.023  -3.236  -8.132  0.00  0.00    +0.045 A 
ATOM     33  S   UNL     1       4.536  -2.297  -8.439  0.00  0.00    -0.103 S 
ENDBRANCH  22  29
ENDBRANCH  21  22
ENDBRANCH   3  21
TORSDOF 9
