REMARK  Name = ZINC12150763
REMARK  5 active torsions:
REMARK  status: ('A' for Active; 'I' for Inactive)
REMARK    1  A    between atoms: C_9  and  N_70
REMARK    2  A    between atoms: N_14  and  C_17
REMARK    3  A    between atoms: N_25  and  C_28
REMARK    4  A    between atoms: C_28  and  C_29
REMARK    5  A    between atoms: C_29  and  O_35
REMARK                            x       y       z     vdW  Elec       q    Type
REMARK                         _______ _______ _______ _____ _____    ______ ____
ROOT
ATOM      1  C   UNL     1      -1.668   6.968  -0.664  0.00  0.00    +0.043 A 
ATOM      2  C   UNL     1      -1.000   8.119  -1.089  0.00  0.00    +0.024 A 
ATOM      3  C   UNL     1       0.162   8.019  -1.822  0.00  0.00    +0.003 A 
ATOM      4  C   UNL     1       0.687   6.776  -2.150  0.00  0.00    +0.014 A 
ATOM      5  C   UNL     1       0.041   5.623  -1.740  0.00  0.00    +0.051 A 
ATOM      6  C   UNL     1      -1.151   5.715  -0.989  0.00  0.00    +0.070 A 
ATOM      7  C   UNL     1      -1.572   4.329  -0.727  0.00  0.00    +0.256 C 
ATOM      8  O   UNL     1      -2.563   3.994  -0.108  0.00  0.00    -0.269 OA
ATOM      9  N   UNL     1      -0.676   3.494  -1.284  0.00  0.00    -0.231 N 
ATOM     10  C   UNL     1       0.304   4.178  -1.902  0.00  0.00    +0.254 C 
ATOM     11  O   UNL     1       1.245   3.691  -2.495  0.00  0.00    -0.270 OA
ENDROOT
BRANCH   1  14
ATOM     12  C   UNL     1      -3.897   7.820   2.151  0.00  0.00    -0.059 C 
ATOM     13  C   UNL     1      -2.605   7.797   1.331  0.00  0.00    +0.086 C 
ATOM     14  N   UNL     1      -2.838   7.071   0.074  0.00  0.00    -0.333 N 
ATOM     15  C   UNL     1      -3.902   7.713  -0.711  0.00  0.00    +0.086 C 
ATOM     16  C   UNL     1      -5.194   7.736   0.109  0.00  0.00    -0.059 C 
ATOM     17  N   UNL     1      -4.952   8.487   1.358  0.00  0.00    +0.384 N 
ATOM     18  H   UNL     1      -4.642   9.437   1.122  0.00  0.00    -0.081 HD
BRANCH  17  27
ATOM     19  C   UNL     1      -9.558  10.342   5.489  0.00  0.00    +0.000 A 
ATOM     20  C   UNL     1      -8.330  10.453   6.114  0.00  0.00    +0.000 A 
ATOM     21  C   UNL     1      -7.178  10.146   5.420  0.00  0.00    +0.004 A 
ATOM     22  C   UNL     1      -7.242   9.724   4.098  0.00  0.00    -0.046 A 
ATOM     23  C   UNL     1      -8.465   9.610   3.477  0.00  0.00    -0.044 A 
ATOM     24  C   UNL     1      -9.624   9.922   4.177  0.00  0.00    +0.004 A 
ATOM     25  C   UNL     1      -8.611   9.150   2.050  0.00  0.00    +0.034 C 
ATOM     26  C   UNL     1      -7.279   9.266   1.310  0.00  0.00    -0.010 C 
ATOM     27  C   UNL     1      -6.199   8.570   2.147  0.00  0.00    -0.064 C 
ATOM     28  C   UNL     1      -5.945   9.409   3.399  0.00  0.00    +0.020 C 
ENDBRANCH  17  27
ENDBRANCH   1  14
BRANCH   9  29
ATOM     29  C   UNL     1      -0.759   2.033  -1.229  0.00  0.00    +0.151 C 
BRANCH  29  30
ATOM     30  C   UNL     1      -0.019   1.526   0.010  0.00  0.00    +0.082 C 
ATOM     31  C   UNL     1       1.417   2.055  -0.000  0.00  0.00    +0.036 C 
ATOM     32  C   UNL     1       2.157   1.548   1.239  0.00  0.00    +0.003 C 
ATOM     33  C   UNL     1       2.178   0.019   1.231  0.00  0.00    +0.000 C 
ATOM     34  C   UNL     1       0.742  -0.511   1.242  0.00  0.00    +0.003 C 
ATOM     35  C   UNL     1       0.002  -0.004   0.002  0.00  0.00    +0.036 C 
BRANCH  30  36
ATOM     36  O   UNL     1      -0.688   1.987   1.186  0.00  0.00    -0.387 OA
ATOM     37  H   UNL     1      -0.738   2.950   1.258  0.00  0.00    +0.210 HD
ENDBRANCH  30  36
ENDBRANCH  29  30
ENDBRANCH   9  29
TORSDOF 5
