REMARK  Name = ZINC63426775
REMARK  12 active torsions:
REMARK  status: ('A' for Active; 'I' for Inactive)
REMARK    1  A    between atoms: C_1  and  C_2
REMARK    2  A    between atoms: C_2  and  C_3
REMARK    3  A    between atoms: C_2  and  C_4
REMARK    4  A    between atoms: C_2  and  O_5
REMARK    5  A    between atoms: O_5  and  C_6
REMARK    6  A    between atoms: N_8  and  C_9
REMARK    7  A    between atoms: C_9  and  C_11
REMARK    8  A    between atoms: C_9  and  C_21
REMARK    9  A    between atoms: C_11  and  C_12
REMARK   10  A    between atoms: C_25  and  S_28
REMARK   11  A    between atoms: S_28  and  C_29
REMARK   12  A    between atoms: C_29  and  C_30
REMARK                            x       y       z     vdW  Elec       q    Type
REMARK                         _______ _______ _______ _____ _____    ______ ____
ROOT
ATOM      1  C   UNL     1       4.035  -0.071  -2.601  0.00  0.00    +0.133 C 
ENDROOT
BRANCH   1   2
ATOM      2  C   UNL     1       4.872  -0.581  -1.426  0.00  0.00    +0.280 C 
ATOM      3  N   UNL     1       6.285  -0.233  -1.618  0.00  0.00    -0.155 NA
ATOM      4  N   UNL     1       7.003  -1.204  -1.346  0.00  0.00    -0.146 NA
ATOM      5  C   UNL     1       6.175  -2.344  -0.933  0.00  0.00    +0.319 C 
ATOM      6  O   UNL     1       4.838  -2.022  -1.376  0.00  0.00    -0.316 OA
BRANCH   5   7
ATOM      7  S   UNL     1       6.756  -3.866  -1.729  0.00  0.00    -0.100 S 
BRANCH   7   8
ATOM      8  C   UNL     1       6.635  -3.508  -3.503  0.00  0.00    +0.108 C 
BRANCH   8   9
ATOM      9  C   UNL     1       7.094  -4.708  -4.291  0.00  0.00    -0.036 A 
ATOM     10  C   UNL     1       8.426  -4.837  -4.638  0.00  0.00    +0.006 A 
ATOM     11  C   UNL     1       8.849  -5.937  -5.361  0.00  0.00    +0.022 A 
ATOM     12  C   UNL     1       7.939  -6.909  -5.736  0.00  0.00    +0.059 A 
ATOM     13  C   UNL     1       6.606  -6.779  -5.388  0.00  0.00    +0.060 A 
ATOM     14  C   UNL     1       6.185  -5.681  -4.660  0.00  0.00    +0.026 A 
ATOM     15 CL   UNL     1       5.463  -7.998  -5.859  0.00  0.00    -0.082 Cl
ATOM     16 CL   UNL     1       8.470  -8.290  -6.645  0.00  0.00    -0.082 Cl
ENDBRANCH   8   9
ENDBRANCH   7   8
ENDBRANCH   5   7
ENDBRANCH   1   2
BRANCH   1  19
ATOM     17  C   UNL     1       1.952  -0.085  -1.337  0.00  0.00    +0.401 C 
ATOM     18  O   UNL     1       2.488   0.619  -0.503  0.00  0.00    -0.226 OA
ATOM     19  N   UNL     1       2.641  -0.485  -2.424  0.00  0.00    -0.274 N 
ATOM     20  H   UNL     1       2.213  -1.047  -3.089  0.00  0.00    +0.152 HD
BRANCH  17  21
ATOM     21  O   UNL     1       0.671  -0.465  -1.174  0.00  0.00    -0.445 OA
BRANCH  21  23
ATOM     22  C   UNL     1      -0.019   1.526   0.010  0.00  0.00    +0.055 C 
ATOM     23  C   UNL     1       0.002  -0.004   0.002  0.00  0.00    +0.107 C 
ATOM     24  C   UNL     1       0.742  -0.511   1.242  0.00  0.00    +0.055 C 
ATOM     25  C   UNL     1      -1.433  -0.534   0.013  0.00  0.00    +0.055 C 
ENDBRANCH  21  23
ENDBRANCH  17  21
ENDBRANCH   1  19
BRANCH   1  26
ATOM     26  C   UNL     1       4.111   1.456  -2.657  0.00  0.00    +0.060 C 
BRANCH  26  27
ATOM     27  C   UNL     1       3.389   1.950  -3.884  0.00  0.00    -0.040 C 
ATOM     28  C   UNL     1       2.108   2.377  -3.958  0.00  0.00    -0.001 A 
ATOM     29  C   UNL     1       1.043   2.502  -2.955  0.00  0.00    +0.010 A 
ATOM     30  C   UNL     1      -0.167   2.972  -3.338  0.00  0.00    +0.001 A 
ATOM     31  C   UNL     1      -0.428   3.340  -4.665  0.00  0.00    +0.002 A 
ATOM     32  C   UNL     1       0.500   3.252  -5.642  0.00  0.00    +0.026 A 
ATOM     33  C   UNL     1       1.807   2.772  -5.352  0.00  0.00    +0.043 A 
ATOM     34  N   UNL     1       2.861   2.597  -6.111  0.00  0.00    -0.380 N 
ATOM     35  C   UNL     1       3.953   2.076  -5.282  0.00  0.00    +0.144 C 
ATOM     36  H   UNL     1       2.912   2.785  -7.061  0.00  0.00    +0.160 HD
ENDBRANCH  26  27
ENDBRANCH   1  26
TORSDOF 9
