REMARK  Name = ZINC39227977
REMARK  7 active torsions:
REMARK  status: ('A' for Active; 'I' for Inactive)
REMARK    1  A    between atoms: C_1  and  C_2
REMARK    2  A    between atoms: C_2  and  C_3
REMARK    3  A    between atoms: C_2  and  C_4
REMARK    4  A    between atoms: C_2  and  C_5
REMARK    5  A    between atoms: C_5  and  N_6
REMARK    6  A    between atoms: C_7  and  C_9
REMARK    7  A    between atoms: C_15  and  C_17
REMARK                            x       y       z     vdW  Elec       q    Type
REMARK                         _______ _______ _______ _____ _____    ______ ____
ROOT
ATOM      1  C   UNL     1       4.929  -1.760  -3.674  0.00  0.00    +0.220 C 
ATOM      2  O   UNL     1       4.329  -2.384  -2.825  0.00  0.00    -0.275 OA
ATOM      3  N   UNL     1       5.489  -2.406  -4.715  0.00  0.00    -0.295 N 
ATOM      4  C   UNL     1       5.378  -3.867  -4.844  0.00  0.00    +0.113 C 
ATOM      5  C   UNL     1       4.567  -4.196  -6.103  0.00  0.00    +0.056 C 
ATOM      6  C   UNL     1       5.058  -3.338  -7.240  0.00  0.00    -0.016 A 
ATOM      7  C   UNL     1       4.855  -3.530  -8.662  0.00  0.00    +0.003 A 
ATOM      8  C   UNL     1       4.183  -4.510  -9.399  0.00  0.00    +0.010 A 
ATOM      9  C   UNL     1       4.193  -4.374 -10.766  0.00  0.00    +0.001 A 
ATOM     10  C   UNL     1       4.836  -3.321 -11.396  0.00  0.00    +0.002 A 
ATOM     11  C   UNL     1       5.508  -2.337 -10.691  0.00  0.00    +0.026 A 
ATOM     12  C   UNL     1       5.514  -2.449  -9.302  0.00  0.00    +0.047 A 
ATOM     13  N   UNL     1       6.067  -1.674  -8.324  0.00  0.00    -0.356 N 
ATOM     14  C   UNL     1       5.792  -2.213  -7.096  0.00  0.00    +0.038 A 
ATOM     15  H   UNL     1       6.579  -0.864  -8.476  0.00  0.00    +0.166 HD
ATOM     16  C   UNL     1       6.223  -1.667  -5.757  0.00  0.00    +0.161 C 
ENDROOT
BRANCH   1  22
ATOM     17  C   UNL     1       4.331   0.222  -2.298  0.00  0.00    +0.091 C 
ATOM     18  C   UNL     1       4.315   1.752  -2.300  0.00  0.00    +0.040 C 
ATOM     19  C   UNL     1       5.691   2.284  -2.577  0.00  0.00    -0.030 C 
ATOM     20  C   UNL     1       6.650   1.581  -3.087  0.00  0.00    -0.030 C 
ATOM     21  C   UNL     1       6.524   0.134  -3.466  0.00  0.00    +0.040 C 
ATOM     22  C   UNL     1       5.050  -0.261  -3.564  0.00  0.00    +0.091 C 
BRANCH  17  24
ATOM     23  N   UNL     1       2.093   0.010  -1.267  0.00  0.00    -0.315 N 
ATOM     24  C   UNL     1       2.917  -0.299  -2.288  0.00  0.00    +0.217 C 
ATOM     25  O   UNL     1       2.521  -0.997  -3.197  0.00  0.00    -0.275 OA
ATOM     26  H   UNL     1       2.409   0.568  -0.540  0.00  0.00    +0.149 HD
BRANCH  23  27
ATOM     27  C   UNL     1       0.718  -0.497  -1.257  0.00  0.00    +0.110 C 
BRANCH  27  29
ATOM     28  C   UNL     1      -0.019   1.526   0.010  0.00  0.00    +0.012 C 
ATOM     29  C   UNL     1       0.002  -0.004   0.002  0.00  0.00    -0.022 C 
ATOM     30  C   UNL     1       0.742  -0.511   1.242  0.00  0.00    +0.012 C 
ATOM     31  C   UNL     1      -1.433  -0.534   0.013  0.00  0.00    +0.012 C 
ENDBRANCH  27  29
ENDBRANCH  23  27
ENDBRANCH  17  24
ENDBRANCH   1  22
TORSDOF 4
