REMARK  Name = ZINC38680483
REMARK  6 active torsions:
REMARK  status: ('A' for Active; 'I' for Inactive)
REMARK    1  A    between atoms: C_10  and  C_11
REMARK    2  A    between atoms: C_11  and  O_13
REMARK    3  A    between atoms: O_13  and  C_14
REMARK    4  A    between atoms: C_21  and  N_35
REMARK    5  A    between atoms: C_22  and  C_33
REMARK    6  A    between atoms: C_23  and  C_25
REMARK                            x       y       z     vdW  Elec       q    Type
REMARK                         _______ _______ _______ _____ _____    ______ ____
ROOT
ATOM      1  C   UNL     1       7.404  -0.023  -0.129  0.00  0.00    +0.135 A 
ATOM      2  C   UNL     1       7.455   1.364  -0.082  0.00  0.00    +0.047 A 
ATOM      3  C   UNL     1       8.674   2.011  -0.119  0.00  0.00    +0.012 A 
ATOM      4  C   UNL     1       9.848   1.283  -0.203  0.00  0.00    +0.008 A 
ATOM      5  C   UNL     1       9.803  -0.101  -0.250  0.00  0.00    +0.138 A 
ATOM      6  C   UNL     1       8.578  -0.754  -0.206  0.00  0.00    +0.093 A 
ATOM      7  O   UNL     1      10.942  -0.832  -0.333  0.00  0.00    -0.441 OA
ATOM      8  C   UNL     1      12.118  -0.281   0.011  0.00  0.00    +0.199 C 
ATOM      9  C   UNL     1      12.290   1.061   0.073  0.00  0.00    +0.098 C 
ATOM     10  C   UNL     1      11.167   2.008  -0.244  0.00  0.00    +0.102 C 
ENDROOT
BRANCH  10  11
ATOM     11  C   UNL     1      11.376   2.588  -1.619  0.00  0.00    +0.019 A 
ATOM     12  C   UNL     1      11.411   1.755  -2.724  0.00  0.00    +0.129 A 
ATOM     13  C   UNL     1      11.603   2.289  -3.987  0.00  0.00    +0.039 A 
ATOM     14  C   UNL     1      11.760   3.654  -4.143  0.00  0.00    +0.004 A 
ATOM     15  C   UNL     1      11.725   4.485  -3.040  0.00  0.00    +0.020 A 
ATOM     16  C   UNL     1      11.528   3.953  -1.778  0.00  0.00    +0.048 A 
ATOM     17 CL   UNL     1      11.477   5.000  -0.393  0.00  0.00    -0.083 Cl
ATOM     18  F   UNL     1      11.258   0.421  -2.571  0.00  0.00    -0.205 F 
ENDBRANCH  10  11
BRANCH   8  19
ATOM     19  N   UNL     1      13.177  -1.103   0.309  0.00  0.00    -0.328 N 
ATOM     20  H   UNL     1      13.069  -2.066   0.270  0.00  0.00    +0.145 HD
ATOM     21  H   UNL     1      14.032  -0.720   0.559  0.00  0.00    +0.145 HD
ENDBRANCH   8  19
BRANCH   9  22
ATOM     22  C   UNL     1      13.569   1.588   0.446  0.00  0.00    +0.101 C 
ATOM     23  N   UNL     1      14.582   2.006   0.743  0.00  0.00    -0.191 NA
ENDBRANCH   9  22
BRANCH   1  24
ATOM     24  O   UNL     1       6.205  -0.661  -0.092  0.00  0.00    -0.422 OA
BRANCH  24  25
ATOM     25  C   UNL     1       5.843  -1.262   1.059  0.00  0.00    +0.345 C 
ATOM     26  O   UNL     1       6.535  -1.143   2.050  0.00  0.00    -0.245 OA
BRANCH  25  36
ATOM     27  C   UNL     1       3.556  -4.285   4.559  0.00  0.00    +0.001 A 
ATOM     28  C   UNL     1       4.733  -3.541   4.543  0.00  0.00    +0.001 A 
ATOM     29  C   UNL     1       5.090  -2.817   3.445  0.00  0.00    +0.009 A 
ATOM     30  C   UNL     1       4.264  -2.821   2.315  0.00  0.00    -0.004 A 
ATOM     31  C   UNL     1       3.066  -3.577   2.327  0.00  0.00    -0.017 A 
ATOM     32  C   UNL     1       2.729  -4.311   3.477  0.00  0.00    +0.008 A 
ATOM     33  C   UNL     1       2.239  -3.579   1.191  0.00  0.00    +0.008 A 
ATOM     34  C   UNL     1       2.579  -2.864   0.083  0.00  0.00    +0.001 A 
ATOM     35  C   UNL     1       3.743  -2.110   0.028  0.00  0.00    +0.015 A 
ATOM     36  C   UNL     1       4.607  -2.061   1.115  0.00  0.00    +0.067 A 
ENDBRANCH  25  36
ENDBRANCH  24  25
ENDBRANCH   1  24
TORSDOF 6
