REMARK  Name = ZINC61364140
REMARK  3 active torsions:
REMARK  status: ('A' for Active; 'I' for Inactive)
REMARK    1  A    between atoms: C_3  and  N_10
REMARK    2  A    between atoms: C_6  and  N_7
REMARK    3  A    between atoms: N_10  and  C_11
REMARK                            x       y       z     vdW  Elec       q    Type
REMARK                         _______ _______ _______ _____ _____    ______ ____
ROOT
ATOM      1  N   UNL     1       3.594   1.999  -0.022  0.00  0.00    -0.322 N 
ATOM      2  H   UNL     1       4.422   1.495  -0.033  0.00  0.00    +0.148 HD
ENDROOT
BRANCH   1   3
ATOM      3  C   UNL     1       3.628   3.463  -0.015  0.00  0.00    +0.103 C 
ATOM      4  C   UNL     1       4.942   3.949  -0.628  0.00  0.00    +0.027 C 
ATOM      5  C   UNL     1       6.116   3.562   0.276  0.00  0.00    +0.007 C 
ATOM      6  C   UNL     1       6.058   4.416   1.552  0.00  0.00    +0.043 C 
ATOM      7  C   UNL     1       4.658   4.385   2.074  0.00  0.00    -0.005 A 
ATOM      8  C   UNL     1       3.535   3.970   1.421  0.00  0.00    -0.017 A 
ATOM      9  C   UNL     1       2.336   4.037   2.131  0.00  0.00    +0.013 A 
ATOM     10  C   UNL     1       2.326   4.499   3.402  0.00  0.00    +0.046 A 
ATOM     11  S   UNL     1       4.061   4.873   3.670  0.00  0.00    -0.101 S 
ENDBRANCH   1   3
BRANCH   1  14
ATOM     12  C   UNL     1      -0.017   1.384   0.010  0.00  0.00    +0.037 A 
ATOM     13  C   UNL     1       1.190   2.061   0.002  0.00  0.00    +0.046 A 
ATOM     14  C   UNL     1       2.374   1.332  -0.013  0.00  0.00    +0.119 A 
ATOM     15  N   UNL     1       2.350   0.008  -0.020  0.00  0.00    -0.238 NA
ATOM     16  C   UNL     1       1.215  -0.664  -0.013  0.00  0.00    +0.145 A 
ATOM     17  C   UNL     1       0.002  -0.004   0.002  0.00  0.00    +0.144 A 
BRANCH  17  18
ATOM     18  N   UNL     1      -1.265  -0.769   0.011  0.00  0.00    +0.058 N 
ATOM     19  O   UNL     1      -2.324  -0.185   0.024  0.00  0.00    -0.126 OA
ATOM     20  O   UNL     1      -1.242  -1.978   0.004  0.00  0.00    -0.126 OA
ENDBRANCH  17  18
ENDBRANCH   1  14
TORSDOF 3
