REMARK  Name = ZINC09691520
REMARK  3 active torsions:
REMARK  status: ('A' for Active; 'I' for Inactive)
REMARK    1  A    between atoms: C_9  and  N_11
REMARK    2  A    between atoms: C_12  and  C_14
REMARK    3  A    between atoms: C_14  and  N_15
REMARK                            x       y       z     vdW  Elec       q    Type
REMARK                         _______ _______ _______ _____ _____    ______ ____
ROOT
ATOM      1  C   UNL     1      -0.018   1.503   0.010  0.00  0.00    +0.213 C 
ENDROOT
BRANCH   1   2
ATOM      2  N   UNL     1       1.356   2.010  -0.000  0.00  0.00    -0.215 N 
ATOM      3  C   UNL     1       2.057   2.278  -1.121  0.00  0.00    +0.247 C 
ATOM      4  O   UNL     1       1.684   2.151  -2.268  0.00  0.00    -0.273 OA
ATOM      5  C   UNL     1       3.405   2.771  -0.647  0.00  0.00    +0.113 C 
ATOM      6  C   UNL     1       3.644   4.201  -1.119  0.00  0.00    +0.035 C 
ATOM      7  C   UNL     1       5.000   4.691  -0.605  0.00  0.00    +0.003 C 
ATOM      8  C   UNL     1       6.105   3.772  -1.129  0.00  0.00    +0.000 C 
ATOM      9  C   UNL     1       5.865   2.347  -0.626  0.00  0.00    +0.003 C 
ATOM     10  C   UNL     1       4.512   1.847  -1.140  0.00  0.00    +0.035 C 
ATOM     11  N   UNL     1       3.307   2.722   0.818  0.00  0.00    -0.285 N 
ATOM     12  C   UNL     1       2.071   2.270   1.102  0.00  0.00    +0.310 C 
ATOM     13  O   UNL     1       1.652   2.112   2.232  0.00  0.00    -0.252 OA
ATOM     14  H   UNL     1       3.995   2.970   1.454  0.00  0.00    +0.151 HD
ENDBRANCH   1   2
BRANCH   1  16
ATOM     15  N   UNL     1      -1.156  -0.694   0.009  0.00  0.00    -0.307 N 
ATOM     16  C   UNL     1       0.002  -0.004   0.002  0.00  0.00    +0.231 C 
ATOM     17  O   UNL     1       1.060  -0.596  -0.011  0.00  0.00    -0.274 OA
ATOM     18  H   UNL     1      -2.002  -0.220   0.020  0.00  0.00    +0.149 HD
BRANCH  15  27
ATOM     19  C   UNL     1      -1.365  -3.984   3.850  0.00  0.00    +0.000 A 
ATOM     20  C   UNL     1      -0.480  -2.929   3.723  0.00  0.00    +0.000 A 
ATOM     21  C   UNL     1      -0.347  -2.285   2.509  0.00  0.00    +0.006 A 
ATOM     22  C   UNL     1      -1.097  -2.691   1.418  0.00  0.00    -0.024 A 
ATOM     23  C   UNL     1      -1.982  -3.745   1.545  0.00  0.00    -0.042 A 
ATOM     24  C   UNL     1      -2.114  -4.391   2.763  0.00  0.00    +0.004 A 
ATOM     25  C   UNL     1      -2.676  -3.993   0.223  0.00  0.00    +0.037 C 
ATOM     26  C   UNL     1      -2.446  -2.709  -0.601  0.00  0.00    +0.032 C 
ATOM     27  C   UNL     1      -1.136  -2.159   0.001  0.00  0.00    +0.104 C 
ENDBRANCH  15  27
ENDBRANCH   1  16
TORSDOF 3
