REMARK  Name = ZINC59513250
REMARK  10 active torsions:
REMARK  status: ('A' for Active; 'I' for Inactive)
REMARK    1  A    between atoms: C_1  and  C_2
REMARK    2  A    between atoms: C_2  and  O_3
REMARK    3  A    between atoms: O_3  and  C_4
REMARK    4  A    between atoms: C_4  and  C_6
REMARK    5  A    between atoms: C_10  and  N_11
REMARK    6  A    between atoms: C_12  and  C_14
REMARK    7  A    between atoms: C_14  and  S_15
REMARK    8  A    between atoms: S_15  and  C_16
REMARK    9  A    between atoms: C_18  and  N_29
REMARK   10  A    between atoms: N_22  and  C_23
REMARK                            x       y       z     vdW  Elec       q    Type
REMARK                         _______ _______ _______ _____ _____    ______ ____
ROOT
ATOM      1  N   UNL     1      -4.549   0.820   3.669  0.00  0.00    -0.279 N 
ATOM      2  C   UNL     1      -5.056  -0.094   4.519  0.00  0.00    +0.228 C 
ATOM      3  O   UNL     1      -6.180  -0.518   4.355  0.00  0.00    -0.275 OA
ATOM      4  H   UNL     1      -3.650   1.159   3.800  0.00  0.00    +0.155 HD
ENDROOT
BRANCH   1   9
ATOM      5  C   UNL     1      -4.965   2.201   1.642  0.00  0.00    +0.091 A 
ATOM      6  C   UNL     1      -5.954   2.524   0.607  0.00  0.00    -0.021 A 
ATOM      7  C   UNL     1      -7.116   1.867   0.773  0.00  0.00    -0.004 A 
ATOM      8  S   UNL     1      -6.878   0.835   2.194  0.00  0.00    -0.077 S 
ATOM      9  C   UNL     1      -5.314   1.276   2.606  0.00  0.00    +0.086 A 
ATOM     10  C   UNL     1      -8.385   2.006  -0.020  0.00  0.00    +0.043 C 
ATOM     11  C   UNL     1      -9.091   3.284   0.470  0.00  0.00    +0.005 C 
ATOM     12  C   UNL     1      -8.098   4.447   0.368  0.00  0.00    +0.000 C 
ATOM     13  C   UNL     1      -7.761   4.568  -1.103  0.00  0.00    +0.000 C 
ATOM     14  C   UNL     1      -6.673   3.614  -1.564  0.00  0.00    +0.005 C 
ATOM     15  C   UNL     1      -5.565   3.466  -0.528  0.00  0.00    +0.037 C 
BRANCH   5  16
ATOM     16  C   UNL     1      -3.646   2.837   1.649  0.00  0.00    +0.342 C 
ATOM     17  O   UNL     1      -2.721   2.326   1.045  0.00  0.00    -0.245 OA
BRANCH  16  18
ATOM     18  O   UNL     1      -3.455   3.988   2.325  0.00  0.00    -0.461 OA
BRANCH  18  20
ATOM     19  C   UNL     1      -2.122   5.846   3.106  0.00  0.00    +0.048 C 
ATOM     20  C   UNL     1      -2.143   4.553   2.289  0.00  0.00    +0.229 C 
ENDBRANCH  18  20
ENDBRANCH  16  18
ENDBRANCH   5  16
ENDBRANCH   1   9
BRANCH   2  21
ATOM     21  C   UNL     1      -4.225  -0.590   5.675  0.00  0.00    +0.173 C 
BRANCH  21  22
ATOM     22  S   UNL     1      -5.178  -1.804   6.628  0.00  0.00    -0.078 S 
BRANCH  22  23
ATOM     23  C   UNL     1      -4.085  -2.281   7.925  0.00  0.00    +0.178 A 
ATOM     24  N   UNL     1      -2.887  -1.738   7.992  0.00  0.00    -0.208 NA
ATOM     25  C   UNL     1      -2.028  -2.074   8.961  0.00  0.00    +0.124 A 
ATOM     26  C   UNL     1      -2.398  -3.010   9.916  0.00  0.00    +0.114 A 
ATOM     27  C   UNL     1      -3.671  -3.583   9.839  0.00  0.00    +0.261 A 
ATOM     28  O   UNL     1      -4.031  -4.409  10.663  0.00  0.00    -0.267 OA
ATOM     29  N   UNL     1      -4.498  -3.202   8.843  0.00  0.00    -0.256 N 
BRANCH  29  30
ATOM     30  C   UNL     1      -5.780  -3.758   8.747  0.00  0.00    +0.052 A 
ATOM     31  C   UNL     1      -5.983  -4.917   8.010  0.00  0.00    +0.026 A 
ATOM     32  C   UNL     1      -7.248  -5.463   7.919  0.00  0.00    +0.002 A 
ATOM     33  C   UNL     1      -8.313  -4.857   8.560  0.00  0.00    +0.000 A 
ATOM     34  C   UNL     1      -8.114  -3.702   9.295  0.00  0.00    +0.002 A 
ATOM     35  C   UNL     1      -6.850  -3.154   9.394  0.00  0.00    +0.026 A 
ENDBRANCH  29  30
BRANCH  25  36
ATOM     36  N   UNL     1      -0.777  -1.491   9.011  0.00  0.00    -0.343 N 
ATOM     37  H   UNL     1      -0.520  -0.837   8.342  0.00  0.00    +0.144 HD
ATOM     38  H   UNL     1      -0.156  -1.736   9.714  0.00  0.00    +0.144 HD
ENDBRANCH  25  36
ENDBRANCH  22  23
ENDBRANCH  21  22
ENDBRANCH   2  21
TORSDOF 9
