REMARK  Name = ZINC13113105
REMARK  9 active torsions:
REMARK  status: ('A' for Active; 'I' for Inactive)
REMARK    1  A    between atoms: C_1  and  C_2
REMARK    2  A    between atoms: C_5  and  N_8
REMARK    3  A    between atoms: C_9  and  C_11
REMARK    4  A    between atoms: C_11  and  C_13
REMARK    5  A    between atoms: C_11  and  N_51
REMARK    6  A    between atoms: C_19  and  C_20
REMARK    7  A    between atoms: C_19  and  N_51
REMARK    8  A    between atoms: C_23  and  S_26
REMARK    9  A    between atoms: S_26  and  N_29
REMARK                            x       y       z     vdW  Elec       q    Type
REMARK                         _______ _______ _______ _____ _____    ______ ____
ROOT
ATOM      1  C   UNL     1       1.355   1.544  -0.004  0.00  0.00    +0.048 C 
ENDROOT
BRANCH   1   2
ATOM      2  C   UNL     1       2.223   0.700  -0.902  0.00  0.00    -0.053 A 
ATOM      3  C   UNL     1       2.090  -0.676  -0.899  0.00  0.00    +0.002 A 
ATOM      4  C   UNL     1       2.883  -1.449  -1.726  0.00  0.00    +0.000 A 
ATOM      5  C   UNL     1       3.816  -0.847  -2.550  0.00  0.00    +0.000 A 
ATOM      6  C   UNL     1       3.952   0.529  -2.550  0.00  0.00    +0.000 A 
ATOM      7  C   UNL     1       3.156   1.302  -1.726  0.00  0.00    +0.002 A 
ENDBRANCH   1   2
BRANCH   1   9
ATOM      8  N   UNL     1       3.161   1.978   1.629  0.00  0.00    -0.287 N 
ATOM      9  C   UNL     1       1.914   1.525   1.396  0.00  0.00    +0.207 C 
ATOM     10  O   UNL     1       1.241   1.102   2.312  0.00  0.00    -0.277 OA
ATOM     11  H   UNL     1       3.724   2.253   0.889  0.00  0.00    +0.155 HD
BRANCH   8  16
ATOM     12  C   UNL     1       5.122   2.275   6.945  0.00  0.00    +0.044 C 
ATOM     13  C   UNL     1       4.601   2.196   5.533  0.00  0.00    -0.050 A 
ATOM     14  C   UNL     1       3.754   1.167   5.166  0.00  0.00    +0.005 A 
ATOM     15  C   UNL     1       3.275   1.092   3.873  0.00  0.00    +0.023 A 
ATOM     16  C   UNL     1       3.645   2.051   2.940  0.00  0.00    +0.033 A 
ATOM     17  C   UNL     1       4.501   3.081   3.310  0.00  0.00    +0.023 A 
ATOM     18  C   UNL     1       4.972   3.154   4.606  0.00  0.00    +0.005 A 
ENDBRANCH   8  16
ENDBRANCH   1   9
BRANCH   1  19
ATOM     19  N   UNL     1      -0.014   0.995   0.014  0.00  0.00    +0.392 N 
ATOM     20  H   UNL     1      -0.476   1.266   0.890  0.00  0.00    -0.084 HD
ATOM     21  H   UNL     1       0.030  -0.029  -0.048  0.00  0.00    -0.084 HD
BRANCH  19  22
ATOM     22  C   UNL     1      -0.790   1.518  -1.126  0.00  0.00    -0.045 C 
BRANCH  22  23
ATOM     23  C   UNL     1      -2.182   0.942  -1.082  0.00  0.00    -0.064 A 
ATOM     24  C   UNL     1      -2.461  -0.243  -1.736  0.00  0.00    +0.003 A 
ATOM     25  C   UNL     1      -3.736  -0.774  -1.692  0.00  0.00    +0.029 A 
ATOM     26  C   UNL     1      -4.736  -0.114  -1.001  0.00  0.00    +0.105 A 
ATOM     27  C   UNL     1      -4.458   1.074  -0.351  0.00  0.00    +0.029 A 
ATOM     28  C   UNL     1      -3.182   1.602  -0.392  0.00  0.00    +0.003 A 
BRANCH  26  29
ATOM     29  S   UNL     1      -6.363  -0.788  -0.949  0.00  0.00    +0.056 S 
ATOM     30  O   UNL     1      -6.231  -2.185  -1.178  0.00  0.00    -0.153 OA
ATOM     31  O   UNL     1      -6.982  -0.263   0.217  0.00  0.00    -0.153 OA
BRANCH  29  32
ATOM     32  N   UNL     1      -7.190  -0.172  -2.243  0.00  0.00    -0.204 NA
ATOM     33  H   UNL     1      -7.897  -0.690  -2.659  0.00  0.00    +0.144 HD
ATOM     34  H   UNL     1      -6.969   0.708  -2.586  0.00  0.00    +0.144 HD
ENDBRANCH  29  32
ENDBRANCH  26  29
ENDBRANCH  22  23
ENDBRANCH  19  22
ENDBRANCH   1  19
TORSDOF 8
