REMARK  Name = ZINC26781498
REMARK  5 active torsions:
REMARK  status: ('A' for Active; 'I' for Inactive)
REMARK    1  A    between atoms: C_4  and  C_7
REMARK    2  A    between atoms: C_9  and  C_19
REMARK    3  A    between atoms: N_21  and  N_22
REMARK    4  A    between atoms: C_23  and  C_24
REMARK    5  A    between atoms: C_29  and  O_30
REMARK                            x       y       z     vdW  Elec       q    Type
REMARK                         _______ _______ _______ _____ _____    ______ ____
ROOT
ATOM      1  C   UNL     1       2.839   8.318   1.334  0.00  0.00    +0.253 C 
ATOM      2  C   UNL     1       3.428   7.812   0.010  0.00  0.00    +0.305 C 
ATOM      3  O   UNL     1       4.767   8.306  -0.104  0.00  0.00    -0.472 OA
ATOM      4  C   UNL     1       4.959   9.623   0.184  0.00  0.00    +0.163 A 
ATOM      5  C   UNL     1       6.123  10.248  -0.236  0.00  0.00    +0.049 A 
ATOM      6  C   UNL     1       6.335  11.583   0.053  0.00  0.00    +0.004 A 
ATOM      7  C   UNL     1       5.388  12.298   0.761  0.00  0.00    +0.004 A 
ATOM      8  C   UNL     1       4.225  11.681   1.182  0.00  0.00    +0.049 A 
ATOM      9  C   UNL     1       4.005  10.342   0.894  0.00  0.00    +0.163 A 
ATOM     10  O   UNL     1       2.854   9.749   1.313  0.00  0.00    -0.476 OA
ENDROOT
BRANCH   1  14
ATOM     11  C   UNL     1      -1.178   6.924   1.750  0.00  0.00    +0.000 A 
ATOM     12  C   UNL     1      -0.150   6.277   2.410  0.00  0.00    +0.000 A 
ATOM     13  C   UNL     1       1.150   6.728   2.276  0.00  0.00    +0.007 A 
ATOM     14  C   UNL     1       1.422   7.826   1.480  0.00  0.00    -0.003 A 
ATOM     15  C   UNL     1       0.394   8.475   0.824  0.00  0.00    +0.007 A 
ATOM     16  C   UNL     1      -0.906   8.022   0.955  0.00  0.00    +0.000 A 
ENDBRANCH   1  14
BRANCH   2  17
ATOM     17  C   UNL     1       3.441   6.305   0.002  0.00  0.00    +0.277 C 
ATOM     18  O   UNL     1       4.496   5.707  -0.011  0.00  0.00    -0.270 OA
ATOM     19  N   UNL     1       2.279   5.621   0.009  0.00  0.00    -0.204 N 
ATOM     20  H   UNL     1       1.322   6.163   0.021  0.00  0.00    +0.177 HD
BRANCH  19  21
ATOM     21  N   UNL     1       2.291   4.220   0.002  0.00  0.00    -0.187 NA
ATOM     22  C   UNL     1       1.172   3.562   0.009  0.00  0.00    +0.142 C 
BRANCH  22  23
ATOM     23  C   UNL     1       1.185   2.088   0.002  0.00  0.00    +0.037 A 
ATOM     24  C   UNL     1      -0.017   1.376   0.010  0.00  0.00    +0.028 A 
ATOM     25  C   UNL     1       0.002  -0.004   0.002  0.00  0.00    +0.019 A 
ATOM     26  C   UNL     1       1.208  -0.686  -0.013  0.00  0.00    +0.019 A 
ATOM     27  C   UNL     1       2.403   0.008  -0.020  0.00  0.00    +0.047 A 
ATOM     28  C   UNL     1       2.402   1.394  -0.013  0.00  0.00    +0.126 A 
ATOM     29 BR   UNL     1      -1.625  -0.968   0.012  0.00  0.00    -0.050 Br
BRANCH  28  30
ATOM     30  O   UNL     1       3.576   2.076  -0.021  0.00  0.00    -0.506 OA
ATOM     31  H   UNL     1       4.530   1.529  -0.033  0.00  0.00    +0.292 HD
ENDBRANCH  28  30
ENDBRANCH  22  23
ENDBRANCH  19  21
ENDBRANCH   2  17
TORSDOF 5
