REMARK  Name = ZINC44324050
REMARK  9 active torsions:
REMARK  status: ('A' for Active; 'I' for Inactive)
REMARK    1  A    between atoms: C_13  and  C_14
REMARK    2  A    between atoms: C_14  and  O_15
REMARK    3  A    between atoms: O_15  and  C_16
REMARK    4  A    between atoms: N_18  and  CA_19
REMARK    5  A    between atoms: CA_19  and  C_21
REMARK    6  A    between atoms: CA_19  and  C_37
REMARK    7  A    between atoms: C_21  and  C_22
REMARK    8  A    between atoms: C_25  and  C_27
REMARK    9  A    between atoms: C_30  and  C_33
REMARK                            x       y       z     vdW  Elec       q    Type
REMARK                         _______ _______ _______ _____ _____    ______ ____
ROOT
ATOM      1  CA  UNL     1       8.466  -2.355   3.245  0.00  0.00    +0.196 C 
ENDROOT
BRANCH   1   4
ATOM      2  C   UNL     1       6.424  -1.603   2.148  0.00  0.00    +0.401 C 
ATOM      3  O   UNL     1       6.225  -0.862   3.091  0.00  0.00    -0.226 OA
ATOM      4  N   UNL     1       7.517  -2.391   2.129  0.00  0.00    -0.267 N 
ATOM      5  H   UNL     1       7.676  -2.982   1.376  0.00  0.00    +0.153 HD
BRANCH   2   6
ATOM      6  O   UNL     1       5.553  -1.635   1.122  0.00  0.00    -0.449 OA
BRANCH   6   7
ATOM      7  C   UNL     1       4.416  -0.773   1.209  0.00  0.00    +0.246 C 
BRANCH   7  20
ATOM      8  C   UNL     1      -0.017   1.375   0.010  0.00  0.00    +0.001 A 
ATOM      9  C   UNL     1       1.169   2.088   0.002  0.00  0.00    +0.000 A 
ATOM     10  C   UNL     1       2.380   1.420  -0.013  0.00  0.00    +0.005 A 
ATOM     11  C   UNL     1       2.408   0.042  -0.021  0.00  0.00    -0.029 A 
ATOM     12  C   UNL     1       1.221  -0.685  -0.013  0.00  0.00    -0.014 A 
ATOM     13  C   UNL     1       0.002  -0.004   0.002  0.00  0.00    +0.009 A 
ATOM     14  C   UNL     1       1.530  -2.136  -0.025  0.00  0.00    -0.014 A 
ATOM     15  C   UNL     1       0.694  -3.254  -0.023  0.00  0.00    +0.009 A 
ATOM     16  C   UNL     1       1.238  -4.521  -0.035  0.00  0.00    +0.001 A 
ATOM     17  C   UNL     1       2.611  -4.690  -0.050  0.00  0.00    +0.000 A 
ATOM     18  C   UNL     1       3.445  -3.587  -0.052  0.00  0.00    +0.005 A 
ATOM     19  C   UNL     1       2.910  -2.316  -0.040  0.00  0.00    -0.029 A 
ATOM     20  C   UNL     1       3.547  -0.948  -0.038  0.00  0.00    +0.088 C 
ENDBRANCH   7  20
ENDBRANCH   6   7
ENDBRANCH   2   6
ENDBRANCH   1   4
BRANCH   1  21
ATOM     21  C   UNL     1       9.449  -1.233   3.033  0.00  0.00    +0.376 C 
ATOM     22  O   UNL     1       9.365  -0.528   2.041  0.00  0.00    -0.244 OA
ATOM     23  OXT UNL     1      10.328  -1.030   3.853  0.00  0.00    -0.244 OA
ENDBRANCH   1  21
BRANCH   1  24
ATOM     24  C   UNL     1       9.218  -3.686   3.317  0.00  0.00    +0.108 C 
BRANCH  24  25
ATOM     25  C   UNL     1       8.251  -4.792   3.651  0.00  0.00    +0.108 A 
ATOM     26  C   UNL     1       7.568  -5.534   2.758  0.00  0.00    +0.045 A 
ATOM     27  C   UNL     1       6.784  -6.447   3.493  0.00  0.00    +0.050 A 
ATOM     28  C   UNL     1       7.035  -6.208   4.807  0.00  0.00    +0.135 A 
ATOM     29  O   UNL     1       7.931  -5.206   4.888  0.00  0.00    -0.460 OA
BRANCH  28  30
ATOM     30  C   UNL     1       6.434  -6.929   5.949  0.00  0.00    +0.017 A 
ATOM     31  C   UNL     1       5.523  -7.962   5.726  0.00  0.00    +0.012 A 
ATOM     32  C   UNL     1       4.965  -8.630   6.796  0.00  0.00    +0.013 A 
ATOM     33  C   UNL     1       5.309  -8.278   8.090  0.00  0.00    +0.055 A 
ATOM     34  C   UNL     1       6.211  -7.255   8.319  0.00  0.00    +0.013 A 
ATOM     35  C   UNL     1       6.780  -6.583   7.257  0.00  0.00    +0.012 A 
BRANCH  33  36
ATOM     36  C   UNL     1       4.696  -9.012   9.254  0.00  0.00    +0.417 C 
ATOM     37  F   UNL     1       5.498 -10.109   9.588  0.00  0.00    -0.166 F 
ATOM     38  F   UNL     1       4.603  -8.151  10.352  0.00  0.00    -0.166 F 
ATOM     39  F   UNL     1       3.417  -9.459   8.903  0.00  0.00    -0.166 F 
ENDBRANCH  33  36
ENDBRANCH  28  30
ENDBRANCH  24  25
ENDBRANCH   1  24
TORSDOF 9
