REMARK  Name = ZINC21218714
REMARK  11 active torsions:
REMARK  status: ('A' for Active; 'I' for Inactive)
REMARK    1  A    between atoms: C_1  and  C_2
REMARK    2  A    between atoms: C_2  and  C_3
REMARK    3  A    between atoms: C_2  and  C_4
REMARK    4  A    between atoms: C_4  and  O_5
REMARK    5  A    between atoms: O_5  and  C_6
REMARK    6  A    between atoms: C_9  and  C_12
REMARK    7  A    between atoms: C_17  and  C_27
REMARK    8  A    between atoms: C_32  and  O_33
REMARK    9  A    between atoms: O_33  and  C_34
REMARK   10  A    between atoms: C_34  and  C_35
REMARK   11  A    between atoms: C_34  and  C_36
REMARK                            x       y       z     vdW  Elec       q    Type
REMARK                         _______ _______ _______ _____ _____    ______ ____
ROOT
ATOM      1  C   UNL     1       1.405   5.764   4.244  0.00  0.00    +0.032 C 
ATOM      2  C   UNL     1      -0.100   5.511   4.171  0.00  0.00    +0.059 C 
ATOM      3  C   UNL     1      -0.576   5.634   2.733  0.00  0.00    +0.017 C 
ATOM      4  C   UNL     1       0.226   5.269   1.719  0.00  0.00    +0.037 C 
ATOM      5  C   UNL     1      -0.131   5.301   0.252  0.00  0.00    +0.139 C 
ATOM      6  N   UNL     1      -1.353   6.016  -0.052  0.00  0.00    -0.331 N 
ATOM      7  C   UNL     1      -2.587   5.563   0.411  0.00  0.00    +0.049 A 
ATOM      8  C   UNL     1      -3.550   5.075  -0.458  0.00  0.00    +0.025 A 
ATOM      9  C   UNL     1      -4.718   4.537   0.054  0.00  0.00    +0.002 A 
ATOM     10  C   UNL     1      -4.926   4.487   1.420  0.00  0.00    +0.002 A 
ATOM     11  C   UNL     1      -3.974   4.993   2.290  0.00  0.00    +0.025 A 
ATOM     12  C   UNL     1      -2.813   5.546   1.779  0.00  0.00    +0.052 A 
ATOM     13  N   UNL     1      -1.839   6.112   2.593  0.00  0.00    -0.316 N 
ATOM     14  C   UNL     1       1.538   4.807   1.978  0.00  0.00    +0.163 C 
ATOM     15  O   UNL     1       2.236   4.472   1.042  0.00  0.00    -0.292 OA
ATOM     16  C   UNL     1       2.098   4.715   3.366  0.00  0.00    +0.088 C 
ATOM     17  H   UNL     1      -1.317   6.933  -0.658  0.00  0.00    +0.147 HD
ATOM     18  H   UNL     1      -2.152   7.009   3.147  0.00  0.00    +0.152 HD
ENDROOT
BRANCH   1  22
ATOM     19  C   UNL     1       2.744   5.383   8.284  0.00  0.00    +0.121 A 
ATOM     20  C   UNL     1       2.910   6.583   7.607  0.00  0.00    +0.046 A 
ATOM     21  C   UNL     1       2.476   6.704   6.301  0.00  0.00    +0.007 A 
ATOM     22  C   UNL     1       1.877   5.630   5.668  0.00  0.00    -0.043 A 
ATOM     23  C   UNL     1       1.706   4.435   6.343  0.00  0.00    +0.007 A 
ATOM     24  C   UNL     1       2.143   4.308   7.647  0.00  0.00    +0.046 A 
BRANCH  19  25
ATOM     25  O   UNL     1       3.171   5.262   9.569  0.00  0.00    -0.492 OA
BRANCH  25  26
ATOM     26  C   UNL     1       2.968   3.998  10.203  0.00  0.00    +0.232 C 
BRANCH  26  28
ATOM     27  C   UNL     1       2.687   5.052  12.451  0.00  0.00    +0.010 C 
ATOM     28  C   UNL     1       3.508   4.053  11.633  0.00  0.00    +0.020 C 
ATOM     29  C   UNL     1       3.404   2.666  12.271  0.00  0.00    +0.010 C 
ENDBRANCH  26  28
ENDBRANCH  25  26
ENDBRANCH  19  25
ENDBRANCH   1  22
BRANCH   5  30
ATOM     30  C   UNL     1      -0.274   3.882  -0.236  0.00  0.00    +0.019 A 
ATOM     31  C   UNL     1      -0.432   2.852   0.670  0.00  0.00    +0.009 A 
ATOM     32  C   UNL     1      -0.569   1.551   0.223  0.00  0.00    +0.001 A 
ATOM     33  C   UNL     1      -0.536   1.276  -1.132  0.00  0.00    +0.004 A 
ATOM     34  C   UNL     1      -0.378   2.302  -2.042  0.00  0.00    +0.046 A 
ATOM     35  C   UNL     1      -0.246   3.610  -1.596  0.00  0.00    +0.126 A 
BRANCH  35  36
ATOM     36  O   UNL     1      -0.090   4.621  -2.490  0.00  0.00    -0.489 OA
BRANCH  36  37
ATOM     37  C   UNL     1       0.050   4.257  -3.865  0.00  0.00    +0.167 C 
ATOM     38  C   UNL     1      -1.336   4.080  -4.488  0.00  0.00    +0.051 C 
ATOM     39  C   UNL     1       0.807   5.357  -4.610  0.00  0.00    +0.051 C 
ENDBRANCH  36  37
ENDBRANCH  35  36
ENDBRANCH   5  30
TORSDOF 7
