REMARK  Name = ZINC15735845
REMARK  9 active torsions:
REMARK  status: ('A' for Active; 'I' for Inactive)
REMARK    1  A    between atoms: C_1  and  C_2
REMARK    2  A    between atoms: C_5  and  C_29
REMARK    3  A    between atoms: C_6  and  N_8
REMARK    4  A    between atoms: C_9  and  C_11
REMARK    5  A    between atoms: C_11  and  N_12
REMARK    6  A    between atoms: C_18  and  C_21
REMARK    7  A    between atoms: C_19  and  C_20
REMARK    8  A    between atoms: C_24  and  C_28
REMARK    9  A    between atoms: C_25  and  C_27
REMARK                            x       y       z     vdW  Elec       q    Type
REMARK                         _______ _______ _______ _____ _____    ______ ____
ROOT
ATOM      1  N   UNL     1      -0.011   0.967  -0.009  0.00  0.00    -0.319 N 
ATOM      2  C   UNL     1       1.175   1.673  -0.027  0.00  0.00    +0.146 C 
ATOM      3  N   UNL     1       1.173   2.977  -0.028  0.00  0.00    -0.113 NA
ATOM      4  S   UNL     1       2.790   3.408  -0.052  0.00  0.00    +0.101 S 
ATOM      5  O   UNL     1       3.058   4.015  -1.308  0.00  0.00    -0.146 OA
ATOM      6  O   UNL     1       3.094   4.018   1.195  0.00  0.00    -0.146 OA
ATOM      7  C   UNL     1       3.534   1.789  -0.061  0.00  0.00    +0.126 C 
ATOM      8  C   UNL     1       2.449   0.982  -0.039  0.00  0.00    +0.018 C 
ATOM      9  C   UNL     1       2.556  -0.522  -0.033  0.00  0.00    +0.049 C 
ATOM     10  H   UNL     1       0.002  -0.003  -0.008  0.00  0.00    +0.148 HD
ENDROOT
BRANCH   7  11
ATOM     11  C   UNL     1       4.961   1.425  -0.082  0.00  0.00    +0.002 A 
ATOM     12  C   UNL     1       5.342   0.080  -0.081  0.00  0.00    +0.010 A 
ATOM     13  C   UNL     1       6.680  -0.254  -0.105  0.00  0.00    +0.004 A 
ATOM     14  C   UNL     1       7.644   0.739  -0.119  0.00  0.00    -0.048 A 
ATOM     15  C   UNL     1       7.274   2.073  -0.115  0.00  0.00    -0.047 A 
ATOM     16  C   UNL     1       5.940   2.422  -0.096  0.00  0.00    +0.013 A 
ATOM     17  C   UNL     1       8.332   3.146  -0.131  0.00  0.00    +0.044 C 
ATOM     18  C   UNL     1       9.104   0.366  -0.139  0.00  0.00    +0.044 C 
ENDBRANCH   7  11
BRANCH   1  19
ATOM     19  C   UNL     1      -1.290   1.682   0.002  0.00  0.00    +0.199 C 
BRANCH  19  21
ATOM     20  N   UNL     1      -3.698   1.118   0.026  0.00  0.00    -0.284 N 
ATOM     21  C   UNL     1      -2.422   0.686   0.014  0.00  0.00    +0.234 C 
ATOM     22  O   UNL     1      -2.183  -0.503   0.013  0.00  0.00    -0.274 OA
ATOM     23  H   UNL     1      -3.889   2.066   0.107  0.00  0.00    +0.155 HD
BRANCH  20  29
ATOM     24  C   UNL     1      -5.349  -3.270  -1.453  0.00  0.00    +0.044 C 
ATOM     25  C   UNL     1      -5.577  -1.935  -0.792  0.00  0.00    -0.049 A 
ATOM     26  C   UNL     1      -6.825  -1.617  -0.289  0.00  0.00    +0.004 A 
ATOM     27  C   UNL     1      -7.038  -0.393   0.318  0.00  0.00    +0.005 A 
ATOM     28  C   UNL     1      -6.003   0.516   0.423  0.00  0.00    -0.029 A 
ATOM     29  C   UNL     1      -4.748   0.200  -0.080  0.00  0.00    +0.037 A 
ATOM     30  C   UNL     1      -4.539  -1.029  -0.694  0.00  0.00    +0.027 A 
ATOM     31  C   UNL     1      -6.236   1.850   1.085  0.00  0.00    +0.045 C 
ENDBRANCH  20  29
ENDBRANCH  19  21
ENDBRANCH   1  19
TORSDOF 4
