REMARK  Name = ZINC36491885
REMARK  10 active torsions:
REMARK  status: ('A' for Active; 'I' for Inactive)
REMARK    1  A    between atoms: C_1  and  C_2
REMARK    2  A    between atoms: C_5  and  S_8
REMARK    3  A    between atoms: S_8  and  C_11
REMARK    4  A    between atoms: C_11  and  N_12
REMARK    5  A    between atoms: C_13  and  C_15
REMARK    6  A    between atoms: C_15  and  C_17
REMARK    7  A    between atoms: C_15  and  N_24
REMARK    8  A    between atoms: C_22  and  O_23
REMARK    9  A    between atoms: N_24  and  C_25
REMARK   10  A    between atoms: C_31  and  C_33
REMARK                            x       y       z     vdW  Elec       q    Type
REMARK                         _______ _______ _______ _____ _____    ______ ____
ROOT
ATOM      1  C   UNL     1       4.790  -5.421   3.860  0.00  0.00    +0.196 C 
ENDROOT
BRANCH   1   2
ATOM      2  C   UNL     1       6.169  -5.448   4.467  0.00  0.00    +0.023 A 
ATOM      3  C   UNL     1       6.611  -6.576   5.130  0.00  0.00    +0.009 A 
ATOM      4  C   UNL     1       7.876  -6.601   5.688  0.00  0.00    +0.001 A 
ATOM      5  C   UNL     1       8.702  -5.497   5.583  0.00  0.00    +0.004 A 
ATOM      6  C   UNL     1       8.265  -4.367   4.921  0.00  0.00    +0.046 A 
ATOM      7  C   UNL     1       6.998  -4.341   4.356  0.00  0.00    +0.122 A 
BRANCH   7   8
ATOM      8  O   UNL     1       6.569  -3.232   3.699  0.00  0.00    -0.506 OA
ATOM      9  H   UNL     1       6.117  -2.590   4.264  0.00  0.00    +0.292 HD
ENDBRANCH   7   8
ENDBRANCH   1   2
BRANCH   1  11
ATOM     10  N   UNL     1       5.191  -4.470   1.612  0.00  0.00    -0.294 N 
ATOM     11  C   UNL     1       4.898  -5.550   2.362  0.00  0.00    +0.239 C 
ATOM     12  O   UNL     1       4.721  -6.627   1.832  0.00  0.00    -0.273 OA
ATOM     13  H   UNL     1       5.333  -3.609   2.036  0.00  0.00    +0.150 HD
BRANCH  10  14
ATOM     14  C   UNL     1       5.296  -4.595   0.156  0.00  0.00    +0.278 C 
BRANCH  14  15
ATOM     15  S   UNL     1       3.709  -4.155  -0.605  0.00  0.00    +0.013 S 
ATOM     16  O   UNL     1       2.644  -4.811   0.070  0.00  0.00    -0.168 OA
ATOM     17  O   UNL     1       3.813  -4.211  -2.021  0.00  0.00    -0.168 OA
BRANCH  15  22
ATOM     18  C   UNL     1       2.954   1.698   0.653  0.00  0.00    +0.044 C 
ATOM     19  C   UNL     1       3.143   0.236   0.339  0.00  0.00    -0.050 A 
ATOM     20  C   UNL     1       3.797  -0.143  -0.818  0.00  0.00    +0.005 A 
ATOM     21  C   UNL     1       3.970  -1.484  -1.106  0.00  0.00    +0.027 A 
ATOM     22  C   UNL     1       3.490  -2.446  -0.237  0.00  0.00    +0.090 A 
ATOM     23  C   UNL     1       2.837  -2.066   0.921  0.00  0.00    +0.027 A 
ATOM     24  C   UNL     1       2.667  -0.725   1.211  0.00  0.00    +0.005 A 
ENDBRANCH  15  22
ENDBRANCH  14  15
ENDBRANCH  10  14
ENDBRANCH   1  11
BRANCH   1  25
ATOM     25  N   UNL     1       4.002  -6.535   4.391  0.00  0.00    -0.279 N 
ATOM     26  C   UNL     1       3.513  -6.478   5.645  0.00  0.00    +0.249 C 
ATOM     27  O   UNL     1       2.887  -7.417   6.098  0.00  0.00    -0.270 OA
BRANCH  25  28
ATOM     28  C   UNL     1       3.744  -7.713   3.558  0.00  0.00    +0.077 C 
ATOM     29  C   UNL     1       2.705  -8.604   4.242  0.00  0.00    +0.022 C 
ATOM     30  C   UNL     1       2.436  -9.834   3.372  0.00  0.00    +0.002 C 
ATOM     31  C   UNL     1       3.736 -10.618   3.181  0.00  0.00    +0.000 C 
ATOM     32  C   UNL     1       4.775  -9.727   2.498  0.00  0.00    +0.002 C 
ATOM     33  C   UNL     1       5.044  -8.497   3.368  0.00  0.00    +0.022 C 
ENDBRANCH  25  28
BRANCH  26  34
ATOM     34  C   UNL     1       3.737  -5.272   6.471  0.00  0.00    +0.055 A 
ATOM     35  C   UNL     1       4.287  -5.381   7.755  0.00  0.00    +0.016 A 
ATOM     36  C   UNL     1       4.477  -4.222   8.487  0.00  0.00    +0.020 A 
ATOM     37  C   UNL     1       4.121  -3.005   7.933  0.00  0.00    +0.111 A 
ATOM     38  N   UNL     1       3.605  -2.934   6.721  0.00  0.00    -0.263 NA
ATOM     39  C   UNL     1       3.410  -4.007   5.983  0.00  0.00    +0.123 A 
ENDBRANCH  26  34
ENDBRANCH   1  25
TORSDOF 9
