REMARK  Name = ZINC15016443
REMARK  6 active torsions:
REMARK  status: ('A' for Active; 'I' for Inactive)
REMARK    1  A    between atoms: C_4  and  C_7
REMARK    2  A    between atoms: C_8  and  C_9
REMARK    3  A    between atoms: C_10  and  C_11
REMARK    4  A    between atoms: C_10  and  N_26
REMARK    5  A    between atoms: N_13  and  N_14
REMARK    6  A    between atoms: C_27  and  C_29
REMARK                            x       y       z     vdW  Elec       q    Type
REMARK                         _______ _______ _______ _____ _____    ______ ____
ROOT
ATOM      1  C   UNL     1       4.988  -2.856  -0.265  0.00  0.00    +0.028 C 
ATOM      2  C   UNL     1       4.841  -4.210  -0.212  0.00  0.00    +0.098 C 
ENDROOT
BRANCH   2   3
ATOM      3  C   UNL     1       6.023  -5.076  -0.222  0.00  0.00    +0.277 C 
ATOM      4  O   UNL     1       6.584  -5.350   0.823  0.00  0.00    -0.267 OA
ATOM      5  N   UNL     1       6.488  -5.569  -1.387  0.00  0.00    -0.201 N 
ATOM      6  H   UNL     1       6.085  -5.293  -2.225  0.00  0.00    +0.178 HD
BRANCH   5   7
ATOM      7  N   UNL     1       7.552  -6.480  -1.387  0.00  0.00    -0.174 NA
ATOM      8  C   UNL     1       7.943  -7.032  -2.511  0.00  0.00    +0.153 C 
ATOM      9  C   UNL     1       7.477  -6.714  -3.881  0.00  0.00    +0.031 A 
ATOM     10  C   UNL     1       6.553  -5.806  -4.386  0.00  0.00    +0.050 A 
ATOM     11  C   UNL     1       6.329  -5.742  -5.748  0.00  0.00    +0.124 A 
ATOM     12  C   UNL     1       7.025  -6.581  -6.606  0.00  0.00    +0.040 A 
ATOM     13  C   UNL     1       7.944  -7.484  -6.112  0.00  0.00    +0.027 A 
ATOM     14  C   UNL     1       8.182  -7.563  -4.745  0.00  0.00    +0.043 A 
ATOM     15  N   UNL     1       9.037  -8.369  -4.000  0.00  0.00    -0.280 N 
ATOM     16  C   UNL     1       8.947  -8.099  -2.687  0.00  0.00    +0.269 C 
ATOM     17  O   UNL     1       9.578  -8.642  -1.799  0.00  0.00    -0.268 OA
ATOM     18  F   UNL     1       5.432  -4.862  -6.245  0.00  0.00    -0.205 F 
ATOM     19  H   UNL     1       9.628  -9.037  -4.381  0.00  0.00    +0.155 HD
ENDBRANCH   5   7
ENDBRANCH   2   3
BRANCH   2  20
ATOM     20  N   UNL     1       3.564  -4.771  -0.149  0.00  0.00    -0.277 N 
ATOM     21  C   UNL     1       3.420  -6.101   0.020  0.00  0.00    +0.248 C 
ATOM     22  O   UNL     1       4.396  -6.797   0.221  0.00  0.00    -0.270 OA
ATOM     23  H   UNL     1       2.780  -4.205  -0.227  0.00  0.00    +0.155 HD
BRANCH  21  24
ATOM     24  C   UNL     1       2.076  -6.712  -0.040  0.00  0.00    +0.037 A 
ATOM     25  C   UNL     1       0.967  -5.936  -0.383  0.00  0.00    +0.013 A 
ATOM     26  C   UNL     1      -0.285  -6.512  -0.438  0.00  0.00    +0.001 A 
ATOM     27  C   UNL     1      -0.443  -7.857  -0.152  0.00  0.00    +0.000 A 
ATOM     28  C   UNL     1       0.651  -8.632   0.189  0.00  0.00    +0.001 A 
ATOM     29  C   UNL     1       1.909  -8.069   0.240  0.00  0.00    +0.013 A 
ENDBRANCH  21  24
ENDBRANCH   2  20
BRANCH   1  31
ATOM     30  C   UNL     1       3.997  -0.678  -0.308  0.00  0.00    +0.008 C 
ATOM     31  C   UNL     1       3.851  -2.022  -0.256  0.00  0.00    +0.003 C 
BRANCH  30  35
ATOM     32  C   UNL     1       0.577   1.829  -0.282  0.00  0.00    +0.000 A 
ATOM     33  C   UNL     1       1.841   2.390  -0.344  0.00  0.00    +0.001 A 
ATOM     34  C   UNL     1       2.958   1.582  -0.352  0.00  0.00    +0.008 A 
ATOM     35  C   UNL     1       2.812   0.192  -0.298  0.00  0.00    -0.025 A 
ATOM     36  C   UNL     1       1.530  -0.367  -0.236  0.00  0.00    +0.008 A 
ATOM     37  C   UNL     1       0.424   0.455  -0.228  0.00  0.00    +0.001 A 
ENDBRANCH  30  35
ENDBRANCH   1  31
TORSDOF 6
