REMARK  Name = ZINC22607647
REMARK  0 active torsions:
REMARK  status: ('A' for Active; 'I' for Inactive)
REMARK                            x       y       z     vdW  Elec       q    Type
REMARK                         _______ _______ _______ _____ _____    ______ ____
ROOT
ATOM      1  C   UNL     1       3.601   1.059  -0.473  0.00  0.00    +0.117 A 
ATOM      2  C   UNL     1       2.224   0.892  -0.395  0.00  0.00    -0.025 A 
ATOM      3  C   UNL     1       1.434   1.955  -0.001  0.00  0.00    -0.027 A 
ATOM      4  C   UNL     1       2.061   3.163   0.304  0.00  0.00    +0.087 A 
ATOM      5  C   UNL     1       1.305   4.348   0.729  0.00  0.00    +0.262 A 
ATOM      6  O   UNL     1       0.092   4.320   0.833  0.00  0.00    -0.267 OA
ATOM      7  N   UNL     1       2.009   5.472   1.001  0.00  0.00    -0.294 N 
ATOM      8  H   UNL     1       1.485   6.384   1.322  0.00  0.00    +0.172 HD
ATOM      9  C   UNL     1       3.367   5.481   0.879  0.00  0.00    +0.200 A 
ATOM     10  N   UNL     1       4.060   4.435   0.501  0.00  0.00    -0.196 NA
ATOM     11  C   UNL     1       3.468   3.263   0.203  0.00  0.00    +0.169 A 
ATOM     12  N   UNL     1       4.178   2.204  -0.181  0.00  0.00    -0.235 NA
ATOM     13  N   UNL     1       4.039   6.640   1.165  0.00  0.00    -0.301 N 
ATOM     14  C   UNL     1       3.453   7.779   0.447  0.00  0.00    +0.108 C 
ATOM     15  C   UNL     1       4.132   9.074   0.900  0.00  0.00    +0.019 C 
ATOM     16  C   UNL     1       5.633   8.984   0.613  0.00  0.00    +0.003 C 
ATOM     17  C   UNL     1       6.211   7.762   1.332  0.00  0.00    +0.019 C 
ATOM     18  C   UNL     1       5.471   6.505   0.867  0.00  0.00    +0.108 C 
ATOM     19  C   UNL     1      -0.019   1.540   0.011  0.00  0.00    +0.036 C 
ATOM     20  C   UNL     1       0.002  -0.004   0.002  0.00  0.00    +0.009 C 
ATOM     21  C   UNL     1       1.354  -0.313  -0.677  0.00  0.00    +0.037 C 
ENDROOT
TORSDOF 0
