REMARK  Name = ZINC20161377
REMARK  6 active torsions:
REMARK  status: ('A' for Active; 'I' for Inactive)
REMARK    1  A    between atoms: C_1  and  C_2
REMARK    2  A    between atoms: C_2  and  C_4
REMARK    3  A    between atoms: C_4  and  N_5
REMARK    4  A    between atoms: C_14  and  C_18
REMARK    5  A    between atoms: C_14  and  N_22
REMARK    6  A    between atoms: C_23  and  C_25
REMARK                            x       y       z     vdW  Elec       q    Type
REMARK                         _______ _______ _______ _____ _____    ______ ____
ROOT
ATOM      1  N   UNL     1       1.624   2.438  -1.376  0.00  0.00    -0.305 N 
ATOM      2  C   UNL     1       1.175   3.630  -1.903  0.00  0.00    +0.119 A 
ATOM      3  C   UNL     1       1.512   3.939  -3.188  0.00  0.00    +0.096 A 
ATOM      4  C   UNL     1       2.296   3.056  -3.942  0.00  0.00    +0.260 A 
ATOM      5  O   UNL     1       2.599   3.329  -5.091  0.00  0.00    -0.267 OA
ATOM      6  N   UNL     1       2.712   1.900  -3.384  0.00  0.00    -0.302 N 
ATOM      7  H   UNL     1       3.324   1.196  -3.967  0.00  0.00    +0.171 HD
ATOM      8  C   UNL     1       2.379   1.606  -2.113  0.00  0.00    +0.162 A 
ATOM      9  S   UNL     1       2.925   0.137  -1.423  0.00  0.00    -0.013 S 
ATOM     10  C   UNL     1       0.891   5.282  -3.487  0.00  0.00    +0.240 C 
ATOM     11  C   UNL     1       0.184   5.641  -2.195  0.00  0.00    +0.256 C 
ATOM     12  O   UNL     1      -0.457   6.646  -1.973  0.00  0.00    -0.272 OA
ATOM     13  N   UNL     1       0.408   4.624  -1.345  0.00  0.00    -0.269 N 
ATOM     14  H   UNL     1       0.052   4.527  -0.308  0.00  0.00    +0.156 HD
ENDROOT
BRANCH  10  15
ATOM     15  C   UNL     1       1.969   6.317  -3.816  0.00  0.00    +0.424 C 
ATOM     16  F   UNL     1       2.891   6.380  -2.766  0.00  0.00    -0.167 F 
ATOM     17  F   UNL     1       2.627   5.946  -4.994  0.00  0.00    -0.167 F 
ATOM     18  F   UNL     1       1.374   7.571  -3.990  0.00  0.00    -0.167 F 
ENDBRANCH  10  15
BRANCH  10  19
ATOM     19  N   UNL     1      -0.070   5.173  -4.588  0.00  0.00    -0.287 N 
ATOM     20  C   UNL     1      -0.803   6.244  -4.952  0.00  0.00    +0.248 C 
ATOM     21  O   UNL     1      -0.666   7.301  -4.367  0.00  0.00    -0.270 OA
ATOM     22  H   UNL     1      -0.193   4.216  -5.117  0.00  0.00    +0.151 HD
BRANCH  20  23
ATOM     23  C   UNL     1      -1.771   6.133  -6.061  0.00  0.00    +0.072 A 
ATOM     24  C   UNL     1      -1.927   4.922  -6.739  0.00  0.00    +0.016 A 
ATOM     25  C   UNL     1      -2.836   4.824  -7.770  0.00  0.00    +0.001 A 
ATOM     26  C   UNL     1      -3.589   5.925  -8.143  0.00  0.00    +0.003 A 
ATOM     27  C   UNL     1      -3.438   7.130  -7.482  0.00  0.00    +0.039 A 
ATOM     28  C   UNL     1      -2.533   7.242  -6.442  0.00  0.00    +0.135 A 
ATOM     29  F   UNL     1      -2.386   8.419  -5.795  0.00  0.00    -0.205 F 
ENDBRANCH  20  23
ENDBRANCH  10  19
BRANCH   1  30
ATOM     30  C   UNL     1       1.279   2.077   0.001  0.00  0.00    +0.155 C 
BRANCH  30  32
ATOM     31  C   UNL     1      -1.331   2.042   0.019  0.00  0.00    +0.040 C 
ATOM     32  C   UNL     1      -0.016   1.306   0.009  0.00  0.00    -0.060 C 
ATOM     33  C   UNL     1       0.002  -0.004   0.002  0.00  0.00    +0.009 C 
ENDBRANCH  30  32
ENDBRANCH   1  30
TORSDOF 5
