REMARK  Name = ZINC63256728
REMARK  9 active torsions:
REMARK  status: ('A' for Active; 'I' for Inactive)
REMARK    1  A    between atoms: C_7  and  C_10
REMARK    2  A    between atoms: C_10  and  C_11
REMARK    3  A    between atoms: C_11  and  C_12
REMARK    4  A    between atoms: C_12  and  C_13
REMARK    5  A    between atoms: C_13  and  O_15
REMARK    6  A    between atoms: O_15  and  C_16
REMARK    7  A    between atoms: C_16  and  C_17
REMARK    8  A    between atoms: N_19  and  C_20
REMARK    9  A    between atoms: C_25  and  C_26
REMARK                            x       y       z     vdW  Elec       q    Type
REMARK                         _______ _______ _______ _____ _____    ______ ____
ROOT
ATOM      1  O   UNL     1      -1.526  -6.362  -3.119  0.00  0.00    -0.455 OA
ENDROOT
BRANCH   1   2
ATOM      2  C   UNL     1      -0.708  -5.326  -2.875  0.00  0.00    +0.308 C 
ATOM      3  O   UNL     1      -0.158  -4.761  -3.791  0.00  0.00    -0.251 OA
BRANCH   2   4
ATOM      4  C   UNL     1      -0.475  -4.866  -1.459  0.00  0.00    +0.121 C 
BRANCH   4   5
ATOM      5  C   UNL     1       0.489  -3.679  -1.460  0.00  0.00    +0.015 C 
BRANCH   5   6
ATOM      6  C   UNL     1       0.725  -3.212  -0.022  0.00  0.00    +0.034 C 
BRANCH   6  13
ATOM      7  C   UNL     1       0.055   1.327   0.008  0.00  0.00    +0.001 A 
ATOM      8  C   UNL     1       1.243   2.071   0.002  0.00  0.00    +0.002 A 
ATOM      9  C   UNL     1       2.464   1.495  -0.011  0.00  0.00    +0.026 A 
ATOM     10  C   UNL     1       2.590   0.079  -0.019  0.00  0.00    +0.043 A 
ATOM     11  N   UNL     1       3.642  -0.704  -0.033  0.00  0.00    -0.380 N 
ATOM     12  C   UNL     1       3.187  -2.099  -0.036  0.00  0.00    +0.144 C 
ATOM     13  C   UNL     1       1.676  -2.042  -0.023  0.00  0.00    -0.042 C 
ATOM     14  C   UNL     1       1.350  -0.730  -0.013  0.00  0.00    -0.001 A 
ATOM     15  C   UNL     1       0.062  -0.025   0.002  0.00  0.00    +0.010 A 
ATOM     16  H   UNL     1       4.566  -0.410  -0.039  0.00  0.00    +0.160 HD
ENDBRANCH   6  13
ENDBRANCH   5   6
ENDBRANCH   4   5
ENDBRANCH   2   4
ENDBRANCH   1   2
BRANCH   1  17
ATOM     17  C   UNL     1      -1.700  -6.744  -4.485  0.00  0.00    +0.328 C 
BRANCH  17  18
ATOM     18  C   UNL     1      -2.644  -7.915  -4.562  0.00  0.00    +0.255 C 
ATOM     19  O   UNL     1      -3.121  -8.378  -3.548  0.00  0.00    -0.272 OA
ATOM     20  N   UNL     1      -2.959  -8.449  -5.759  0.00  0.00    -0.282 N 
ATOM     21  H   UNL     1      -2.642  -8.031  -6.575  0.00  0.00    +0.155 HD
BRANCH  20  22
ATOM     22  C   UNL     1      -3.742  -9.607  -5.825  0.00  0.00    +0.045 A 
ATOM     23  C   UNL     1      -3.773 -10.488  -4.752  0.00  0.00    +0.025 A 
ATOM     24  C   UNL     1      -4.546 -11.630  -4.819  0.00  0.00    +0.022 A 
ATOM     25  C   UNL     1      -5.291 -11.897  -5.955  0.00  0.00    +0.042 A 
ATOM     26  C   UNL     1      -5.262 -11.021  -7.025  0.00  0.00    +0.034 A 
ATOM     27  C   UNL     1      -4.495  -9.874  -6.961  0.00  0.00    +0.077 A 
ATOM     28 CL   UNL     1      -6.262 -13.334  -6.037  0.00  0.00    -0.084 Cl
BRANCH  27  29
ATOM     29  C   UNL     1      -4.469  -8.918  -8.125  0.00  0.00    +0.419 C 
ATOM     30  F   UNL     1      -5.300  -9.399  -9.142  0.00  0.00    -0.166 F 
ATOM     31  F   UNL     1      -4.923  -7.662  -7.706  0.00  0.00    -0.166 F 
ATOM     32  F   UNL     1      -3.160  -8.804  -8.606  0.00  0.00    -0.166 F 
ENDBRANCH  27  29
ENDBRANCH  20  22
ENDBRANCH  17  18
ENDBRANCH   1  17
TORSDOF 9
