REMARK  Name = ZINC26578175
REMARK  13 active torsions:
REMARK  status: ('A' for Active; 'I' for Inactive)
REMARK    1  A    between atoms: C_1  and  C_2
REMARK    2  A    between atoms: C_2  and  O_3
REMARK    3  A    between atoms: O_3  and  C_4
REMARK    4  A    between atoms: C_4  and  C_6
REMARK    5  A    between atoms: C_7  and  C_40
REMARK    6  A    between atoms: C_9  and  C_34
REMARK    7  A    between atoms: C_10  and  C_21
REMARK    8  A    between atoms: C_11  and  C_13
REMARK    9  A    between atoms: C_14  and  C_15
REMARK   10  A    between atoms: C_21  and  O_23
REMARK   11  A    between atoms: O_23  and  C_24
REMARK   12  A    between atoms: C_24  and  C_25
REMARK   13  A    between atoms: C_28  and  N_31
REMARK                            x       y       z     vdW  Elec       q    Type
REMARK                         _______ _______ _______ _____ _____    ______ ____
ROOT
ATOM      1  C   UNL     1       1.644  -2.363   2.341  0.00  0.00    +0.073 C 
ATOM      2  C   UNL     1       1.741  -3.696   2.483  0.00  0.00    +0.017 C 
ATOM      3  N   UNL     1       2.206  -4.248   3.645  0.00  0.00    -0.317 N 
ATOM      4  C   UNL     1       2.241  -3.501   4.801  0.00  0.00    +0.050 C 
ATOM      5  C   UNL     1       2.164  -2.145   4.750  0.00  0.00    +0.078 C 
ATOM      6  C   UNL     1       2.053  -1.420   3.436  0.00  0.00    +0.141 C 
ATOM      7  C   UNL     1       1.331  -4.595   1.346  0.00  0.00    +0.061 C 
ATOM      8  H   UNL     1       2.511  -5.169   3.654  0.00  0.00    +0.152 HD
ENDROOT
BRANCH   4   9
ATOM      9  C   UNL     1       2.364  -4.179   6.108  0.00  0.00    -0.003 A 
ATOM     10  C   UNL     1       1.528  -5.253   6.422  0.00  0.00    +0.010 A 
ATOM     11  C   UNL     1       1.647  -5.881   7.644  0.00  0.00    +0.001 A 
ATOM     12  C   UNL     1       2.593  -5.450   8.558  0.00  0.00    +0.000 A 
ATOM     13  C   UNL     1       3.424  -4.387   8.253  0.00  0.00    +0.001 A 
ATOM     14  C   UNL     1       3.320  -3.753   7.032  0.00  0.00    +0.010 A 
ENDBRANCH   4   9
BRANCH   1  15
ATOM     15  C   UNL     1       1.150  -1.834   1.127  0.00  0.00    +0.338 C 
ATOM     16  O   UNL     1       1.923  -1.413   0.287  0.00  0.00    -0.245 OA
BRANCH  15  17
ATOM     17  O   UNL     1      -0.180  -1.798   0.898  0.00  0.00    -0.462 OA
BRANCH  17  19
ATOM     18  C   UNL     1      -2.136  -1.292  -0.427  0.00  0.00    +0.048 C 
ATOM     19  C   UNL     1      -0.609  -1.250  -0.350  0.00  0.00    +0.229 C 
ENDBRANCH  17  19
ENDBRANCH  15  17
ENDBRANCH   1  15
BRANCH   6  20
ATOM     20  C   UNL     1       1.045  -0.354   3.559  0.00  0.00    -0.084 C 
ATOM     21  C   UNL     1       0.242   0.496   3.657  0.00  0.00    -0.065 C 
BRANCH  21  22
ATOM     22  C   UNL     1      -0.739   1.533   3.776  0.00  0.00    +0.025 A 
ATOM     23  C   UNL     1      -1.857   1.539   2.941  0.00  0.00    +0.017 A 
ATOM     24  C   UNL     1      -2.798   2.541   3.061  0.00  0.00    +0.001 A 
ATOM     25  C   UNL     1      -2.635   3.538   4.007  0.00  0.00    +0.000 A 
ATOM     26  C   UNL     1      -1.528   3.537   4.837  0.00  0.00    +0.001 A 
ATOM     27  C   UNL     1      -0.583   2.538   4.731  0.00  0.00    +0.017 A 
ENDBRANCH  21  22
ENDBRANCH   6  20
BRANCH   5  28
ATOM     28  C   UNL     1       2.193  -1.405   5.948  0.00  0.00    +0.339 C 
ATOM     29  O   UNL     1       3.192  -0.781   6.254  0.00  0.00    -0.245 OA
BRANCH  28  30
ATOM     30  O   UNL     1       1.112  -1.388   6.757  0.00  0.00    -0.457 OA
BRANCH  30  31
ATOM     31  C   UNL     1       1.170  -0.531   7.899  0.00  0.00    +0.268 C 
BRANCH  31  32
ATOM     32  C   UNL     1      -0.069  -0.723   8.735  0.00  0.00    -0.010 A 
ATOM     33  C   UNL     1      -1.222  -0.023   8.433  0.00  0.00    +0.009 A 
ATOM     34  C   UNL     1      -2.358  -0.199   9.200  0.00  0.00    +0.033 A 
ATOM     35  C   UNL     1      -2.342  -1.076  10.268  0.00  0.00    +0.126 A 
ATOM     36  C   UNL     1      -1.189  -1.777  10.570  0.00  0.00    +0.033 A 
ATOM     37  C   UNL     1      -0.054  -1.604   9.800  0.00  0.00    +0.009 A 
BRANCH  35  38
ATOM     38  N   UNL     1      -3.559  -1.264  11.090  0.00  0.00    +0.056 N 
ATOM     39  O   UNL     1      -4.567  -0.650  10.826  0.00  0.00    -0.126 OA
ATOM     40  O   UNL     1      -3.545  -2.030  12.024  0.00  0.00    -0.126 OA
ENDBRANCH  35  38
ENDBRANCH  31  32
ENDBRANCH  30  31
ENDBRANCH  28  30
ENDBRANCH   5  28
TORSDOF 11
