REMARK  Name = ZINC13501806
REMARK  12 active torsions:
REMARK  status: ('A' for Active; 'I' for Inactive)
REMARK    1  A    between atoms: C_1  and  C_2
REMARK    2  A    between atoms: C_2  and  C_3
REMARK    3  A    between atoms: C_2  and  C_4
REMARK    4  A    between atoms: C_2  and  N_5
REMARK    5  A    between atoms: C_6  and  C_8
REMARK    6  A    between atoms: C_8  and  C_10
REMARK    7  A    between atoms: C_8  and  N_17
REMARK    8  A    between atoms: C_13  and  O_16
REMARK    9  A    between atoms: N_17  and  C_18
REMARK   10  A    between atoms: C_24  and  C_26
REMARK   11  A    between atoms: C_26  and  C_27
REMARK   12  A    between atoms: C_27  and  C_28
REMARK                            x       y       z     vdW  Elec       q    Type
REMARK                         _______ _______ _______ _____ _____    ______ ____
ROOT
ATOM      1  N   UNL     1       6.000   1.612   0.088  0.00  0.00    -0.283 N 
ATOM      2  C   UNL     1       5.083   0.690   0.442  0.00  0.00    +0.217 C 
ATOM      3  O   UNL     1       5.361  -0.490   0.394  0.00  0.00    -0.276 OA
ENDROOT
BRANCH   1   4
ATOM      4  C   UNL     1       5.699   3.038   0.237  0.00  0.00    +0.077 C 
ATOM      5  C   UNL     1       4.612   3.437  -0.764  0.00  0.00    +0.022 C 
ATOM      6  C   UNL     1       4.297   4.926  -0.609  0.00  0.00    +0.002 C 
ATOM      7  C   UNL     1       5.562   5.745  -0.876  0.00  0.00    +0.000 C 
ATOM      8  C   UNL     1       6.649   5.346   0.124  0.00  0.00    +0.002 C 
ATOM      9  C   UNL     1       6.963   3.857  -0.030  0.00  0.00    +0.022 C 
ENDBRANCH   1   4
BRANCH   1  10
ATOM     10  C   UNL     1       7.297   1.189  -0.444  0.00  0.00    +0.192 C 
BRANCH  10  11
ATOM     11  C   UNL     1       8.401   1.762   0.407  0.00  0.00    -0.018 A 
ATOM     12  C   UNL     1       9.458   2.425  -0.187  0.00  0.00    +0.009 A 
ATOM     13  C   UNL     1      10.468   2.955   0.592  0.00  0.00    +0.046 A 
ATOM     14  C   UNL     1      10.427   2.812   1.971  0.00  0.00    +0.117 A 
ATOM     15  C   UNL     1       9.367   2.142   2.565  0.00  0.00    +0.046 A 
ATOM     16  C   UNL     1       8.357   1.618   1.782  0.00  0.00    +0.009 A 
BRANCH  14  17
ATOM     17  O   UNL     1      11.422   3.328   2.739  0.00  0.00    -0.507 OA
ATOM     18  H   UNL     1      12.155   2.716   2.895  0.00  0.00    +0.292 HD
ENDBRANCH  14  17
ENDBRANCH  10  11
BRANCH  10  20
ATOM     19  N   UNL     1       8.530   1.345  -2.583  0.00  0.00    -0.309 N 
ATOM     20  C   UNL     1       7.445   1.686  -1.859  0.00  0.00    +0.238 C 
ATOM     21  O   UNL     1       6.589   2.393  -2.347  0.00  0.00    -0.273 OA
ATOM     22  H   UNL     1       9.215   0.779  -2.193  0.00  0.00    +0.149 HD
BRANCH  19  24
ATOM     23  C   UNL     1       8.694   3.357  -3.963  0.00  0.00    +0.031 C 
ATOM     24  C   UNL     1       8.674   1.828  -3.959  0.00  0.00    +0.026 C 
ATOM     25  C   UNL     1       9.982   1.299  -4.550  0.00  0.00    +0.031 C 
ATOM     26  C   UNL     1       7.497   1.331  -4.800  0.00  0.00    +0.031 C 
ENDBRANCH  19  24
ENDBRANCH  10  20
ENDBRANCH   1  10
BRANCH   2  27
ATOM     27  C   UNL     1       3.714   1.124   0.897  0.00  0.00    +0.105 C 
BRANCH  27  28
ATOM     28  C   UNL     1       2.939  -0.090   1.414  0.00  0.00    +0.105 C 
BRANCH  28  29
ATOM     29  C   UNL     1       1.570   0.344   1.869  0.00  0.00    +0.219 C 
ATOM     30  O   UNL     1       1.245   1.509   1.788  0.00  0.00    -0.275 OA
ATOM     31  N   UNL     1       0.706  -0.563   2.366  0.00  0.00    -0.265 N 
ATOM     32  C   UNL     1      -0.559  -0.164   2.781  0.00  0.00    +0.164 A 
ATOM     33  N   UNL     1      -1.089   1.044   2.777  0.00  0.00    -0.233 NA
ATOM     34  C   UNL     1      -2.319   1.251   3.206  0.00  0.00    +0.120 A 
ATOM     35  C   UNL     1      -3.030   0.193   3.665  0.00  0.00    +0.068 A 
ATOM     36  S   UNL     1      -1.845  -1.125   3.443  0.00  0.00    -0.061 S 
ATOM     37  H   UNL     1       0.966  -1.496   2.431  0.00  0.00    +0.157 HD
ENDBRANCH  28  29
ENDBRANCH  27  28
ENDBRANCH   2  27
TORSDOF 9
