REMARK  Name = ZINC23006477
REMARK  9 active torsions:
REMARK  status: ('A' for Active; 'I' for Inactive)
REMARK    1  A    between atoms: C_1  and  C_2
REMARK    2  A    between atoms: C_5  and  C_9
REMARK    3  A    between atoms: C_6  and  C_8
REMARK    4  A    between atoms: C_11  and  C_14
REMARK    5  A    between atoms: C_14  and  S_15
REMARK    6  A    between atoms: S_15  and  C_16
REMARK    7  A    between atoms: C_19  and  C_22
REMARK    8  A    between atoms: C_22  and  C_23
REMARK    9  A    between atoms: C_22  and  C_24
REMARK                            x       y       z     vdW  Elec       q    Type
REMARK                         _______ _______ _______ _____ _____    ______ ____
ROOT
ATOM      1  C   UNL     1      -7.143   1.908   0.704  0.00  0.00    +0.228 A 
ATOM      2  N   UNL     1      -5.886   1.863   1.075  0.00  0.00    -0.213 NA
ATOM      3  C   UNL     1      -5.117   1.789  -0.023  0.00  0.00    +0.090 A 
ATOM      4  C   UNL     1      -5.930   1.794  -1.095  0.00  0.00    +0.221 A 
ATOM      5  O   UNL     1      -7.196   1.863  -0.638  0.00  0.00    -0.443 OA
ENDROOT
BRANCH   1  10
ATOM      6  C   UNL     1     -11.676   2.245   4.234  0.00  0.00    +0.044 C 
ATOM      7  C   UNL     1     -10.489   2.156   3.309  0.00  0.00    -0.050 A 
ATOM      8  C   UNL     1      -9.219   1.988   3.833  0.00  0.00    +0.004 A 
ATOM      9  C   UNL     1      -8.129   1.906   2.992  0.00  0.00    +0.014 A 
ATOM     10  C   UNL     1      -8.308   1.994   1.611  0.00  0.00    +0.040 A 
ATOM     11  C   UNL     1      -9.590   2.170   1.089  0.00  0.00    -0.038 A 
ATOM     12  C   UNL     1     -10.674   2.244   1.941  0.00  0.00    +0.007 A 
ATOM     13  C   UNL     1      -9.793   2.272  -0.400  0.00  0.00    +0.044 C 
ENDBRANCH   1  10
BRANCH   3  14
ATOM     14  C   UNL     1      -3.612   1.719  -0.050  0.00  0.00    +0.136 C 
BRANCH  14  15
ATOM     15  S   UNL     1      -3.087  -0.012  -0.001  0.00  0.00    -0.080 S 
BRANCH  15  16
ATOM     16  C   UNL     1      -1.338   0.197  -0.042  0.00  0.00    +0.185 A 
ATOM     17  N   UNL     1      -0.401  -0.796  -0.026  0.00  0.00    -0.205 NA
ATOM     18  H   UNL     1      -1.070   2.369  -0.116  0.00  0.00    +0.191 HD
ATOM     19  C   UNL     1       0.810  -0.163  -0.077  0.00  0.00    +0.154 A 
ATOM     20  N   UNL     1       0.577   1.118  -0.118  0.00  0.00    -0.157 NA
ATOM     21  N   UNL     1      -0.690   1.337  -0.093  0.00  0.00    -0.254 N 
BRANCH  19  22
ATOM     22  C   UNL     1       2.164  -0.825  -0.084  0.00  0.00    +0.053 C 
ATOM     23  C   UNL     1       2.597  -1.115   1.355  0.00  0.00    +0.015 C 
ATOM     24  C   UNL     1       2.086  -2.137  -0.867  0.00  0.00    +0.015 C 
ENDBRANCH  19  22
ENDBRANCH  15  16
ENDBRANCH  14  15
ENDBRANCH   3  14
TORSDOF 5
