REMARK  Name = ZINC61881659
REMARK  4 active torsions:
REMARK  status: ('A' for Active; 'I' for Inactive)
REMARK    1  A    between atoms: C_4  and  N_8
REMARK    2  A    between atoms: N_8  and  S_9
REMARK    3  A    between atoms: S_9  and  C_12
REMARK    4  A    between atoms: C_16  and  N_19
REMARK                            x       y       z     vdW  Elec       q    Type
REMARK                         _______ _______ _______ _____ _____    ______ ____
ROOT
ATOM      1  S   UNL     1       3.650  -2.307  -0.046  0.00  0.00    +0.093 S 
ATOM      2  O   UNL     1       3.118  -2.728   1.203  0.00  0.00    -0.148 OA
ATOM      3  O   UNL     1       3.093  -2.715  -1.288  0.00  0.00    -0.148 OA
ENDROOT
BRANCH   1   4
ATOM      4  C   UNL     1       5.341  -2.803  -0.065  0.00  0.00    +0.127 A 
ATOM      5  C   UNL     1       5.871  -3.494   1.009  0.00  0.00    +0.050 A 
ATOM      6  C   UNL     1       7.198  -3.885   0.998  0.00  0.00    +0.045 A 
ATOM      7  C   UNL     1       7.999  -3.586  -0.089  0.00  0.00    +0.044 A 
ATOM      8  C   UNL     1       7.470  -2.893  -1.169  0.00  0.00    +0.042 A 
ATOM      9  C   UNL     1       6.135  -2.506  -1.156  0.00  0.00    +0.065 A 
ATOM     10 BR   UNL     1       5.407  -1.567  -2.628  0.00  0.00    -0.046 Br
ATOM     11 CL   UNL     1       7.858  -4.752   2.349  0.00  0.00    -0.083 Cl
BRANCH   8  12
ATOM     12  N   UNL     1       8.276  -2.588  -2.269  0.00  0.00    -0.357 N 
ATOM     13  H   UNL     1       9.207  -2.862  -2.278  0.00  0.00    +0.142 HD
ATOM     14  H   UNL     1       7.906  -2.104  -3.023  0.00  0.00    +0.142 HD
ENDBRANCH   8  12
ENDBRANCH   1   4
BRANCH   1  15
ATOM     15  N   UNL     1       3.625  -0.651  -0.037  0.00  0.00    -0.092 NA
BRANCH  15  19
ATOM     16  C   UNL     1      -0.017   1.379   0.010  0.00  0.00    +0.006 A 
ATOM     17  C   UNL     1       1.169   2.090   0.002  0.00  0.00    +0.040 A 
ATOM     18  C   UNL     1       2.379   1.420  -0.013  0.00  0.00    +0.151 A 
ATOM     19  C   UNL     1       2.402   0.030  -0.021  0.00  0.00    +0.144 A 
ATOM     20  C   UNL     1       1.208  -0.681  -0.013  0.00  0.00    +0.151 A 
ATOM     21  C   UNL     1       0.002  -0.004   0.002  0.00  0.00    +0.040 A 
ATOM     22  F   UNL     1       1.226  -2.032  -0.021  0.00  0.00    -0.203 F 
ATOM     23  F   UNL     1       3.537   2.116  -0.021  0.00  0.00    -0.203 F 
ENDBRANCH  15  19
ENDBRANCH   1  15
TORSDOF 4
