REMARK  Name = ZINC35512397
REMARK  8 active torsions:
REMARK  status: ('A' for Active; 'I' for Inactive)
REMARK    1  A    between atoms: C_1  and  C_2
REMARK    2  A    between atoms: C_2  and  O_3
REMARK    3  A    between atoms: O_3  and  C_4
REMARK    4  A    between atoms: C_6  and  C_11
REMARK    5  A    between atoms: C_9  and  O_10
REMARK    6  A    between atoms: C_18  and  C_34
REMARK    7  A    between atoms: C_29  and  C_33
REMARK    8  A    between atoms: C_30  and  C_32
REMARK                            x       y       z     vdW  Elec       q    Type
REMARK                         _______ _______ _______ _____ _____    ______ ____
ROOT
ATOM      1  C   UNL     1       0.654  -4.954  -0.018  0.00  0.00    +0.152 C 
ATOM      2  C   UNL     1       0.899  -5.472  -1.397  0.00  0.00    +0.072 A 
ATOM      3  C   UNL     1       1.188  -4.774  -2.654  0.00  0.00    +0.199 A 
ATOM      4  O   UNL     1       1.447  -3.585  -2.713  0.00  0.00    -0.287 OA
ATOM      5  C   UNL     1       1.136  -5.655  -3.849  0.00  0.00    +0.065 A 
ATOM      6  C   UNL     1       1.190  -5.109  -5.131  0.00  0.00    +0.018 A 
ATOM      7  C   UNL     1       1.136  -5.933  -6.221  0.00  0.00    -0.050 A 
ATOM      8  C   UNL     1       1.026  -7.306  -6.054  0.00  0.00    +0.007 A 
ATOM      9  C   UNL     1       0.973  -7.862  -4.795  0.00  0.00    +0.047 A 
ATOM     10  C   UNL     1       1.029  -7.043  -3.667  0.00  0.00    +0.139 A 
ATOM     11  O   UNL     1       0.985  -7.611  -2.440  0.00  0.00    -0.450 OA
ATOM     12  C   UNL     1       0.807  -6.835  -1.353  0.00  0.00    +0.199 A 
ATOM     13  C   UNL     1       0.499  -7.232   0.031  0.00  0.00    +0.289 C 
ATOM     14  O   UNL     1       0.349  -8.377   0.409  0.00  0.00    -0.266 OA
ATOM     15  N   UNL     1       0.409  -6.140   0.819  0.00  0.00    -0.232 N 
ATOM     16  C   UNL     1       0.135  -6.134   2.180  0.00  0.00    +0.169 A 
ATOM     17  N   UNL     1       0.031  -5.102   2.989  0.00  0.00    -0.229 NA
ATOM     18  C   UNL     1      -0.238  -5.264   4.271  0.00  0.00    +0.050 A 
ATOM     19  C   UNL     1      -0.401  -6.537   4.710  0.00  0.00    +0.011 A 
ATOM     20  S   UNL     1      -0.153  -7.446   3.194  0.00  0.00    -0.057 S 
ATOM     21  C   UNL     1      -0.711  -7.043   6.095  0.00  0.00    +0.053 C 
ATOM     22  C   UNL     1      -0.358  -4.088   5.205  0.00  0.00    +0.066 C 
ATOM     23  C   UNL     1       1.194  -5.348  -7.608  0.00  0.00    +0.044 C 
ENDROOT
BRANCH   1  26
ATOM     24  C   UNL     1      -1.498  -1.849   0.006  0.00  0.00    +0.162 A 
ATOM     25  C   UNL     1      -0.389  -2.680  -0.003  0.00  0.00    +0.055 A 
ATOM     26  C   UNL     1      -0.553  -4.052  -0.008  0.00  0.00    -0.018 A 
ATOM     27  C   UNL     1      -1.823  -4.600  -0.005  0.00  0.00    +0.009 A 
ATOM     28  C   UNL     1      -2.934  -3.777   0.004  0.00  0.00    +0.049 A 
ATOM     29  C   UNL     1      -2.776  -2.400   0.016  0.00  0.00    +0.158 A 
BRANCH  29  30
ATOM     30  O   UNL     1      -3.868  -1.589   0.030  0.00  0.00    -0.503 OA
ATOM     31  H   UNL     1      -4.192  -1.350  -0.849  0.00  0.00    +0.292 HD
ENDBRANCH  29  30
BRANCH  24  32
ATOM     32  O   UNL     1      -1.339  -0.499   0.012  0.00  0.00    -0.489 OA
BRANCH  32  34
ATOM     33  C   UNL     1      -0.019   1.526   0.010  0.00  0.00    +0.048 C 
ATOM     34  C   UNL     1       0.002  -0.004   0.002  0.00  0.00    +0.226 C 
ENDBRANCH  32  34
ENDBRANCH  24  32
ENDBRANCH   1  26
TORSDOF 4
