REMARK  Name = ZINC32210642
REMARK  7 active torsions:
REMARK  status: ('A' for Active; 'I' for Inactive)
REMARK    1  A    between atoms: C_1  and  C_2
REMARK    2  A    between atoms: C_2  and  C_3
REMARK    3  A    between atoms: C_2  and  N_4
REMARK    4  A    between atoms: C_5  and  C_7
REMARK    5  A    between atoms: C_7  and  N_8
REMARK    6  A    between atoms: C_9  and  C_11
REMARK    7  A    between atoms: C_13  and  C_17
REMARK                            x       y       z     vdW  Elec       q    Type
REMARK                         _______ _______ _______ _____ _____    ______ ____
ROOT
ATOM      1  C   UNL     1      -0.651  -1.692   7.046  0.00  0.00    +0.121 A 
ATOM      2  C   UNL     1      -0.359  -2.095   8.335  0.00  0.00    +0.062 A 
ATOM      3  C   UNL     1      -1.570  -1.986   9.042  0.00  0.00    +0.093 A 
ATOM      4  N   UNL     1      -2.483  -1.548   8.201  0.00  0.00    -0.173 NA
ATOM      5  N   UNL     1      -1.977  -1.362   7.035  0.00  0.00    -0.272 N 
ATOM      6  H   UNL     1      -2.465  -1.040   6.261  0.00  0.00    +0.189 HD
ENDROOT
BRANCH   3   7
ATOM      7  C   UNL     1      -1.780  -2.306  10.476  0.00  0.00    +0.002 A 
ATOM      8  C   UNL     1      -0.717  -2.759  11.254  0.00  0.00    +0.011 A 
ATOM      9  C   UNL     1      -0.917  -3.055  12.587  0.00  0.00    +0.016 A 
ATOM     10  C   UNL     1      -2.172  -2.904  13.151  0.00  0.00    +0.018 A 
ATOM     11  C   UNL     1      -3.232  -2.455  12.382  0.00  0.00    +0.016 A 
ATOM     12  C   UNL     1      -3.040  -2.150  11.050  0.00  0.00    +0.011 A 
ATOM     13 BR   UNL     1      -2.440  -3.312  14.978  0.00  0.00    -0.050 Br
ENDBRANCH   3   7
BRANCH   1  15
ATOM     14  N   UNL     1      -0.150  -1.201   4.706  0.00  0.00    -0.302 N 
ATOM     15  C   UNL     1       0.283  -1.623   5.911  0.00  0.00    +0.262 C 
ATOM     16  O   UNL     1       1.446  -1.948   6.060  0.00  0.00    -0.269 OA
ATOM     17  H   UNL     1      -1.077  -0.942   4.588  0.00  0.00    +0.150 HD
BRANCH  14  18
ATOM     18  C   UNL     1       0.780  -1.133   3.576  0.00  0.00    +0.200 C 
BRANCH  18  20
ATOM     19  N   UNL     1       0.711  -0.489   1.189  0.00  0.00    -0.312 N 
ATOM     20  C   UNL     1       0.051  -0.633   2.355  0.00  0.00    +0.230 C 
ATOM     21  O   UNL     1      -1.129  -0.361   2.423  0.00  0.00    -0.274 OA
ATOM     22  H   UNL     1       1.654  -0.707   1.135  0.00  0.00    +0.149 HD
BRANCH  19  24
ATOM     23  C   UNL     1      -0.019   1.526   0.010  0.00  0.00    +0.027 C 
ATOM     24  C   UNL     1       0.002  -0.004   0.002  0.00  0.00    +0.067 C 
ATOM     25  C   UNL     1       0.718  -0.497  -1.257  0.00  0.00    +0.027 C 
ENDBRANCH  19  24
ENDBRANCH  18  20
ENDBRANCH  14  18
ENDBRANCH   1  15
TORSDOF 5
