REMARK  Name = ZINC03346623
REMARK  12 active torsions:
REMARK  status: ('A' for Active; 'I' for Inactive)
REMARK    1  A    between atoms: C_1  and  C_2
REMARK    2  A    between atoms: C_2  and  C_4
REMARK    3  A    between atoms: C_2  and  O_18
REMARK    4  A    between atoms: N_6  and  C_7
REMARK    5  A    between atoms: C_9  and  N_15
REMARK    6  A    between atoms: C_12  and  O_13
REMARK    7  A    between atoms: O_13  and  C_14
REMARK    8  A    between atoms: O_18  and  C_19
REMARK    9  A    between atoms: C_19  and  C_21
REMARK   10  A    between atoms: C_24  and  N_27
REMARK   11  A    between atoms: N_27  and  S_28
REMARK   12  A    between atoms: S_28  and  C_31
REMARK                            x       y       z     vdW  Elec       q    Type
REMARK                         _______ _______ _______ _____ _____    ______ ____
ROOT
ATOM      1  O   UNL     1      -6.327  -2.321   0.205  0.00  0.00    -0.449 OA
ENDROOT
BRANCH   1   3
ATOM      2  C   UNL     1      -7.388  -0.514  -1.035  0.00  0.00    +0.062 C 
ATOM      3  C   UNL     1      -6.696  -0.919   0.269  0.00  0.00    +0.259 C 
BRANCH   3   4
ATOM      4  C   UNL     1      -5.458  -0.081   0.461  0.00  0.00    +0.258 C 
ATOM      5  O   UNL     1      -4.364  -0.604   0.446  0.00  0.00    -0.271 OA
ATOM      6  N   UNL     1      -5.567   1.249   0.650  0.00  0.00    -0.279 N 
ATOM      7  H   UNL     1      -6.443   1.655   0.743  0.00  0.00    +0.155 HD
BRANCH   6   8
ATOM      8  C   UNL     1      -4.415   2.044   0.711  0.00  0.00    +0.078 A 
ATOM      9  C   UNL     1      -3.230   1.598   0.144  0.00  0.00    +0.059 A 
ATOM     10  C   UNL     1      -2.096   2.384   0.206  0.00  0.00    +0.128 A 
ATOM     11  C   UNL     1      -2.136   3.614   0.837  0.00  0.00    +0.036 A 
ATOM     12  C   UNL     1      -3.314   4.068   1.399  0.00  0.00    +0.050 A 
ATOM     13  C   UNL     1      -4.456   3.285   1.342  0.00  0.00    +0.141 A 
BRANCH  10  14
ATOM     14  N   UNL     1      -0.832   1.906  -0.400  0.00  0.00    +0.056 N 
ATOM     15  O   UNL     1      -0.794   0.821  -0.951  0.00  0.00    -0.126 OA
ATOM     16  O   UNL     1       0.168   2.600  -0.351  0.00  0.00    -0.126 OA
ENDBRANCH  10  14
BRANCH  13  17
ATOM     17  O   UNL     1      -5.614   3.728   1.900  0.00  0.00    -0.493 OA
ATOM     18  C   UNL     1      -5.582   5.011   2.530  0.00  0.00    +0.277 C 
ENDBRANCH  13  17
ENDBRANCH   6   8
ENDBRANCH   3   4
ENDBRANCH   1   3
BRANCH   1  19
ATOM     19  C   UNL     1      -7.234  -3.214   0.649  0.00  0.00    +0.340 C 
ATOM     20  O   UNL     1      -8.304  -2.830   1.077  0.00  0.00    -0.245 OA
BRANCH  19  21
ATOM     21  C   UNL     1      -6.927  -4.655   0.614  0.00  0.00    +0.059 A 
ATOM     22  C   UNL     1      -5.698  -5.098   0.116  0.00  0.00    +0.017 A 
ATOM     23  C   UNL     1      -5.414  -6.440   0.091  0.00  0.00    +0.025 A 
ATOM     24  C   UNL     1      -6.352  -7.360   0.550  0.00  0.00    +0.048 A 
ATOM     25  C   UNL     1      -7.579  -6.923   1.041  0.00  0.00    +0.025 A 
ATOM     26  C   UNL     1      -7.867  -5.582   1.075  0.00  0.00    +0.017 A 
BRANCH  24  27
ATOM     27  N   UNL     1      -6.063  -8.720   0.519  0.00  0.00    -0.216 N 
ATOM     28  H   UNL     1      -5.450  -9.100   1.167  0.00  0.00    +0.174 HD
BRANCH  27  29
ATOM     29  S   UNL     1      -6.764  -9.689  -0.626  0.00  0.00    +0.079 S 
ATOM     30  O   UNL     1      -6.270 -11.003  -0.403  0.00  0.00    -0.149 OA
ATOM     31  O   UNL     1      -8.152  -9.386  -0.620  0.00  0.00    -0.149 OA
BRANCH  29  32
ATOM     32  C   UNL     1      -6.143  -9.177  -2.194  0.00  0.00    +0.146 A 
ATOM     33  C   UNL     1      -5.098  -9.672  -2.901  0.00  0.00    +0.036 A 
ATOM     34  C   UNL     1      -4.789  -9.107  -4.124  0.00  0.00    +0.010 A 
ATOM     35  C   UNL     1      -5.540  -8.075  -4.580  0.00  0.00    +0.047 A 
ATOM     36  S   UNL     1      -6.732  -7.877  -3.266  0.00  0.00    -0.077 S 
ENDBRANCH  29  32
ENDBRANCH  27  29
ENDBRANCH  24  27
ENDBRANCH  19  21
ENDBRANCH   1  19
TORSDOF 10
