REMARK  Name = ZINC59891945
REMARK  10 active torsions:
REMARK  status: ('A' for Active; 'I' for Inactive)
REMARK    1  A    between atoms: C_1  and  C_2
REMARK    2  A    between atoms: C_2  and  C_3
REMARK    3  A    between atoms: C_2  and  C_4
REMARK    4  A    between atoms: C_4  and  C_5
REMARK    5  A    between atoms: C_5  and  C_26
REMARK    6  A    between atoms: N_6  and  N_7
REMARK    7  A    between atoms: C_10  and  S_13
REMARK    8  A    between atoms: S_13  and  C_14
REMARK    9  A    between atoms: C_14  and  C_15
REMARK   10  A    between atoms: N_17  and  C_18
REMARK                            x       y       z     vdW  Elec       q    Type
REMARK                         _______ _______ _______ _____ _____    ______ ____
ROOT
ATOM      1  N   UNL     1      -1.788  -1.023   5.495  0.00  0.00    -0.205 N 
ATOM      2  C   UNL     1      -2.618  -2.006   6.004  0.00  0.00    +0.232 A 
ATOM      3  N   UNL     1      -2.428  -3.305   5.907  0.00  0.00    -0.186 NA
ATOM      4  C   UNL     1      -3.428  -3.952   6.514  0.00  0.00    +0.211 A 
ATOM      5  N   UNL     1      -4.269  -3.073   7.005  0.00  0.00    -0.144 NA
ATOM      6  N   UNL     1      -3.761  -1.802   6.691  0.00  0.00    -0.245 N 
ATOM      7  H   UNL     1      -2.011  -0.087   5.620  0.00  0.00    +0.177 HD
ATOM      8  H   UNL     1      -4.156  -0.946   6.922  0.00  0.00    +0.192 HD
ENDROOT
BRANCH   1  10
ATOM      9  C   UNL     1       0.141  -0.468   4.326  0.00  0.00    +0.034 C 
ATOM     10  N   UNL     1      -0.627  -1.378   4.797  0.00  0.00    -0.189 NA
ATOM     11  C   UNL     1      -0.206   0.986   4.521  0.00  0.00    +0.062 C 
BRANCH   9  12
ATOM     12  C   UNL     1       1.390  -0.850   3.575  0.00  0.00    +0.055 C 
BRANCH  12  14
ATOM     13  C   UNL     1       2.365  -1.224   1.306  0.00  0.00    +0.007 C 
ATOM     14  C   UNL     1       1.072  -0.974   2.084  0.00  0.00    -0.012 C 
ATOM     15  C   UNL     1       0.111  -2.144   1.863  0.00  0.00    +0.007 C 
ENDBRANCH  12  14
ENDBRANCH   9  12
ENDBRANCH   1  10
BRANCH   4  16
ATOM     16  S   UNL     1      -3.591  -5.703   6.635  0.00  0.00    -0.075 S 
BRANCH  16  17
ATOM     17  C   UNL     1      -5.133  -5.937   7.561  0.00  0.00    +0.173 C 
BRANCH  17  18
ATOM     18  C   UNL     1      -5.395  -7.411   7.736  0.00  0.00    +0.228 C 
ATOM     19  O   UNL     1      -4.617  -8.223   7.282  0.00  0.00    -0.275 OA
ATOM     20  N   UNL     1      -6.492  -7.826   8.398  0.00  0.00    -0.284 N 
ATOM     21  H   UNL     1      -7.153  -7.181   8.694  0.00  0.00    +0.155 HD
BRANCH  20  22
ATOM     22  C   UNL     1      -6.679  -9.189   8.659  0.00  0.00    +0.048 A 
ATOM     23  C   UNL     1      -5.601 -10.063   8.597  0.00  0.00    +0.025 A 
ATOM     24  C   UNL     1      -5.788 -11.407   8.854  0.00  0.00    +0.017 A 
ATOM     25  C   UNL     1      -7.047 -11.884   9.174  0.00  0.00    +0.019 A 
ATOM     26  C   UNL     1      -8.123 -11.016   9.236  0.00  0.00    +0.032 A 
ATOM     27  C   UNL     1      -7.941  -9.669   8.986  0.00  0.00    +0.040 A 
ATOM     28 BR   UNL     1      -9.410  -8.482   9.080  0.00  0.00    -0.048 Br
ATOM     29 BR   UNL     1      -7.298 -13.725   9.526  0.00  0.00    -0.050 Br
ENDBRANCH  20  22
ENDBRANCH  17  18
ENDBRANCH  16  17
ENDBRANCH   4  16
TORSDOF 7
