REMARK  Name = ZINC15016244
REMARK  5 active torsions:
REMARK  status: ('A' for Active; 'I' for Inactive)
REMARK    1  A    between atoms: C_10  and  C_25
REMARK    2  A    between atoms: C_13  and  C_16
REMARK    3  A    between atoms: C_19  and  O_24
REMARK    4  A    between atoms: C_20  and  O_23
REMARK    5  A    between atoms: C_21  and  O_22
REMARK                            x       y       z     vdW  Elec       q    Type
REMARK                         _______ _______ _______ _____ _____    ______ ____
ROOT
ATOM      1  C   UNL     1       1.063   1.654  -0.110  0.00  0.00    +0.001 A 
ATOM      2  C   UNL     1      -0.148   0.988  -0.176  0.00  0.00    +0.004 A 
ATOM      3  C   UNL     1      -1.329   1.697  -0.156  0.00  0.00    +0.046 A 
ATOM      4  C   UNL     1      -1.321   3.088  -0.056  0.00  0.00    +0.129 A 
ATOM      5  C   UNL     1      -0.101   3.747  -0.003  0.00  0.00    +0.017 A 
ATOM      6  C   UNL     1       1.082   3.033  -0.027  0.00  0.00    +0.009 A 
ATOM      7  C   UNL     1      -0.051   5.252   0.066  0.00  0.00    +0.136 C 
ATOM      8  C   UNL     1       0.821   5.743   1.230  0.00  0.00    +0.087 C 
ATOM      9  C   UNL     1      -0.104   6.655   2.010  0.00  0.00    +0.075 C 
ATOM     10  N   UNL     1      -1.299   6.585   1.514  0.00  0.00    -0.184 NA
ATOM     11  N   UNL     1      -1.406   5.698   0.459  0.00  0.00    -0.205 N 
ATOM     12  C   UNL     1      -2.600   5.136  -0.186  0.00  0.00    +0.314 C 
ATOM     13  O   UNL     1      -2.522   3.717  -0.005  0.00  0.00    -0.465 OA
ENDROOT
BRANCH  12  14
ATOM     14  C   UNL     1      -3.845   5.674   0.471  0.00  0.00    +0.058 A 
ATOM     15  C   UNL     1      -3.860   5.909   1.833  0.00  0.00    +0.016 A 
ATOM     16  C   UNL     1      -4.998   6.408   2.439  0.00  0.00    +0.050 A 
ATOM     17  C   UNL     1      -6.133   6.664   1.684  0.00  0.00    +0.162 A 
ATOM     18  C   UNL     1      -6.123   6.423   0.316  0.00  0.00    +0.201 A 
ATOM     19  C   UNL     1      -4.976   5.927  -0.291  0.00  0.00    +0.170 A 
BRANCH  19  20
ATOM     20  O   UNL     1      -4.961   5.690  -1.630  0.00  0.00    -0.503 OA
ATOM     21  H   UNL     1      -5.238   4.796  -1.875  0.00  0.00    +0.292 HD
ENDBRANCH  19  20
BRANCH  18  22
ATOM     22  O   UNL     1      -7.235   6.673  -0.429  0.00  0.00    -0.501 OA
ATOM     23  H   UNL     1      -7.837   5.919  -0.500  0.00  0.00    +0.292 HD
ENDBRANCH  18  22
BRANCH  17  24
ATOM     24  O   UNL     1      -7.253   7.150   2.282  0.00  0.00    -0.503 OA
ATOM     25  H   UNL     1      -7.859   6.466   2.598  0.00  0.00    +0.292 HD
ENDBRANCH  17  24
ENDBRANCH  12  14
BRANCH   9  26
ATOM     26  C   UNL     1       0.293   7.489   3.151  0.00  0.00    +0.035 A 
ATOM     27  C   UNL     1      -0.478   8.348   3.913  0.00  0.00    +0.017 A 
ATOM     28  C   UNL     1       0.127   9.027   4.947  0.00  0.00    +0.008 A 
ATOM     29  C   UNL     1       1.452   8.841   5.179  0.00  0.00    +0.046 A 
ATOM     30  S   UNL     1       1.898   7.663   3.914  0.00  0.00    -0.095 S 
ENDBRANCH   9  26
TORSDOF 5
