REMARK  Name = ZINC39676545
REMARK  10 active torsions:
REMARK  status: ('A' for Active; 'I' for Inactive)
REMARK    1  A    between atoms: C_1  and  C_2
REMARK    2  A    between atoms: C_7  and  C_8
REMARK    3  A    between atoms: C_12  and  C_21
REMARK    4  A    between atoms: N_23  and  C_24
REMARK    5  A    between atoms: C_24  and  C_25
REMARK    6  A    between atoms: C_24  and  C_33
REMARK    7  A    between atoms: C_28  and  O_31
REMARK    8  A    between atoms: O_31  and  C_32
REMARK    9  A    between atoms: C_36  and  O_39
REMARK   10  A    between atoms: O_39  and  C_40
REMARK                            x       y       z     vdW  Elec       q    Type
REMARK                         _______ _______ _______ _____ _____    ______ ____
ROOT
ATOM      1  C   UNL     1       0.215  -0.082   2.529  0.00  0.00    +0.247 C 
ATOM      2  O   UNL     1       0.117   1.128   2.591  0.00  0.00    -0.270 OA
ATOM      3  N   UNL     1       0.432  -0.799   3.650  0.00  0.00    -0.296 N 
ATOM      4  C   UNL     1       0.701  -2.252   3.761  0.00  0.00    +0.121 C 
ATOM      5  C   UNL     1       1.773  -2.367   4.867  0.00  0.00    +0.100 C 
ATOM      6  C   UNL     1       1.605  -1.092   5.711  0.00  0.00    -0.004 C 
ATOM      7  C   UNL     1       0.461  -0.311   5.050  0.00  0.00    +0.115 C 
ATOM      8  C   UNL     1       2.887  -0.265   5.680  0.00  0.00    -0.010 C 
ATOM      9  C   UNL     1       2.715   0.968   6.572  0.00  0.00    -0.082 C 
ATOM     10  N   UNL     1       2.415   0.543   7.944  0.00  0.00    +0.379 N 
ATOM     11  C   UNL     1       1.134  -0.172   7.979  0.00  0.00    -0.082 C 
ATOM     12  C   UNL     1       1.239  -1.453   7.147  0.00  0.00    -0.010 C 
ATOM     13  H   UNL     1       3.148  -0.067   8.274  0.00  0.00    -0.086 HD
ATOM     14  H   UNL     1       2.363   1.354   8.542  0.00  0.00    -0.086 HD
ENDROOT
BRANCH   1  21
ATOM     15  C   UNL     1       1.267   1.183   0.149  0.00  0.00    +0.044 C 
ATOM     16  C   UNL     1       0.601  -0.167   0.070  0.00  0.00    -0.038 A 
ATOM     17  C   UNL     1       0.492  -0.814  -1.144  0.00  0.00    +0.004 A 
ATOM     18  C   UNL     1      -0.119  -2.053  -1.218  0.00  0.00    +0.000 A 
ATOM     19  C   UNL     1      -0.626  -2.651  -0.078  0.00  0.00    +0.001 A 
ATOM     20  C   UNL     1      -0.523  -2.015   1.142  0.00  0.00    +0.013 A 
ATOM     21  C   UNL     1       0.097  -0.767   1.225  0.00  0.00    +0.040 A 
ENDBRANCH   1  21
BRANCH   5  22
ATOM     22  C   UNL     1       3.151  -2.418   4.259  0.00  0.00    +0.219 C 
ATOM     23  O   UNL     1       3.351  -1.930   3.167  0.00  0.00    -0.275 OA
ATOM     24  N   UNL     1       4.162  -3.007   4.929  0.00  0.00    -0.304 N 
ATOM     25  H   UNL     1       4.003  -3.397   5.802  0.00  0.00    +0.150 HD
BRANCH  24  26
ATOM     26  C   UNL     1       5.501  -3.057   4.337  0.00  0.00    +0.134 C 
BRANCH  26  27
ATOM     27  C   UNL     1       6.530  -3.173   5.433  0.00  0.00    -0.023 A 
ATOM     28  C   UNL     1       6.289  -3.990   6.522  0.00  0.00    +0.009 A 
ATOM     29  C   UNL     1       7.230  -4.097   7.527  0.00  0.00    +0.046 A 
ATOM     30  C   UNL     1       8.418  -3.385   7.444  0.00  0.00    +0.120 A 
ATOM     31  C   UNL     1       8.657  -2.566   6.349  0.00  0.00    +0.046 A 
ATOM     32  C   UNL     1       7.715  -2.466   5.344  0.00  0.00    +0.009 A 
BRANCH  30  33
ATOM     33  O   UNL     1       9.345  -3.489   8.432  0.00  0.00    -0.495 OA
ATOM     34  C   UNL     1      10.544  -2.727   8.279  0.00  0.00    +0.277 C 
ENDBRANCH  30  33
ENDBRANCH  26  27
BRANCH  26  35
ATOM     35  C   UNL     1       5.603  -4.251   3.424  0.00  0.00    -0.023 A 
ATOM     36  C   UNL     1       5.021  -5.451   3.790  0.00  0.00    +0.009 A 
ATOM     37  C   UNL     1       5.113  -6.548   2.955  0.00  0.00    +0.046 A 
ATOM     38  C   UNL     1       5.790  -6.444   1.748  0.00  0.00    +0.120 A 
ATOM     39  C   UNL     1       6.373  -5.239   1.384  0.00  0.00    +0.046 A 
ATOM     40  C   UNL     1       6.274  -4.144   2.220  0.00  0.00    +0.009 A 
BRANCH  38  41
ATOM     41  O   UNL     1       5.883  -7.522   0.925  0.00  0.00    -0.495 OA
ATOM     42  C   UNL     1       6.595  -7.342  -0.301  0.00  0.00    +0.277 C 
ENDBRANCH  38  41
ENDBRANCH  26  35
ENDBRANCH  24  26
ENDBRANCH   5  22
TORSDOF 7
