REMARK  Name = ZINC39657168
REMARK  7 active torsions:
REMARK  status: ('A' for Active; 'I' for Inactive)
REMARK    1  A    between atoms: C_1  and  C_2
REMARK    2  A    between atoms: C_3  and  C_8
REMARK    3  A    between atoms: C_4  and  C_7
REMARK    4  A    between atoms: C_12  and  C_21
REMARK    5  A    between atoms: N_23  and  C_24
REMARK    6  A    between atoms: C_24  and  C_26
REMARK    7  A    between atoms: C_24  and  C_27
REMARK                            x       y       z     vdW  Elec       q    Type
REMARK                         _______ _______ _______ _____ _____    ______ ____
ROOT
ATOM      1  C   UNL     1      -0.009  -0.436  -2.579  0.00  0.00    +0.252 C 
ATOM      2  O   UNL     1       1.040  -0.243  -3.162  0.00  0.00    -0.270 OA
ATOM      3  N   UNL     1      -1.180  -0.250  -3.220  0.00  0.00    -0.296 N 
ATOM      4  C   UNL     1      -2.549  -0.427  -2.680  0.00  0.00    +0.121 C 
ATOM      5  C   UNL     1      -3.361   0.741  -3.283  0.00  0.00    +0.100 C 
ATOM      6  C   UNL     1      -2.596   1.132  -4.559  0.00  0.00    -0.004 C 
ATOM      7  C   UNL     1      -1.390   0.184  -4.622  0.00  0.00    +0.115 C 
ATOM      8  C   UNL     1      -2.119   2.578  -4.467  0.00  0.00    -0.010 C 
ATOM      9  C   UNL     1      -1.411   2.961  -5.770  0.00  0.00    -0.082 C 
ATOM     10  N   UNL     1      -2.338   2.802  -6.897  0.00  0.00    +0.379 N 
ATOM     11  C   UNL     1      -2.721   1.392  -7.036  0.00  0.00    -0.082 C 
ATOM     12  C   UNL     1      -3.483   0.942  -5.786  0.00  0.00    -0.010 C 
ATOM     13  H   UNL     1      -3.164   3.358  -6.732  0.00  0.00    -0.086 HD
ATOM     14  H   UNL     1      -1.890   3.113  -7.746  0.00  0.00    -0.086 HD
ENDROOT
BRANCH   1  17
ATOM     15  C   UNL     1      -0.025   1.495   0.019  0.00  0.00    +0.070 C 
ATOM     16  C   UNL     1      -0.008  -0.012   0.011  0.00  0.00    +0.093 A 
ATOM     17  C   UNL     1      -0.000  -0.874  -1.172  0.00  0.00    +0.101 A 
ATOM     18  C   UNL     1       0.016  -2.163  -0.720  0.00  0.00    +0.147 A 
ATOM     19  O   UNL     1       0.019  -2.134   0.615  0.00  0.00    -0.359 OA
ATOM     20  N   UNL     1       0.008  -0.790   1.052  0.00  0.00    -0.083 NA
ATOM     21  C   UNL     1       0.029  -3.402  -1.579  0.00  0.00    +0.090 C 
ENDBRANCH   1  17
BRANCH   5  22
ATOM     22  C   UNL     1      -3.407   1.900  -2.321  0.00  0.00    +0.219 C 
ATOM     23  O   UNL     1      -2.531   2.037  -1.494  0.00  0.00    -0.275 OA
ATOM     24  N   UNL     1      -4.423   2.784  -2.379  0.00  0.00    -0.308 N 
ATOM     25  H   UNL     1      -5.124   2.674  -3.041  0.00  0.00    +0.149 HD
BRANCH  24  26
ATOM     26  C   UNL     1      -4.468   3.910  -1.444  0.00  0.00    +0.100 C 
ATOM     27  C   UNL     1      -5.128   3.462  -0.138  0.00  0.00    +0.033 C 
BRANCH  26  28
ATOM     28  C   UNL     1      -5.268   5.035  -2.050  0.00  0.00    -0.027 A 
ATOM     29  C   UNL     1      -6.421   4.758  -2.761  0.00  0.00    +0.006 A 
ATOM     30  C   UNL     1      -7.154   5.789  -3.316  0.00  0.00    +0.015 A 
ATOM     31  C   UNL     1      -6.735   7.098  -3.161  0.00  0.00    +0.018 A 
ATOM     32  C   UNL     1      -5.581   7.374  -2.450  0.00  0.00    +0.015 A 
ATOM     33  C   UNL     1      -4.851   6.343  -1.890  0.00  0.00    +0.006 A 
ATOM     34 BR   UNL     1      -7.738   8.509  -3.922  0.00  0.00    -0.050 Br
ENDBRANCH  26  28
ENDBRANCH  24  26
ENDBRANCH   5  22
TORSDOF 4
