REMARK  Name = ZINC36351089
REMARK  9 active torsions:
REMARK  status: ('A' for Active; 'I' for Inactive)
REMARK    1  A    between atoms: C_1  and  C_2
REMARK    2  A    between atoms: C_4  and  C_42
REMARK    3  A    between atoms: C_6  and  N_8
REMARK    4  A    between atoms: C_16  and  C_22
REMARK    5  A    between atoms: C_22  and  O_24
REMARK    6  A    between atoms: O_24  and  C_25
REMARK    7  A    between atoms: C_25  and  C_27
REMARK    8  A    between atoms: C_25  and  C_34
REMARK    9  A    between atoms: N_36  and  C_37
REMARK                            x       y       z     vdW  Elec       q    Type
REMARK                         _______ _______ _______ _____ _____    ______ ____
ROOT
ATOM      1  C   UNL     1       1.507  -6.417   3.844  0.00  0.00    +0.315 C 
ATOM      2  O   UNL     1       1.606  -6.165   2.666  0.00  0.00    -0.250 OA
ENDROOT
BRANCH   1  10
ATOM      3  N   UNL     1       0.052  -2.797   2.393  0.00  0.00    -0.268 N 
ATOM      4  C   UNL     1       0.044  -2.179   3.756  0.00  0.00    +0.153 C 
ATOM      5  C   UNL     1       0.667  -3.257   4.587  0.00  0.00    +0.116 C 
ATOM      6  C   UNL     1       2.154  -3.417   4.327  0.00  0.00    +0.008 C 
ATOM      7  C   UNL     1       2.558  -4.388   5.133  0.00  0.00    +0.004 C 
ATOM      8  C   UNL     1       1.287  -4.866   5.847  0.00  0.00    +0.157 C 
ATOM      9  O   UNL     1       0.514  -3.597   5.945  0.00  0.00    -0.359 OA
ATOM     10  C   UNL     1       0.536  -5.647   4.700  0.00  0.00    +0.145 C 
ATOM     11  C   UNL     1      -0.094  -4.481   3.937  0.00  0.00    +0.129 C 
ATOM     12  C   UNL     1       0.071  -4.166   2.507  0.00  0.00    +0.227 C 
ATOM     13  O   UNL     1       0.200  -4.965   1.603  0.00  0.00    -0.275 OA
BRANCH   3  19
ATOM     14  C   UNL     1      -0.018   1.503   0.010  0.00  0.00    +0.044 C 
ATOM     15  C   UNL     1       0.002  -0.004   0.002  0.00  0.00    -0.048 A 
ATOM     16  C   UNL     1       0.006  -0.688  -1.200  0.00  0.00    +0.006 A 
ATOM     17  C   UNL     1       0.025  -2.071  -1.212  0.00  0.00    -0.048 A 
ATOM     18  C   UNL     1       0.041  -2.773  -0.022  0.00  0.00    +0.027 A 
ATOM     19  C   UNL     1       0.037  -2.089   1.186  0.00  0.00    +0.037 A 
ATOM     20  C   UNL     1       0.023  -0.700   1.195  0.00  0.00    +0.027 A 
ATOM     21  C   UNL     1       0.028  -2.812  -2.524  0.00  0.00    +0.044 C 
ENDBRANCH   3  19
ENDBRANCH   1  10
BRANCH   1  22
ATOM     22  O   UNL     1       2.262  -7.384   4.389  0.00  0.00    -0.447 OA
BRANCH  22  23
ATOM     23  C   UNL     1       3.161  -8.074   3.518  0.00  0.00    +0.294 C 
BRANCH  23  24
ATOM     24  C   UNL     1       4.489  -7.362   3.502  0.00  0.00    +0.037 A 
ATOM     25  C   UNL     1       4.872  -6.588   4.581  0.00  0.00    +0.010 A 
ATOM     26  C   UNL     1       6.091  -5.936   4.566  0.00  0.00    +0.001 A 
ATOM     27  C   UNL     1       6.928  -6.056   3.472  0.00  0.00    +0.003 A 
ATOM     28  C   UNL     1       6.547  -6.829   2.392  0.00  0.00    +0.039 A 
ATOM     29  C   UNL     1       5.329  -7.488   2.408  0.00  0.00    +0.131 A 
ATOM     30  F   UNL     1       4.957  -8.248   1.355  0.00  0.00    -0.205 F 
ENDBRANCH  23  24
BRANCH  23  31
ATOM     31  C   UNL     1       3.353  -9.485   4.010  0.00  0.00    +0.259 C 
ATOM     32  O   UNL     1       2.777  -9.863   5.008  0.00  0.00    -0.271 OA
ATOM     33  N   UNL     1       4.165 -10.327   3.341  0.00  0.00    -0.309 N 
ATOM     34  H   UNL     1       4.626 -10.025   2.543  0.00  0.00    +0.149 HD
BRANCH  33  35
ATOM     35  C   UNL     1       4.352 -11.699   3.820  0.00  0.00    +0.073 C 
ATOM     36  C   UNL     1       5.504 -11.749   4.845  0.00  0.00    +0.022 C 
ATOM     37  C   UNL     1       6.214 -13.095   4.553  0.00  0.00    +0.002 C 
ATOM     38  C   UNL     1       6.150 -13.187   3.008  0.00  0.00    +0.002 C 
ATOM     39  C   UNL     1       4.763 -12.613   2.652  0.00  0.00    +0.022 C 
ENDBRANCH  33  35
ENDBRANCH  23  31
ENDBRANCH  22  23
ENDBRANCH   1  22
TORSDOF 7
