REMARK  Name = ZINC08984330
REMARK  10 active torsions:
REMARK  status: ('A' for Active; 'I' for Inactive)
REMARK    1  A    between atoms: C_1  and  N_2
REMARK    2  A    between atoms: N_2  and  C_3
REMARK    3  A    between atoms: N_2  and  C_4
REMARK    4  A    between atoms: C_7  and  C_10
REMARK    5  A    between atoms: N_11  and  N_12
REMARK    6  A    between atoms: C_17  and  O_19
REMARK    7  A    between atoms: O_19  and  C_20
REMARK    8  A    between atoms: C_20  and  C_21
REMARK    9  A    between atoms: N_25  and  C_26
REMARK   10  A    between atoms: N_25  and  C_32
REMARK                            x       y       z     vdW  Elec       q    Type
REMARK                         _______ _______ _______ _____ _____    ______ ____
ROOT
ATOM      1  N   UNL     1       1.744   0.599   2.045  0.00  0.00    -0.205 N 
ATOM      2  C   UNL     1       0.522   0.858   2.632  0.00  0.00    +0.242 A 
ATOM      3  N   UNL     1       0.450   1.117   3.934  0.00  0.00    -0.179 NA
ATOM      4  C   UNL     1      -0.727   1.366   4.498  0.00  0.00    +0.234 A 
ATOM      5  N   UNL     1      -1.832   1.362   3.758  0.00  0.00    -0.160 NA
ATOM      6  C   UNL     1      -1.761   1.099   2.459  0.00  0.00    +0.324 A 
ATOM      7  N   UNL     1      -0.585   0.850   1.895  0.00  0.00    -0.160 NA
ATOM      8  N   UNL     1      -0.802   1.636   5.852  0.00  0.00    -0.238 N 
ATOM      9  H   UNL     1       2.551   0.605   2.583  0.00  0.00    +0.177 HD
ENDROOT
BRANCH   8  10
ATOM     10  C   UNL     1      -2.043   1.887   6.448  0.00  0.00    +0.042 A 
ATOM     11  C   UNL     1      -2.792   0.837   6.964  0.00  0.00    +0.024 A 
ATOM     12  C   UNL     1      -4.015   1.089   7.556  0.00  0.00    +0.002 A 
ATOM     13  C   UNL     1      -4.498   2.383   7.625  0.00  0.00    +0.000 A 
ATOM     14  C   UNL     1      -3.757   3.429   7.106  0.00  0.00    +0.002 A 
ATOM     15  C   UNL     1      -2.532   3.185   6.518  0.00  0.00    +0.024 A 
ENDBRANCH   8  10
BRANCH   8  16
ATOM     16  C   UNL     1       0.362   1.657   6.627  0.00  0.00    +0.042 A 
ATOM     17  C   UNL     1       0.811   0.495   7.242  0.00  0.00    +0.024 A 
ATOM     18  C   UNL     1       1.964   0.519   8.002  0.00  0.00    +0.002 A 
ATOM     19  C   UNL     1       2.666   1.700   8.160  0.00  0.00    +0.000 A 
ATOM     20  C   UNL     1       2.218   2.860   7.554  0.00  0.00    +0.002 A 
ATOM     21  C   UNL     1       1.069   2.842   6.788  0.00  0.00    +0.024 A 
ENDBRANCH   8  16
BRANCH   1  23
ATOM     22  C   UNL     1       2.968   0.082   0.122  0.00  0.00    +0.138 C 
ATOM     23  N   UNL     1       1.819   0.326   0.673  0.00  0.00    -0.188 NA
BRANCH  22  27
ATOM     24  C   UNL     1       3.195  -0.745  -4.037  0.00  0.00    +0.029 A 
ATOM     25  C   UNL     1       4.353  -0.736  -3.267  0.00  0.00    +0.024 A 
ATOM     26  C   UNL     1       4.284  -0.468  -1.918  0.00  0.00    +0.011 A 
ATOM     27  C   UNL     1       3.047  -0.205  -1.322  0.00  0.00    -0.005 A 
ATOM     28  C   UNL     1       1.885  -0.221  -2.098  0.00  0.00    +0.011 A 
ATOM     29  C   UNL     1       1.963  -0.483  -3.448  0.00  0.00    +0.024 A 
BRANCH  24  31
ATOM     30  C   UNL     1       4.567  -1.293  -6.026  0.00  0.00    +0.129 C 
ATOM     31  N   UNL     1       3.269  -1.017  -5.403  0.00  0.00    -0.336 N 
ATOM     32  C   UNL     1       2.050  -1.027  -6.216  0.00  0.00    +0.129 C 
ENDBRANCH  24  31
ENDBRANCH  22  27
ENDBRANCH   1  23
BRANCH   6  33
ATOM     33  O   UNL     1      -2.886   1.090   1.708  0.00  0.00    -0.453 OA
BRANCH  33  34
ATOM     34  C   UNL     1      -2.736   0.804   0.316  0.00  0.00    +0.345 C 
BRANCH  34  35
ATOM     35  C   UNL     1      -4.106   0.838  -0.363  0.00  0.00    +0.424 C 
ATOM     36  F   UNL     1      -4.673   2.108  -0.206  0.00  0.00    -0.167 F 
ATOM     37  F   UNL     1      -3.959   0.559  -1.726  0.00  0.00    -0.167 F 
ATOM     38  F   UNL     1      -4.940  -0.120   0.222  0.00  0.00    -0.167 F 
ENDBRANCH  34  35
ENDBRANCH  33  34
ENDBRANCH   6  33
TORSDOF 8
