REMARK  Name = ZINC28852324
REMARK  9 active torsions:
REMARK  status: ('A' for Active; 'I' for Inactive)
REMARK    1  A    between atoms: C_1  and  C_2
REMARK    2  A    between atoms: C_2  and  C_4
REMARK    3  A    between atoms: C_2  and  O_17
REMARK    4  A    between atoms: N_6  and  C_7
REMARK    5  A    between atoms: C_10  and  S_13
REMARK    6  A    between atoms: S_13  and  N_16
REMARK    7  A    between atoms: O_17  and  C_18
REMARK    8  A    between atoms: C_18  and  C_20
REMARK    9  A    between atoms: C_21  and  C_22
REMARK                            x       y       z     vdW  Elec       q    Type
REMARK                         _______ _______ _______ _____ _____    ______ ____
ROOT
ATOM      1  C   UNL     1       2.410  -2.734  -0.138  0.00  0.00    +0.258 C 
ATOM      2  O   UNL     1       3.452  -2.114  -0.144  0.00  0.00    -0.271 OA
ATOM      3  N   UNL     1       1.237  -2.079  -0.021  0.00  0.00    -0.282 N 
ATOM      4  H   UNL     1       0.298  -2.645   0.072  0.00  0.00    +0.155 HD
ENDROOT
BRANCH   3   5
ATOM      5  C   UNL     1       1.214  -0.680  -0.019  0.00  0.00    +0.034 A 
ATOM      6  C   UNL     1       2.137   0.032  -0.773  0.00  0.00    +0.025 A 
ATOM      7  C   UNL     1       2.112   1.413  -0.768  0.00  0.00    +0.030 A 
ATOM      8  C   UNL     1       1.169   2.086  -0.013  0.00  0.00    +0.105 A 
ATOM      9  C   UNL     1       0.249   1.380   0.739  0.00  0.00    +0.030 A 
ATOM     10  C   UNL     1       0.269  -0.001   0.738  0.00  0.00    +0.025 A 
BRANCH   8  11
ATOM     11  S   UNL     1       1.141   3.848  -0.009  0.00  0.00    +0.056 S 
ATOM     12  O   UNL     1       0.513   4.241   1.203  0.00  0.00    -0.153 OA
ATOM     13  O   UNL     1       2.449   4.276  -0.363  0.00  0.00    -0.153 OA
BRANCH  11  14
ATOM     14  N   UNL     1       0.139   4.324  -1.238  0.00  0.00    -0.204 NA
ATOM     15  H   UNL     1       0.094   5.423  -1.270  0.00  0.00    +0.144 HD
ATOM     16  H   UNL     1      -0.870   3.921  -1.066  0.00  0.00    +0.144 HD
ENDBRANCH  11  14
ENDBRANCH   8  11
ENDBRANCH   3   5
BRANCH   1  18
ATOM     17  C   UNL     1       1.892  -4.858   1.032  0.00  0.00    +0.062 C 
ATOM     18  C   UNL     1       2.425  -4.236  -0.260  0.00  0.00    +0.259 C 
BRANCH  18  19
ATOM     19  O   UNL     1       3.764  -4.682  -0.487  0.00  0.00    -0.449 OA
BRANCH  19  20
ATOM     20  C   UNL     1       3.920  -5.811  -1.208  0.00  0.00    +0.333 C 
ATOM     21  O   UNL     1       2.945  -6.401  -1.633  0.00  0.00    -0.246 OA
BRANCH  20  22
ATOM     22  C   UNL     1       5.261  -6.326  -1.479  0.00  0.00    +0.092 C 
ATOM     23  C   UNL     1       5.417  -7.456  -2.201  0.00  0.00    +0.015 C 
BRANCH  23  24
ATOM     24  C   UNL     1       6.766  -7.974  -2.474  0.00  0.00    -0.023 A 
ATOM     25  C   UNL     1       6.931  -9.145  -3.222  0.00  0.00    +0.009 A 
ATOM     26  C   UNL     1       8.198  -9.625  -3.474  0.00  0.00    +0.022 A 
ATOM     27  C   UNL     1       9.308  -8.951  -2.988  0.00  0.00    +0.059 A 
ATOM     28  C   UNL     1       9.152  -7.791  -2.246  0.00  0.00    +0.060 A 
ATOM     29  C   UNL     1       7.890  -7.295  -1.992  0.00  0.00    +0.029 A 
ATOM     30 CL   UNL     1      10.549  -6.955  -1.642  0.00  0.00    -0.082 Cl
ATOM     31 CL   UNL     1      10.900  -9.564  -3.310  0.00  0.00    -0.082 Cl
ENDBRANCH  23  24
ENDBRANCH  20  22
ENDBRANCH  19  20
ENDBRANCH  18  19
ENDBRANCH   1  18
TORSDOF 8
