REMARK  Name = ZINC19581656
REMARK  6 active torsions:
REMARK  status: ('A' for Active; 'I' for Inactive)
REMARK    1  A    between atoms: C_1  and  C_2
REMARK    2  A    between atoms: C_3  and  C_12
REMARK    3  A    between atoms: C_12  and  C_14
REMARK    4  A    between atoms: C_12  and  O_36
REMARK    5  A    between atoms: C_14  and  N_15
REMARK    6  A    between atoms: C_22  and  O_35
REMARK                            x       y       z     vdW  Elec       q    Type
REMARK                         _______ _______ _______ _____ _____    ______ ____
ROOT
ATOM      1  N   UNL     1       0.711  -0.478  -1.194  0.00  0.00    +0.382 N 
ATOM      2  C   UNL     1       0.002  -0.004   0.002  0.00  0.00    -0.075 C 
ATOM      3  C   UNL     1      -0.019   1.526   0.010  0.00  0.00    +0.029 C 
ATOM      4  C   UNL     1       1.418   2.052  -0.001  0.00  0.00    +0.110 C 
ATOM      5  C   UNL     1       2.152   1.502  -1.224  0.00  0.00    +0.029 C 
ATOM      6  C   UNL     1       2.109  -0.027  -1.196  0.00  0.00    -0.075 C 
ATOM      7  C   UNL     1       1.402   3.584  -0.057  0.00  0.00    +0.084 C 
ATOM      8  C   UNL     1       0.583   4.098   1.129  0.00  0.00    +0.152 C 
ATOM      9  C   UNL     1       1.028   3.407   2.396  0.00  0.00    +0.023 A 
ATOM     10  C   UNL     1       0.696   3.997   3.619  0.00  0.00    +0.010 A 
ATOM     11  C   UNL     1       1.060   3.434   4.801  0.00  0.00    +0.009 A 
ATOM     12  C   UNL     1       1.785   2.230   4.804  0.00  0.00    -0.014 A 
ATOM     13  C   UNL     1       2.180   1.617   6.005  0.00  0.00    +0.008 A 
ATOM     14  C   UNL     1       2.879   0.449   5.965  0.00  0.00    +0.001 A 
ATOM     15  C   UNL     1       3.207  -0.150   4.750  0.00  0.00    +0.001 A 
ATOM     16  C   UNL     1       2.842   0.418   3.568  0.00  0.00    +0.012 A 
ATOM     17  C   UNL     1       2.123   1.625   3.570  0.00  0.00    +0.024 A 
ATOM     18  C   UNL     1       1.734   2.242   2.359  0.00  0.00    +0.135 A 
ATOM     19  O   UNL     1       2.090   1.649   1.191  0.00  0.00    -0.485 OA
ATOM     20  H   UNL     1       0.216  -0.040  -2.072  0.00  0.00    -0.082 HD
ENDROOT
BRANCH   8  21
ATOM     21  O   UNL     1       0.775   5.507   1.264  0.00  0.00    -0.387 OA
ATOM     22  H   UNL     1       0.263   6.058   2.067  0.00  0.00    +0.210 HD
ENDBRANCH   8  21
BRANCH   1  23
ATOM     23  C   UNL     1       0.629  -1.940  -1.309  0.00  0.00    -0.042 C 
BRANCH  23  24
ATOM     24  C   UNL     1       1.577  -2.419  -2.411  0.00  0.00    +0.130 C 
BRANCH  24  27
ATOM     25  C   UNL     1      -0.750  -4.024  -3.693  0.00  0.00    +0.063 C 
ATOM     26  C   UNL     1       0.491  -4.621  -3.082  0.00  0.00    +0.019 A 
ATOM     27  C   UNL     1       1.493  -3.919  -2.530  0.00  0.00    +0.007 A 
ATOM     28  C   UNL     1       2.486  -4.887  -2.058  0.00  0.00    +0.005 A 
ATOM     29  C   UNL     1       3.717  -4.776  -1.408  0.00  0.00    +0.010 A 
ATOM     30  C   UNL     1       4.422  -5.903  -1.094  0.00  0.00    +0.001 A 
ATOM     31  C   UNL     1       3.924  -7.159  -1.416  0.00  0.00    +0.002 A 
ATOM     32  C   UNL     1       2.712  -7.291  -2.057  0.00  0.00    +0.026 A 
ATOM     33  C   UNL     1       1.977  -6.157  -2.386  0.00  0.00    +0.047 A 
ATOM     34  N   UNL     1       0.766  -5.960  -3.010  0.00  0.00    -0.358 N 
ATOM     35  H   UNL     1       0.054  -6.690  -3.423  0.00  0.00    +0.166 HD
ENDBRANCH  24  27
BRANCH  24  36
ATOM     36  O   UNL     1       1.202  -1.821  -3.654  0.00  0.00    -0.389 OA
ATOM     37  H   UNL     1       1.202  -0.726  -3.760  0.00  0.00    +0.210 HD
ENDBRANCH  24  36
ENDBRANCH  23  24
ENDBRANCH   1  23
TORSDOF 5
