REMARK  Name = ZINC48334007
REMARK  10 active torsions:
REMARK  status: ('A' for Active; 'I' for Inactive)
REMARK    1  A    between atoms: C_1  and  C_2
REMARK    2  A    between atoms: C_5  and  C_28
REMARK    3  A    between atoms: C_7  and  O_8
REMARK    4  A    between atoms: O_8  and  C_9
REMARK    5  A    between atoms: C_9  and  C_11
REMARK    6  A    between atoms: C_9  and  C_12
REMARK    7  A    between atoms: N_14  and  C_15
REMARK    8  A    between atoms: C_24  and  C_27
REMARK    9  A    between atoms: C_28  and  C_29
REMARK   10  A    between atoms: C_28  and  C_30
REMARK                            x       y       z     vdW  Elec       q    Type
REMARK                         _______ _______ _______ _____ _____    ______ ____
ROOT
ATOM      1  C   UNL     1      -0.735   0.003   4.674  0.00  0.00    +0.258 C 
ATOM      2  O   UNL     1      -1.067   1.154   4.485  0.00  0.00    -0.271 OA
ATOM      3  N   UNL     1      -1.085  -0.620   5.816  0.00  0.00    -0.282 N 
ATOM      4  H   UNL     1      -0.759  -1.515   6.000  0.00  0.00    +0.155 HD
ENDROOT
BRANCH   3   5
ATOM      5  C   UNL     1      -1.919   0.024   6.739  0.00  0.00    +0.035 A 
ATOM      6  C   UNL     1      -2.909   0.890   6.293  0.00  0.00    +0.027 A 
ATOM      7  C   UNL     1      -3.735   1.528   7.199  0.00  0.00    +0.049 A 
ATOM      8  C   UNL     1      -3.576   1.304   8.556  0.00  0.00    +0.143 A 
ATOM      9  C   UNL     1      -2.583   0.436   9.007  0.00  0.00    +0.077 A 
ATOM     10  C   UNL     1      -1.760  -0.207   8.099  0.00  0.00    +0.050 A 
ATOM     11  N   UNL     1      -2.433   0.222  10.385  0.00  0.00    -0.279 N 
ATOM     12  C   UNL     1      -3.429   0.596  11.217  0.00  0.00    +0.258 C 
ATOM     13  O   UNL     1      -3.310   0.448  12.415  0.00  0.00    -0.271 OA
ATOM     14  C   UNL     1      -4.691   1.198  10.652  0.00  0.00    +0.256 C 
ATOM     15  O   UNL     1      -4.383   1.925   9.459  0.00  0.00    -0.478 OA
ATOM     16  C   UNL     1      -5.308   2.147  11.681  0.00  0.00    +0.062 C 
ATOM     17  H   UNL     1      -1.627  -0.189  10.735  0.00  0.00    +0.155 HD
ENDBRANCH   3   5
BRANCH   1  18
ATOM     18  C   UNL     1       0.067  -0.731   3.631  0.00  0.00    +0.256 C 
ATOM     19  C   UNL     1       1.402  -1.175   4.233  0.00  0.00    +0.062 C 
BRANCH  18  20
ATOM     20  O   UNL     1       0.310   0.136   2.520  0.00  0.00    -0.480 OA
BRANCH  20  27
ATOM     21  C   UNL     1       0.538   1.825   0.268  0.00  0.00    +0.047 C 
ATOM     22  C   UNL     1       0.656   0.325   0.174  0.00  0.00    -0.009 A 
ATOM     23  C   UNL     1       0.891  -0.275  -1.048  0.00  0.00    +0.007 A 
ATOM     24  C   UNL     1       0.999  -1.651  -1.134  0.00  0.00    +0.004 A 
ATOM     25  C   UNL     1       0.873  -2.429   0.002  0.00  0.00    -0.041 A 
ATOM     26  C   UNL     1       0.639  -1.834   1.226  0.00  0.00    +0.049 A 
ATOM     27  C   UNL     1       0.535  -0.453   1.316  0.00  0.00    +0.125 A 
BRANCH  25  28
ATOM     28  C   UNL     1       0.991  -3.928  -0.096  0.00  0.00    +0.013 C 
ATOM     29  C   UNL     1      -0.092  -4.465  -1.034  0.00  0.00    +0.012 C 
ATOM     30  C   UNL     1       2.370  -4.297  -0.646  0.00  0.00    +0.012 C 
ENDBRANCH  25  28
ENDBRANCH  20  27
ENDBRANCH  18  20
ENDBRANCH   1  18
TORSDOF 5
