REMARK  Name = ZINC52899166
REMARK  7 active torsions:
REMARK  status: ('A' for Active; 'I' for Inactive)
REMARK    1  A    between atoms: C_3  and  C_10
REMARK    2  A    between atoms: C_6  and  C_7
REMARK    3  A    between atoms: C_7  and  C_8
REMARK    4  A    between atoms: C_8  and  N_9
REMARK    5  A    between atoms: C_10  and  N_11
REMARK    6  A    between atoms: N_11  and  S_12
REMARK    7  A    between atoms: S_12  and  C_15
REMARK                            x       y       z     vdW  Elec       q    Type
REMARK                         _______ _______ _______ _____ _____    ______ ____
ROOT
ATOM      1  C   UNL     1       3.672   2.182  -0.022  0.00  0.00    +0.141 C 
ENDROOT
BRANCH   1   4
ATOM      2  C   UNL     1      -0.017   1.378   0.010  0.00  0.00    +0.004 A 
ATOM      3  C   UNL     1       1.171   2.086   0.002  0.00  0.00    +0.005 A 
ATOM      4  C   UNL     1       2.377   1.411  -0.013  0.00  0.00    -0.032 A 
ATOM      5  C   UNL     1       2.396   0.029  -0.020  0.00  0.00    +0.005 A 
ATOM      6  C   UNL     1       1.208  -0.679  -0.012  0.00  0.00    +0.004 A 
ATOM      7  C   UNL     1       0.002  -0.004   0.002  0.00  0.00    -0.049 A 
BRANCH   7   8
ATOM      8  C   UNL     1      -1.293  -0.775   0.011  0.00  0.00    +0.015 C 
BRANCH   8   9
ATOM      9  C   UNL     1      -1.745  -1.028  -1.429  0.00  0.00    -0.082 C 
BRANCH   9  10
ATOM     10  N   UNL     1      -3.007  -1.780  -1.420  0.00  0.00    +0.378 N 
ATOM     11  H   UNL     1      -2.870  -2.663  -0.951  0.00  0.00    -0.090 HD
ATOM     12  H   UNL     1      -3.713  -1.247  -0.935  0.00  0.00    -0.090 HD
ATOM     13  H   UNL     1      -3.305  -1.947  -2.370  0.00  0.00    -0.090 HD
ENDBRANCH   9  10
ENDBRANCH   8   9
ENDBRANCH   7   8
ENDBRANCH   1   4
BRANCH   1  14
ATOM     14  N   UNL     1       4.105   2.425   1.356  0.00  0.00    -0.186 NA
ATOM     15  H   UNL     1       3.483   2.300   2.089  0.00  0.00    +0.148 HD
BRANCH  14  16
ATOM     16  S   UNL     1       5.657   2.915   1.662  0.00  0.00    +0.059 S 
ATOM     17  O   UNL     1       5.758   3.090   3.068  0.00  0.00    -0.153 OA
ATOM     18  O   UNL     1       6.510   2.036   0.940  0.00  0.00    -0.153 OA
BRANCH  16  19
ATOM     19  C   UNL     1       5.852   4.510   0.941  0.00  0.00    +0.105 A 
ATOM     20  C   UNL     1       6.285   4.630  -0.367  0.00  0.00    +0.029 A 
ATOM     21  C   UNL     1       6.437   5.881  -0.933  0.00  0.00    +0.017 A 
ATOM     22  C   UNL     1       6.157   7.014  -0.191  0.00  0.00    +0.018 A 
ATOM     23  C   UNL     1       5.725   6.895   1.117  0.00  0.00    +0.017 A 
ATOM     24  C   UNL     1       5.568   5.643   1.681  0.00  0.00    +0.029 A 
ATOM     25 BR   UNL     1       6.367   8.727  -0.965  0.00  0.00    -0.050 Br
ENDBRANCH  16  19
ENDBRANCH  14  16
ENDBRANCH   1  14
TORSDOF 7
