REMARK  Name = ZINC09543136
REMARK  10 active torsions:
REMARK  status: ('A' for Active; 'I' for Inactive)
REMARK    1  A    between atoms: C_1  and  C_2
REMARK    2  A    between atoms: C_2  and  O_3
REMARK    3  A    between atoms: O_3  and  C_4
REMARK    4  A    between atoms: C_8  and  C_11
REMARK    5  A    between atoms: C_9  and  O_10
REMARK    6  A    between atoms: C_14  and  C_28
REMARK    7  A    between atoms: C_16  and  C_18
REMARK    8  A    between atoms: C_21  and  C_24
REMARK    9  A    between atoms: C_24  and  O_26
REMARK   10  A    between atoms: O_26  and  C_27
REMARK                            x       y       z     vdW  Elec       q    Type
REMARK                         _______ _______ _______ _____ _____    ______ ____
ROOT
ATOM      1  C   UNL     1       1.147   1.523  -2.506  0.00  0.00    -0.028 C 
ATOM      2  C   UNL     1       0.233   2.689  -2.892  0.00  0.00    +0.044 C 
ATOM      3  C   UNL     1      -0.209   2.530  -4.320  0.00  0.00    +0.040 C 
ATOM      4  N   UNL     1       0.363   1.734  -5.144  0.00  0.00    -0.299 NA
ATOM      5  C   UNL     1       1.496   0.882  -4.805  0.00  0.00    +0.081 C 
ATOM      6  N   UNL     1       2.151   1.350  -3.574  0.00  0.00    +0.401 N 
ATOM      7  H   UNL     1       2.850   0.658  -3.276  0.00  0.00    -0.081 HD
ATOM      8  H   UNL     1       2.615   2.248  -3.755  0.00  0.00    -0.081 HD
ENDROOT
BRANCH   3   9
ATOM      9  C   UNL     1      -1.356   3.328  -4.795  0.00  0.00    -0.004 A 
ATOM     10  C   UNL     1      -2.009   4.203  -3.925  0.00  0.00    +0.011 A 
ATOM     11  C   UNL     1      -3.077   4.950  -4.376  0.00  0.00    +0.016 A 
ATOM     12  C   UNL     1      -3.508   4.825  -5.686  0.00  0.00    +0.018 A 
ATOM     13  C   UNL     1      -2.868   3.955  -6.553  0.00  0.00    +0.016 A 
ATOM     14  C   UNL     1      -1.796   3.207  -6.115  0.00  0.00    +0.011 A 
ATOM     15 BR   UNL     1      -4.978   5.848  -6.295  0.00  0.00    -0.050 Br
ENDBRANCH   3   9
BRANCH   1  20
ATOM     16  C   UNL     1       1.866   1.824   1.198  0.00  0.00    +0.162 A 
ATOM     17  C   UNL     1       3.126   2.399   1.184  0.00  0.00    +0.049 A 
ATOM     18  C   UNL     1       3.738   2.693  -0.020  0.00  0.00    +0.004 A 
ATOM     19  C   UNL     1       3.098   2.410  -1.212  0.00  0.00    +0.006 A 
ATOM     20  C   UNL     1       1.843   1.830  -1.205  0.00  0.00    -0.016 A 
ATOM     21  C   UNL     1       1.224   1.533  -0.001  0.00  0.00    +0.160 A 
BRANCH  21  22
ATOM     22  O   UNL     1      -0.011   0.963   0.007  0.00  0.00    -0.503 OA
ATOM     23  H   UNL     1       0.002  -0.004   0.002  0.00  0.00    +0.292 HD
ENDBRANCH  21  22
BRANCH  16  24
ATOM     24  O   UNL     1       1.260   1.539   2.382  0.00  0.00    -0.489 OA
BRANCH  24  26
ATOM     25  C   UNL     1       1.144   1.475   4.795  0.00  0.00    +0.048 C 
ATOM     26  C   UNL     1       1.978   1.865   3.574  0.00  0.00    +0.226 C 
ENDBRANCH  24  26
ENDBRANCH  16  24
ENDBRANCH   1  20
BRANCH   5  27
ATOM     27  C   UNL     1       1.013  -0.531  -4.606  0.00  0.00    -0.040 A 
ATOM     28  C   UNL     1       1.693  -1.377  -3.748  0.00  0.00    +0.004 A 
ATOM     29  C   UNL     1       1.253  -2.671  -3.557  0.00  0.00    +0.015 A 
ATOM     30  C   UNL     1       0.125  -3.129  -4.240  0.00  0.00    +0.059 A 
ATOM     31  C   UNL     1      -0.553  -2.272  -5.109  0.00  0.00    +0.015 A 
ATOM     32  C   UNL     1      -0.105  -0.979  -5.287  0.00  0.00    +0.004 A 
BRANCH  30  33
ATOM     33  C   UNL     1      -0.348  -4.514  -4.045  0.00  0.00    +0.339 C 
ATOM     34  O   UNL     1      -1.330  -4.911  -4.642  0.00  0.00    -0.245 OA
BRANCH  33  35
ATOM     35  O   UNL     1       0.308  -5.339  -3.207  0.00  0.00    -0.464 OA
ATOM     36  C   UNL     1      -0.213  -6.687  -3.064  0.00  0.00    +0.280 C 
ENDBRANCH  33  35
ENDBRANCH  30  33
ENDBRANCH   5  27
TORSDOF 8
