REMARK  Name = ZINC05141805
REMARK  7 active torsions:
REMARK  status: ('A' for Active; 'I' for Inactive)
REMARK    1  A    between atoms: C_1  and  C_2
REMARK    2  A    between atoms: C_2  and  C_3
REMARK    3  A    between atoms: C_3  and  N_4
REMARK    4  A    between atoms: C_5  and  C_7
REMARK    5  A    between atoms: C_7  and  N_54
REMARK    6  A    between atoms: C_10  and  O_26
REMARK    7  A    between atoms: C_17  and  C_19
REMARK                            x       y       z     vdW  Elec       q    Type
REMARK                         _______ _______ _______ _____ _____    ______ ____
ROOT
ATOM      1  C   UNL     1      -2.708   7.294   2.510  0.00  0.00    -0.075 C 
ATOM      2  C   UNL     1      -2.539   8.810   2.387  0.00  0.00    +0.016 C 
ATOM      3  C   UNL     1      -3.355   9.499   3.483  0.00  0.00    +0.066 C 
ATOM      4  C   UNL     1      -3.150  11.011   3.394  0.00  0.00    +0.035 C 
ATOM      5  C   UNL     1      -1.674  11.353   3.602  0.00  0.00    +0.003 C 
ATOM      6  C   UNL     1      -1.228  10.857   4.980  0.00  0.00    +0.000 C 
ATOM      7  C   UNL     1      -1.413   9.341   5.059  0.00  0.00    +0.005 C 
ATOM      8  C   UNL     1      -2.889   8.992   4.850  0.00  0.00    +0.011 C 
ATOM      9  C   UNL     1      -3.058   7.471   4.903  0.00  0.00    -0.031 C 
ATOM     10  N   UNL     1      -2.228   6.862   3.841  0.00  0.00    +0.390 N 
ATOM     11  H   UNL     1      -1.256   7.171   3.960  0.00  0.00    -0.080 HD
ENDROOT
BRANCH   9  12
ATOM     12  C   UNL     1      -2.591   6.959   6.242  0.00  0.00    -0.060 A 
ATOM     13  C   UNL     1      -1.241   6.780   6.480  0.00  0.00    +0.005 A 
ATOM     14  C   UNL     1      -0.812   6.315   7.709  0.00  0.00    +0.038 A 
ATOM     15  C   UNL     1      -1.735   6.020   8.698  0.00  0.00    +0.123 A 
ATOM     16  C   UNL     1      -3.087   6.195   8.456  0.00  0.00    +0.038 A 
ATOM     17  C   UNL     1      -3.514   6.665   7.228  0.00  0.00    +0.005 A 
ATOM     18  F   UNL     1      -1.317   5.561   9.898  0.00  0.00    -0.205 F 
ENDBRANCH   9  12
BRANCH   3  19
ATOM     19  O   UNL     1      -4.739   9.186   3.307  0.00  0.00    -0.388 OA
ATOM     20  H   UNL     1      -5.103   9.477   2.461  0.00  0.00    +0.210 HD
ENDBRANCH   3  19
BRANCH  10  21
ATOM     21  C   UNL     1      -2.280   5.390   3.942  0.00  0.00    +0.019 C 
BRANCH  21  23
ATOM     22  N   UNL     1      -3.925   3.566   3.648  0.00  0.00    -0.317 N 
ATOM     23  C   UNL     1      -3.683   4.891   3.711  0.00  0.00    +0.196 C 
ATOM     24  O   UNL     1      -4.594   5.680   3.582  0.00  0.00    -0.278 OA
ATOM     25  H   UNL     1      -3.196   2.934   3.752  0.00  0.00    +0.149 HD
BRANCH  22  26
ATOM     26  C   UNL     1      -5.289   3.081   3.424  0.00  0.00    +0.104 C 
BRANCH  26  28
ATOM     27  C   UNL     1      -6.712   1.044   3.161  0.00  0.00    +0.005 C 
ATOM     28  C   UNL     1      -5.288   1.551   3.396  0.00  0.00    +0.015 C 
ENDBRANCH  26  28
ENDBRANCH  22  26
ENDBRANCH  21  23
ENDBRANCH  10  21
TORSDOF 6
