REMARK  Name = ZINC50196454
REMARK  7 active torsions:
REMARK  status: ('A' for Active; 'I' for Inactive)
REMARK    1  A    between atoms: C_1  and  C_2
REMARK    2  A    between atoms: C_2  and  C_3
REMARK    3  A    between atoms: C_2  and  C_4
REMARK    4  A    between atoms: C_2  and  N_18
REMARK    5  A    between atoms: C_4  and  C_5
REMARK    6  A    between atoms: C_5  and  C_6
REMARK    7  A    between atoms: C_8  and  C_11
REMARK                            x       y       z     vdW  Elec       q    Type
REMARK                         _______ _______ _______ _____ _____    ______ ____
ROOT
ATOM      1  C   UNL     1      -3.563  -0.562   1.282  0.00  0.00    +0.228 A 
ATOM      2  N   UNL     1      -3.956  -1.685   1.813  0.00  0.00    -0.191 NA
ATOM      3  C   UNL     1      -5.282  -1.836   1.642  0.00  0.00    +0.202 A 
ATOM      4  N   UNL     1      -5.742  -0.795   0.992  0.00  0.00    -0.056 NA
ATOM      5  O   UNL     1      -4.628   0.053   0.753  0.00  0.00    -0.338 OA
ENDROOT
BRANCH   3   6
ATOM      6  C   UNL     1      -6.089  -2.990   2.110  0.00  0.00    +0.023 A 
ATOM      7  C   UNL     1      -5.479  -4.037   2.798  0.00  0.00    +0.012 A 
ATOM      8  C   UNL     1      -6.234  -5.108   3.231  0.00  0.00    +0.002 A 
ATOM      9  C   UNL     1      -7.594  -5.144   2.984  0.00  0.00    +0.015 A 
ATOM     10  C   UNL     1      -8.206  -4.107   2.301  0.00  0.00    +0.019 A 
ATOM     11  C   UNL     1      -7.460  -3.027   1.868  0.00  0.00    +0.027 A 
ATOM     12 BR   UNL     1     -10.066  -4.164   1.966  0.00  0.00    -0.050 Br
ENDBRANCH   3   6
BRANCH   1  13
ATOM     13  C   UNL     1      -2.149  -0.040   1.272  0.00  0.00    +0.097 C 
BRANCH  13  14
ATOM     14  C   UNL     1      -1.433  -0.534   0.013  0.00  0.00    -0.004 C 
BRANCH  14  16
ATOM     15  C   UNL     1      -0.019   1.526   0.010  0.00  0.00    -0.011 C 
ATOM     16  C   UNL     1       0.002  -0.004   0.002  0.00  0.00    -0.076 C 
ATOM     17  C   UNL     1       0.742  -0.511   1.242  0.00  0.00    -0.011 C 
BRANCH  16  18
ATOM     18  N   UNL     1       0.690  -0.478  -1.207  0.00  0.00    +0.381 N 
ATOM     19  H   UNL     1       1.636  -0.129  -1.214  0.00  0.00    -0.089 HD
ATOM     20  H   UNL     1       0.703  -1.487  -1.212  0.00  0.00    -0.089 HD
ATOM     21  H   UNL     1       0.202  -0.144  -2.024  0.00  0.00    -0.089 HD
ENDBRANCH  16  18
ENDBRANCH  14  16
ENDBRANCH  13  14
ENDBRANCH   1  13
TORSDOF 5
