REMARK  Name = ZINC39670061
REMARK  7 active torsions:
REMARK  status: ('A' for Active; 'I' for Inactive)
REMARK    1  A    between atoms: C_1  and  C_2
REMARK    2  A    between atoms: C_7  and  C_11
REMARK    3  A    between atoms: C_11  and  N_12
REMARK    4  A    between atoms: C_13  and  C_15
REMARK    5  A    between atoms: C_26  and  C_28
REMARK    6  A    between atoms: C_31  and  O_34
REMARK    7  A    between atoms: O_34  and  C_35
REMARK                            x       y       z     vdW  Elec       q    Type
REMARK                         _______ _______ _______ _____ _____    ______ ____
ROOT
ATOM      1  C   UNL     1       3.835  -7.311   3.706  0.00  0.00    +0.100 C 
ATOM      2  C   UNL     1       4.138  -6.095   4.609  0.00  0.00    +0.121 C 
ATOM      3  N   UNL     1       3.872  -6.575   5.985  0.00  0.00    -0.296 N 
ATOM      4  C   UNL     1       4.395  -7.962   5.999  0.00  0.00    +0.115 C 
ATOM      5  C   UNL     1       4.009  -8.535   4.621  0.00  0.00    -0.004 C 
ATOM      6  C   UNL     1       5.121  -9.436   4.093  0.00  0.00    -0.010 C 
ATOM      7  C   UNL     1       5.236 -10.675   4.986  0.00  0.00    -0.082 C 
ATOM      8  N   UNL     1       3.957 -11.395   4.993  0.00  0.00    +0.379 N 
ATOM      9  C   UNL     1       2.911 -10.554   5.588  0.00  0.00    -0.082 C 
ATOM     10  C   UNL     1       2.699  -9.310   4.721  0.00  0.00    -0.010 C 
ATOM     11  C   UNL     1       3.288  -5.902   6.997  0.00  0.00    +0.247 C 
ATOM     12  O   UNL     1       2.796  -4.809   6.795  0.00  0.00    -0.270 OA
ATOM     13  H   UNL     1       3.699 -11.630   4.046  0.00  0.00    -0.086 HD
ATOM     14  H   UNL     1       4.052 -12.243   5.533  0.00  0.00    -0.086 HD
ENDROOT
BRANCH  11  15
ATOM     15  C   UNL     1       3.246  -6.492   8.349  0.00  0.00    +0.037 A 
ATOM     16  C   UNL     1       4.152  -7.495   8.704  0.00  0.00    +0.016 A 
ATOM     17  C   UNL     1       4.110  -8.043   9.966  0.00  0.00    +0.047 A 
ATOM     18  C   UNL     1       3.167  -7.601  10.887  0.00  0.00    +0.130 A 
ATOM     19  C   UNL     1       2.264  -6.603  10.538  0.00  0.00    +0.047 A 
ATOM     20  C   UNL     1       2.304  -6.046   9.279  0.00  0.00    +0.016 A 
BRANCH  18  21
ATOM     21  O   UNL     1       3.129  -8.144  12.130  0.00  0.00    -0.406 OA
BRANCH  21  22
ATOM     22  C   UNL     1       2.135  -7.642  13.026  0.00  0.00    +0.575 C 
ATOM     23  F   UNL     1       0.864  -7.858  12.482  0.00  0.00    -0.133 F 
ATOM     24  F   UNL     1       2.236  -8.307  14.253  0.00  0.00    -0.133 F 
ATOM     25  F   UNL     1       2.332  -6.271  13.221  0.00  0.00    -0.133 F 
ENDBRANCH  21  22
ENDBRANCH  18  21
ENDBRANCH  11  15
BRANCH   1  27
ATOM     26  N   UNL     1       2.090  -7.885   2.050  0.00  0.00    -0.309 N 
ATOM     27  C   UNL     1       2.422  -7.241   3.186  0.00  0.00    +0.219 C 
ATOM     28  O   UNL     1       1.585  -6.605   3.790  0.00  0.00    -0.275 OA
ATOM     29  H   UNL     1       2.759  -8.394   1.567  0.00  0.00    +0.149 HD
BRANCH  26  30
ATOM     30  C   UNL     1       0.716  -7.817   1.545  0.00  0.00    +0.159 C 
BRANCH  30  37
ATOM     31  C   UNL     1       0.685 -10.452  -5.377  0.00  0.00    +0.044 C 
ATOM     32  C   UNL     1       0.535 -10.364  -3.880  0.00  0.00    -0.046 A 
ATOM     33  C   UNL     1       0.086 -11.476  -3.149  0.00  0.00    +0.021 A 
ATOM     34  C   UNL     1      -0.049 -11.400  -1.808  0.00  0.00    +0.093 A 
ATOM     35  N   UNL     1       0.248 -10.246  -1.144  0.00  0.00    -0.308 N 
ATOM     36  C   UNL     1       0.202  -9.901   0.179  0.00  0.00    +0.115 A 
ATOM     37  C   UNL     1       0.609  -8.616   0.272  0.00  0.00    +0.051 A 
ATOM     38  N   UNL     1       0.900  -8.172  -0.954  0.00  0.00    -0.342 N 
ATOM     39  C   UNL     1       0.688  -9.144  -1.830  0.00  0.00    +0.116 A 
ATOM     40  C   UNL     1       0.840  -9.209  -3.230  0.00  0.00    +0.048 A 
ATOM     41  H   UNL     1       1.216  -7.280  -1.168  0.00  0.00    +0.167 HD
ENDBRANCH  30  37
ENDBRANCH  26  30
ENDBRANCH   1  27
TORSDOF 6
