REMARK  Name = ZINC03434586
REMARK  3 active torsions:
REMARK  status: ('A' for Active; 'I' for Inactive)
REMARK    1  A    between atoms: C_10  and  N_12
REMARK    2  A    between atoms: C_20  and  C_22
REMARK    3  A    between atoms: C_22  and  N_63
REMARK                            x       y       z     vdW  Elec       q    Type
REMARK                         _______ _______ _______ _____ _____    ______ ____
ROOT
ATOM      1  N   UNL     1       3.641  -0.532  -0.034  0.00  0.00    -0.322 N 
ATOM      2  C   UNL     1       2.395   0.068  -0.019  0.00  0.00    +0.131 A 
ATOM      3  C   UNL     1       1.217  -0.720   0.108  0.00  0.00    +0.051 A 
ATOM      4  C   UNL     1       1.095  -2.173   0.236  0.00  0.00    -0.025 A 
ATOM      5  C   UNL     1      -0.152  -2.675   0.343  0.00  0.00    -0.004 A 
ATOM      6  S   UNL     1      -1.225  -1.266   0.282  0.00  0.00    -0.073 S 
ATOM      7  C   UNL     1       0.005   0.000   0.111  0.00  0.00    +0.114 A 
ATOM      8  N   UNL     1      -0.016   1.314   0.002  0.00  0.00    -0.227 NA
ATOM      9  C   UNL     1       1.110   1.991  -0.115  0.00  0.00    +0.116 A 
ATOM     10  N   UNL     1       2.282   1.382  -0.124  0.00  0.00    -0.219 NA
ATOM     11  C   UNL     1      -0.541  -4.115   0.483  0.00  0.00    +0.043 C 
ATOM     12  C   UNL     1       0.670  -4.983   0.114  0.00  0.00    +0.005 C 
ATOM     13  C   UNL     1       1.902  -4.443   0.846  0.00  0.00    +0.005 C 
ATOM     14  C   UNL     1       2.311  -3.095   0.250  0.00  0.00    +0.037 C 
ATOM     15  H   UNL     1       3.715  -1.497   0.033  0.00  0.00    +0.148 HD
ENDROOT
BRANCH   1  25
ATOM     16  C   UNL     1       5.497   1.109  -4.298  0.00  0.00    +0.000 A 
ATOM     17  C   UNL     1       4.225   1.153  -3.758  0.00  0.00    +0.000 A 
ATOM     18  C   UNL     1       4.040   0.883  -2.418  0.00  0.00    +0.006 A 
ATOM     19  C   UNL     1       5.122   0.567  -1.606  0.00  0.00    -0.024 A 
ATOM     20  C   UNL     1       6.387   0.518  -2.144  0.00  0.00    -0.042 A 
ATOM     21  C   UNL     1       6.572   0.793  -3.493  0.00  0.00    +0.004 A 
ATOM     22  C   UNL     1       7.603   0.168  -1.327  0.00  0.00    +0.035 C 
ATOM     23  C   UNL     1       7.310   0.320   0.164  0.00  0.00    +0.007 C 
ATOM     24  C   UNL     1       6.024  -0.451   0.485  0.00  0.00    +0.027 C 
ATOM     25  C   UNL     1       4.848   0.289  -0.151  0.00  0.00    +0.102 C 
ENDBRANCH   1  25
BRANCH   9  26
ATOM     26  C   UNL     1       1.058   3.492  -0.240  0.00  0.00    -0.001 C 
BRANCH  26  32
ATOM     27  C   UNL     1      -0.086   3.764   1.876  0.00  0.00    -0.078 C 
ATOM     28  C   UNL     1       0.071   4.285   3.306  0.00  0.00    -0.019 C 
ATOM     29  C   UNL     1       0.275   5.803   3.272  0.00  0.00    -0.004 C 
ATOM     30  C   UNL     1       1.503   6.125   2.415  0.00  0.00    -0.019 C 
ATOM     31  C   UNL     1       1.304   5.550   1.011  0.00  0.00    -0.078 C 
ATOM     32  N   UNL     1       1.138   4.085   1.111  0.00  0.00    +0.384 N 
ATOM     33  H   UNL     1       1.949   3.690   1.601  0.00  0.00    -0.081 HD
ENDBRANCH  26  32
ENDBRANCH   9  26
TORSDOF 3
