REMARK  Name = ZINC01121159
REMARK  6 active torsions:
REMARK  status: ('A' for Active; 'I' for Inactive)
REMARK    1  A    between atoms: C_3  and  N_10
REMARK    2  A    between atoms: C_5  and  N_7
REMARK    3  A    between atoms: N_10  and  C_11
REMARK    4  A    between atoms: C_11  and  N_13
REMARK    5  A    between atoms: N_13  and  N_14
REMARK    6  A    between atoms: C_15  and  C_17
REMARK                            x       y       z     vdW  Elec       q    Type
REMARK                         _______ _______ _______ _____ _____    ______ ____
ROOT
ATOM      1  C   UNL     1       1.085   5.930   0.125  0.00  0.00    +0.151 C 
ATOM      2  S   UNL     1       2.582   5.099   0.107  0.00  0.00    -0.017 S 
ENDROOT
BRANCH   1   3
ATOM      3  N   UNL     1      -0.069   5.241   0.030  0.00  0.00    -0.296 N 
ATOM      4  H   UNL     1      -0.912   5.715  -0.041  0.00  0.00    +0.154 HD
BRANCH   3   7
ATOM      5  C   UNL     1       0.797   1.778   0.912  0.00  0.00    +0.004 A 
ATOM      6  C   UNL     1       0.782   3.160   0.910  0.00  0.00    +0.023 A 
ATOM      7  C   UNL     1      -0.051   3.842   0.034  0.00  0.00    +0.035 A 
ATOM      8  C   UNL     1      -0.867   3.133  -0.838  0.00  0.00    +0.056 A 
ATOM      9  C   UNL     1      -0.843   1.753  -0.835  0.00  0.00    +0.128 A 
ATOM     10  C   UNL     1      -0.016   1.076   0.042  0.00  0.00    +0.033 A 
BRANCH   9  11
ATOM     11  N   UNL     1      -1.708   0.996  -1.768  0.00  0.00    +0.056 N 
ATOM     12  O   UNL     1      -1.692  -0.222  -1.763  0.00  0.00    -0.126 OA
ATOM     13  O   UNL     1      -2.437   1.592  -2.541  0.00  0.00    -0.126 OA
ENDBRANCH   9  11
ENDBRANCH   3   7
ENDBRANCH   1   3
BRANCH   1  14
ATOM     14  N   UNL     1       1.061   7.273   0.234  0.00  0.00    -0.245 N 
ATOM     15  H   UNL     1       1.892   7.769   0.302  0.00  0.00    +0.172 HD
BRANCH  14  16
ATOM     16  N   UNL     1      -0.164   7.953   0.248  0.00  0.00    -0.229 N 
ATOM     17  C   UNL     1      -0.188   9.296   0.357  0.00  0.00    +0.295 C 
ATOM     18  O   UNL     1       0.855   9.919   0.443  0.00  0.00    -0.265 OA
ATOM     19  H   UNL     1      -0.994   7.457   0.180  0.00  0.00    +0.173 HD
BRANCH  17  20
ATOM     20  C   UNL     1      -1.469  10.008   0.373  0.00  0.00    +0.192 A 
ATOM     21  C   UNL     1      -1.635  11.359   0.483  0.00  0.00    +0.056 A 
ATOM     22  C   UNL     1      -3.017  11.600   0.451  0.00  0.00    +0.058 A 
ATOM     23  C   UNL     1      -3.628  10.398   0.333  0.00  0.00    +0.171 A 
ATOM     24  O   UNL     1      -2.691   9.442   0.286  0.00  0.00    -0.444 OA
ATOM     25 BR   UNL     1      -5.496  10.115   0.248  0.00  0.00    -0.008 Br
ENDBRANCH  17  20
ENDBRANCH  14  16
ENDBRANCH   1  14
TORSDOF 6
