REMARK  Name = ZINC07873031
REMARK  14 active torsions:
REMARK  status: ('A' for Active; 'I' for Inactive)
REMARK    1  A    between atoms: C_1  and  C_2
REMARK    2  A    between atoms: C_2  and  C_3
REMARK    3  A    between atoms: C_6  and  C_9
REMARK    4  A    between atoms: C_9  and  C_11
REMARK    5  A    between atoms: C_9  and  N_59
REMARK    6  A    between atoms: C_11  and  C_12
REMARK    7  A    between atoms: C_11  and  C_13
REMARK    8  A    between atoms: C_14  and  C_15
REMARK    9  A    between atoms: C_14  and  N_59
REMARK   10  A    between atoms: N_17  and  C_18
REMARK   11  A    between atoms: C_21  and  C_29
REMARK   12  A    between atoms: C_22  and  S_24
REMARK   13  A    between atoms: S_24  and  N_27
REMARK   14  A    between atoms: N_27  and  C_28
REMARK                            x       y       z     vdW  Elec       q    Type
REMARK                         _______ _______ _______ _____ _____    ______ ____
ROOT
ATOM      1  C   UNL     1      -3.581   3.123   0.856  0.00  0.00    +0.200 C 
ATOM      2  O   UNL     1      -3.514   1.912   0.889  0.00  0.00    -0.278 OA
ATOM      3  N   UNL     1      -2.461   3.856   0.695  0.00  0.00    -0.287 N 
ATOM      4  H   UNL     1      -2.504   4.823   0.744  0.00  0.00    +0.155 HD
ENDROOT
BRANCH   3   5
ATOM      5  C   UNL     1      -1.237   3.220   0.457  0.00  0.00    +0.035 A 
ATOM      6  C   UNL     1      -1.194   2.053  -0.295  0.00  0.00    +0.023 A 
ATOM      7  C   UNL     1       0.015   1.426  -0.524  0.00  0.00    +0.007 A 
ATOM      8  C   UNL     1       1.182   1.963  -0.014  0.00  0.00    -0.024 A 
ATOM      9  C   UNL     1       1.143   3.127   0.731  0.00  0.00    +0.110 A 
ATOM     10  C   UNL     1      -0.064   3.757   0.968  0.00  0.00    +0.052 A 
ATOM     11  C   UNL     1       2.500   1.279  -0.270  0.00  0.00    +0.046 C 
BRANCH   9  12
ATOM     12  S   UNL     1       2.633   3.809   1.379  0.00  0.00    +0.058 S 
ATOM     13  O   UNL     1       2.279   5.029   2.016  0.00  0.00    -0.153 OA
ATOM     14  O   UNL     1       3.296   2.756   2.065  0.00  0.00    -0.153 OA
BRANCH  12  15
ATOM     15  N   UNL     1       3.590   4.209   0.088  0.00  0.00    -0.193 NA
ATOM     16  C   UNL     1       3.175   5.273  -0.829  0.00  0.00    +0.127 C 
ATOM     17  H   UNL     1       4.426   3.739  -0.060  0.00  0.00    +0.148 HD
ENDBRANCH  12  15
ENDBRANCH   9  12
ENDBRANCH   3   5
BRANCH   1  18
ATOM     18  C   UNL     1      -4.916   3.808   0.996  0.00  0.00    +0.016 C 
BRANCH  18  19
ATOM     19  N   UNL     1      -5.968   2.787   1.160  0.00  0.00    +0.389 N 
ATOM     20  H   UNL     1      -5.920   2.123   0.378  0.00  0.00    -0.084 HD
ATOM     21  H   UNL     1      -5.819   2.286   2.044  0.00  0.00    -0.084 HD
BRANCH  19  22
ATOM     22  C   UNL     1      -7.299   3.422   1.178  0.00  0.00    -0.038 C 
BRANCH  22  26
ATOM     23  C   UNL     1      -8.063   5.027   5.062  0.00  0.00    -0.048 A 
ATOM     24  C   UNL     1      -8.450   5.729   3.936  0.00  0.00    +0.004 A 
ATOM     25  C   UNL     1      -8.203   5.210   2.679  0.00  0.00    +0.002 A 
ATOM     26  C   UNL     1      -7.568   3.989   2.549  0.00  0.00    -0.061 A 
ATOM     27  C   UNL     1      -7.186   3.284   3.675  0.00  0.00    +0.002 A 
ATOM     28  C   UNL     1      -7.428   3.806   4.932  0.00  0.00    +0.004 A 
BRANCH  23  30
ATOM     29  C   UNL     1      -9.703   5.118   6.920  0.00  0.00    +0.009 C 
ATOM     30  C   UNL     1      -8.332   5.593   6.433  0.00  0.00    +0.032 C 
ENDBRANCH  23  30
ENDBRANCH  22  26
BRANCH  22  31
ATOM     31  C   UNL     1      -8.361   2.373   0.843  0.00  0.00    -0.027 C 
ATOM     32  C   UNL     1      -9.731   3.046   0.745  0.00  0.00    +0.006 C 
ATOM     33  C   UNL     1      -8.020   1.712  -0.495  0.00  0.00    +0.006 C 
ENDBRANCH  22  31
ENDBRANCH  19  22
ENDBRANCH  18  19
ENDBRANCH   1  18
TORSDOF 9
