REMARK  Name = ZINC04036914
REMARK  3 active torsions:
REMARK  status: ('A' for Active; 'I' for Inactive)
REMARK    1  A    between atoms: C_7  and  C_11
REMARK    2  A    between atoms: N_12  and  N_13
REMARK    3  A    between atoms: C_16  and  C_19
REMARK                            x       y       z     vdW  Elec       q    Type
REMARK                         _______ _______ _______ _____ _____    ______ ____
ROOT
ATOM      1  N   UNL     1      -4.832   1.765   0.032  0.00  0.00    -0.215 N 
ATOM      2  C   UNL     1      -5.875   2.675   0.041  0.00  0.00    +0.178 A 
ATOM      3  N   UNL     1      -7.178   2.453   0.045  0.00  0.00    -0.224 NA
ATOM      4  C   UNL     1      -8.045   3.454   0.053  0.00  0.00    +0.080 A 
ATOM      5  C   UNL     1      -7.585   4.741   0.058  0.00  0.00    +0.077 A 
ATOM      6  S   UNL     1      -5.819   4.461   0.057  0.00  0.00    -0.059 S 
ATOM      7  H   UNL     1      -5.019   0.813   0.028  0.00  0.00    +0.176 HD
ENDROOT
BRANCH   4   8
ATOM      8  C   UNL     1      -9.503   3.182   0.058  0.00  0.00    +0.001 A 
ATOM      9  C   UNL     1     -10.412   4.238   0.074  0.00  0.00    +0.011 A 
ATOM     10  C   UNL     1     -11.768   3.979   0.074  0.00  0.00    +0.020 A 
ATOM     11  C   UNL     1     -12.225   2.673   0.069  0.00  0.00    +0.041 A 
ATOM     12  C   UNL     1     -11.326   1.619   0.059  0.00  0.00    +0.020 A 
ATOM     13  C   UNL     1      -9.969   1.868   0.054  0.00  0.00    +0.011 A 
ATOM     14 CL   UNL     1     -13.931   2.353   0.076  0.00  0.00    -0.084 Cl
ENDBRANCH   4   8
BRANCH   1  16
ATOM     15  C   UNL     1      -2.528   1.366   0.020  0.00  0.00    +0.140 C 
ATOM     16  N   UNL     1      -3.507   2.220   0.029  0.00  0.00    -0.188 NA
BRANCH  15  23
ATOM     17  C   UNL     1      -0.622   5.634   0.038  0.00  0.00    +0.001 A 
ATOM     18  C   UNL     1       0.765   5.599   0.025  0.00  0.00    +0.002 A 
ATOM     19  C   UNL     1       1.437   4.396   0.012  0.00  0.00    +0.026 A 
ATOM     20  C   UNL     1       0.719   3.204   0.012  0.00  0.00    +0.047 A 
ATOM     21  C   UNL     1      -0.685   3.247   0.026  0.00  0.00    +0.008 A 
ATOM     22  C   UNL     1      -1.345   4.474   0.039  0.00  0.00    +0.010 A 
ATOM     23  C   UNL     1      -1.135   1.844   0.017  0.00  0.00    +0.020 A 
ATOM     24  C   UNL     1      -0.013   1.076   0.008  0.00  0.00    +0.093 A 
ATOM     25  N   UNL     1       1.092   1.877   0.002  0.00  0.00    -0.360 N 
ATOM     26  H   UNL     1       2.009   1.558  -0.009  0.00  0.00    +0.165 HD
ENDBRANCH  15  23
ENDBRANCH   1  16
TORSDOF 3
