REMARK  Name = ZINC63751989
REMARK  7 active torsions:
REMARK  status: ('A' for Active; 'I' for Inactive)
REMARK    1  A    between atoms: C_1  and  C_2
REMARK    2  A    between atoms: C_5  and  O_8
REMARK    3  A    between atoms: O_8  and  C_9
REMARK    4  A    between atoms: C_9  and  C_10
REMARK    5  A    between atoms: C_16  and  S_18
REMARK    6  A    between atoms: S_18  and  C_19
REMARK    7  A    between atoms: C_19  and  C_20
REMARK                            x       y       z     vdW  Elec       q    Type
REMARK                         _______ _______ _______ _____ _____    ______ ____
ROOT
ATOM      1  C   UNL     1       0.090  -6.277   1.043  0.00  0.00    +0.256 C 
ATOM      2  O   UNL     1       0.090  -6.735  -0.080  0.00  0.00    -0.272 OA
ATOM      3  N   UNL     1       0.106  -7.104   2.108  0.00  0.00    -0.260 N 
ATOM      4  C   UNL     1       0.123  -8.484   1.917  0.00  0.00    +0.189 A 
ATOM      5  N   UNL     1       0.132  -9.188   0.797  0.00  0.00    -0.125 NA
ATOM      6  N   UNL     1       0.148 -10.449   0.800  0.00  0.00    -0.133 NA
ATOM      7  C   UNL     1       0.156 -11.147   1.927  0.00  0.00    +0.160 A 
ATOM      8  S   UNL     1       0.146  -9.811   3.119  0.00  0.00    -0.024 S 
ATOM      9  H   UNL     1       0.106  -6.738   3.006  0.00  0.00    +0.157 HD
ENDROOT
BRANCH   1  10
ATOM     10  C   UNL     1       0.072  -4.785   1.249  0.00  0.00    +0.324 C 
BRANCH  10  11
ATOM     11  O   UNL     1       0.057  -4.129  -0.021  0.00  0.00    -0.483 OA
BRANCH  11  16
ATOM     12  C   UNL     1      -0.018   1.503   0.010  0.00  0.00    +0.044 C 
ATOM     13  C   UNL     1       0.002  -0.004   0.002  0.00  0.00    -0.050 A 
ATOM     14  C   UNL     1       0.006  -0.688  -1.200  0.00  0.00    +0.007 A 
ATOM     15  C   UNL     1       0.024  -2.069  -1.210  0.00  0.00    +0.046 A 
ATOM     16  C   UNL     1       0.039  -2.770  -0.013  0.00  0.00    +0.121 A 
ATOM     17  C   UNL     1       0.036  -2.082   1.191  0.00  0.00    +0.046 A 
ATOM     18  C   UNL     1       0.023  -0.701   1.196  0.00  0.00    +0.007 A 
ENDBRANCH  11  16
ENDBRANCH  10  11
ENDBRANCH   1  10
BRANCH   7  19
ATOM     19  S   UNL     1       0.177 -12.890   2.179  0.00  0.00    -0.094 S 
BRANCH  19  20
ATOM     20  C   UNL     1       0.186 -13.577   0.500  0.00  0.00    +0.110 C 
BRANCH  20  21
ATOM     21  C   UNL     1       0.204 -15.105   0.574  0.00  0.00    +0.176 C 
ATOM     22  C   UNL     1       0.108 -15.636  -0.838  0.00  0.00    +0.240 C 
ATOM     23  O   UNL     1      -0.833 -15.337  -1.546  0.00  0.00    -0.273 OA
ATOM     24  N   UNL     1       1.073 -16.436  -1.298  0.00  0.00    -0.282 N 
ATOM     25  C   UNL     1       2.108 -16.775  -0.549  0.00  0.00    +0.057 A 
ATOM     26  C   UNL     1       3.111 -17.625  -1.067  0.00  0.00    +0.025 A 
ATOM     27  C   UNL     1       4.173 -17.975  -0.304  0.00  0.00    +0.002 A 
ATOM     28  C   UNL     1       4.341 -17.529   1.017  0.00  0.00    +0.002 A 
ATOM     29  C   UNL     1       3.441 -16.714   1.610  0.00  0.00    +0.027 A 
ATOM     30  C   UNL     1       2.257 -16.287   0.845  0.00  0.00    +0.057 A 
ATOM     31  N   UNL     1       1.369 -15.501   1.381  0.00  0.00    -0.372 N 
ATOM     32  H   UNL     1       1.472 -15.185   2.292  0.00  0.00    +0.160 HD
ATOM     33  H   UNL     1       1.012 -16.777  -2.204  0.00  0.00    +0.155 HD
ENDBRANCH  20  21
ENDBRANCH  19  20
ENDBRANCH   7  19
TORSDOF 6
