REMARK  Name = ZINC49928409
REMARK  4 active torsions:
REMARK  status: ('A' for Active; 'I' for Inactive)
REMARK    1  A    between atoms: C_3  and  C_9
REMARK    2  A    between atoms: C_9  and  C_10
REMARK    3  A    between atoms: C_16  and  C_18
REMARK    4  A    between atoms: C_18  and  N_19
REMARK                            x       y       z     vdW  Elec       q    Type
REMARK                         _______ _______ _______ _____ _____    ______ ____
ROOT
ATOM      1  C   UNL     1       4.243   2.224   1.371  0.00  0.00    +0.160 A 
ATOM      2  N   UNL     1       3.999   3.131   2.274  0.00  0.00    -0.131 NA
ATOM      3  N   UNL     1       4.649   2.865   3.354  0.00  0.00    -0.120 NA
ATOM      4  C   UNL     1       5.335   1.776   3.186  0.00  0.00    +0.218 A 
ATOM      5  N   UNL     1       5.112   1.301   1.917  0.00  0.00    -0.190 N 
ATOM      6  N   UNL     1       5.771   0.129   1.570  0.00  0.00    -0.163 NA
ATOM      7  C   UNL     1       6.552  -0.483   2.409  0.00  0.00    +0.085 A 
ATOM      8  S   UNL     1       6.459   0.571   3.848  0.00  0.00    -0.033 S 
ENDROOT
BRANCH   1   9
ATOM      9  C   UNL     1       3.671   2.185  -0.023  0.00  0.00    +0.114 C 
BRANCH   9  12
ATOM     10  C   UNL     1      -0.017   1.379   0.010  0.00  0.00    +0.020 A 
ATOM     11  C   UNL     1       1.171   2.087   0.002  0.00  0.00    +0.007 A 
ATOM     12  C   UNL     1       2.377   1.413  -0.013  0.00  0.00    -0.022 A 
ATOM     13  C   UNL     1       2.397   0.029  -0.021  0.00  0.00    +0.046 A 
ATOM     14  C   UNL     1       1.210  -0.679  -0.013  0.00  0.00    +0.040 A 
ATOM     15  C   UNL     1       0.002  -0.004   0.002  0.00  0.00    +0.042 A 
ATOM     16 CL   UNL     1      -1.489  -0.893   0.012  0.00  0.00    -0.083 Cl
ATOM     17 CL   UNL     1       3.913  -0.817  -0.041  0.00  0.00    -0.083 Cl
ENDBRANCH   9  12
ENDBRANCH   1   9
BRANCH   7  18
ATOM     18  C   UNL     1       7.342  -1.752   2.214  0.00  0.00    -0.020 C 
BRANCH  18  19
ATOM     19  N   UNL     1       7.114  -2.267   0.858  0.00  0.00    +0.382 N 
ATOM     20  H   UNL     1       6.131  -2.460   0.732  0.00  0.00    -0.090 HD
ATOM     21  H   UNL     1       7.411  -1.579   0.182  0.00  0.00    -0.090 HD
ATOM     22  H   UNL     1       7.643  -3.117   0.727  0.00  0.00    -0.090 HD
ENDBRANCH  18  19
ENDBRANCH   7  18
TORSDOF 4
