REMARK  Name = ZINC39675868
REMARK  8 active torsions:
REMARK  status: ('A' for Active; 'I' for Inactive)
REMARK    1  A    between atoms: C_1  and  N_2
REMARK    2  A    between atoms: N_2  and  C_3
REMARK    3  A    between atoms: N_2  and  C_4
REMARK    4  A    between atoms: C_4  and  C_6
REMARK    5  A    between atoms: C_4  and  C_32
REMARK    6  A    between atoms: C_6  and  N_7
REMARK    7  A    between atoms: C_8  and  C_10
REMARK    8  A    between atoms: C_21  and  C_23
REMARK                            x       y       z     vdW  Elec       q    Type
REMARK                         _______ _______ _______ _____ _____    ______ ____
ROOT
ATOM      1  C   UNL     1      -0.339   3.820   3.164  0.00  0.00    +0.100 C 
ATOM      2  C   UNL     1      -1.270   4.251   2.009  0.00  0.00    +0.121 C 
ATOM      3  N   UNL     1      -2.548   4.604   2.671  0.00  0.00    -0.296 N 
ATOM      4  C   UNL     1      -2.140   5.298   3.915  0.00  0.00    +0.115 C 
ATOM      5  C   UNL     1      -0.911   4.512   4.413  0.00  0.00    -0.004 C 
ATOM      6  C   UNL     1      -1.334   3.472   5.446  0.00  0.00    -0.010 C 
ATOM      7  C   UNL     1      -1.848   4.186   6.700  0.00  0.00    -0.082 C 
ATOM      8  N   UNL     1      -0.789   5.044   7.245  0.00  0.00    +0.379 N 
ATOM      9  C   UNL     1      -0.453   6.098   6.281  0.00  0.00    -0.082 C 
ATOM     10  C   UNL     1       0.120   5.466   5.009  0.00  0.00    -0.010 C 
ATOM     11  C   UNL     1      -3.799   4.349   2.238  0.00  0.00    +0.248 C 
ATOM     12  O   UNL     1      -3.973   3.683   1.235  0.00  0.00    -0.270 OA
ATOM     13  H   UNL     1      -1.108   5.465   8.104  0.00  0.00    -0.086 HD
ATOM     14  H   UNL     1       0.031   4.486   7.432  0.00  0.00    -0.086 HD
ENDROOT
BRANCH  11  15
ATOM     15  C   UNL     1      -4.953   4.878   2.977  0.00  0.00    +0.052 A 
ATOM     16  C   UNL     1      -4.895   6.085   3.597  0.00  0.00    +0.059 A 
ATOM     17  S   UNL     1      -6.400   6.295   4.306  0.00  0.00    -0.096 S 
ATOM     18  C   UNL     1      -7.190   4.787   3.818  0.00  0.00    +0.020 A 
ATOM     19  C   UNL     1      -6.204   4.121   3.065  0.00  0.00    +0.001 A 
ATOM     20  C   UNL     1      -6.543   2.867   2.524  0.00  0.00    +0.010 A 
ATOM     21  C   UNL     1      -7.792   2.335   2.730  0.00  0.00    +0.001 A 
ATOM     22  C   UNL     1      -8.748   3.014   3.472  0.00  0.00    +0.001 A 
ATOM     23  C   UNL     1      -8.440   4.242   4.024  0.00  0.00    +0.015 A 
ENDBRANCH  11  15
BRANCH   1  25
ATOM     24  N   UNL     1       0.642   1.694   3.963  0.00  0.00    -0.316 N 
ATOM     25  C   UNL     1      -0.370   2.323   3.333  0.00  0.00    +0.218 C 
ATOM     26  O   UNL     1      -1.307   1.684   2.903  0.00  0.00    -0.275 OA
ATOM     27  H   UNL     1       1.391   2.205   4.307  0.00  0.00    +0.149 HD
BRANCH  24  28
ATOM     28  C   UNL     1       0.611   0.239   4.127  0.00  0.00    +0.093 C 
BRANCH  28  29
ATOM     29  C   UNL     1       1.923  -0.232   4.758  0.00  0.00    -0.021 C 
BRANCH  29  30
ATOM     30  C   UNL     1       2.033   0.318   6.157  0.00  0.00    -0.059 A 
ATOM     31  C   UNL     1       1.360  -0.297   7.196  0.00  0.00    +0.002 A 
ATOM     32  C   UNL     1       1.461   0.206   8.479  0.00  0.00    +0.000 A 
ATOM     33  C   UNL     1       2.235   1.325   8.723  0.00  0.00    +0.000 A 
ATOM     34  C   UNL     1       2.909   1.939   7.685  0.00  0.00    +0.000 A 
ATOM     35  C   UNL     1       2.812   1.433   6.402  0.00  0.00    +0.002 A 
ENDBRANCH  29  30
BRANCH  29  37
ATOM     36  C   UNL     1       1.941  -2.233   3.436  0.00  0.00    -0.096 C 
ATOM     37  N   UNL     1       1.945  -1.700   4.805  0.00  0.00    +0.382 N 
ATOM     38  C   UNL     1       3.158  -2.149   5.502  0.00  0.00    -0.096 C 
ATOM     39  H   UNL     1       1.131  -2.033   5.298  0.00  0.00    -0.082 HD
ENDBRANCH  29  37
ENDBRANCH  28  29
ENDBRANCH  24  28
ENDBRANCH   1  25
TORSDOF 6
