REMARK  Name = ZINC63869983
REMARK  4 active torsions:
REMARK  status: ('A' for Active; 'I' for Inactive)
REMARK    1  A    between atoms: C_1  and  C_2
REMARK    2  A    between atoms: C_5  and  S_8
REMARK    3  A    between atoms: S_8  and  C_9
REMARK    4  A    between atoms: C_9  and  C_10
REMARK                            x       y       z     vdW  Elec       q    Type
REMARK                         _______ _______ _______ _____ _____    ______ ____
ROOT
ATOM      1  C   UNL     1      -6.453   2.768  -1.976  0.00  0.00    +0.226 C 
ATOM      2  O   UNL     1      -6.722   3.158  -3.093  0.00  0.00    -0.275 OA
ATOM      3  N   UNL     1      -7.427   2.643  -1.053  0.00  0.00    -0.298 N 
ATOM      4  C   UNL     1      -7.093   2.177   0.296  0.00  0.00    +0.112 C 
ATOM      5  C   UNL     1      -7.535   3.231   1.327  0.00  0.00    +0.052 C 
ATOM      6  C   UNL     1      -8.929   3.657   0.940  0.00  0.00    -0.036 C 
ATOM      7  C   UNL     1     -10.053   3.725   1.642  0.00  0.00    -0.001 A 
ATOM      8  C   UNL     1     -10.329   3.516   3.073  0.00  0.00    +0.010 A 
ATOM      9  C   UNL     1     -11.625   3.649   3.459  0.00  0.00    +0.001 A 
ATOM     10  C   UNL     1     -12.663   3.965   2.576  0.00  0.00    +0.002 A 
ATOM     11  C   UNL     1     -12.499   4.181   1.247  0.00  0.00    +0.026 A 
ATOM     12  C   UNL     1     -11.178   4.078   0.723  0.00  0.00    +0.043 A 
ATOM     13  N   UNL     1     -10.737   4.255  -0.487  0.00  0.00    -0.376 N 
ATOM     14  C   UNL     1      -9.282   4.099  -0.476  0.00  0.00    +0.124 C 
ATOM     15  C   UNL     1      -8.815   2.983  -1.408  0.00  0.00    +0.136 C 
ATOM     16  H   UNL     1     -11.280   4.456  -1.266  0.00  0.00    +0.160 HD
ENDROOT
BRANCH   1  17
ATOM     17  C   UNL     1      -5.030   2.422  -1.621  0.00  0.00    +0.173 C 
BRANCH  17  18
ATOM     18  S   UNL     1      -3.964   2.692  -3.064  0.00  0.00    -0.077 S 
BRANCH  18  23
ATOM     19  C   UNL     1      -0.013   1.086   0.008  0.00  0.00    +0.090 C 
ATOM     20  C   UNL     1      -0.742   1.585  -1.213  0.00  0.00    +0.149 A 
ATOM     21  N   UNL     1      -2.051   1.825  -1.287  0.00  0.00    -0.206 NA
ATOM     22  H   UNL     1      -1.127   2.558  -4.147  0.00  0.00    +0.191 HD
ATOM     23  C   UNL     1      -2.356   2.250  -2.495  0.00  0.00    +0.185 A 
ATOM     24  N   UNL     1      -1.218   2.286  -3.221  0.00  0.00    -0.254 N 
ATOM     25  N   UNL     1      -0.191   1.857  -2.365  0.00  0.00    -0.157 NA
ENDBRANCH  18  23
ENDBRANCH  17  18
ENDBRANCH   1  17
TORSDOF 3
