REMARK  Name = ZINC39450583
REMARK  2 active torsions:
REMARK  status: ('A' for Active; 'I' for Inactive)
REMARK    1  A    between atoms: C_4  and  C_7
REMARK    2  A    between atoms: C_7  and  N_8
REMARK                            x       y       z     vdW  Elec       q    Type
REMARK                         _______ _______ _______ _____ _____    ______ ____
ROOT
ATOM      1  N   UNL     1       4.210  -0.847   1.333  0.00  0.00    -0.299 N 
ATOM      2  C   UNL     1       4.937   0.196   1.892  0.00  0.00    +0.111 A 
ATOM      3  C   UNL     1       5.433   0.105   3.180  0.00  0.00    +0.083 A 
ATOM      4  C   UNL     1       5.182  -1.105   3.974  0.00  0.00    +0.099 A 
ATOM      5  C   UNL     1       4.439  -2.149   3.383  0.00  0.00    +0.068 A 
ATOM      6  C   UNL     1       3.945  -1.980   2.009  0.00  0.00    +0.261 A 
ATOM      7  O   UNL     1       3.300  -2.867   1.481  0.00  0.00    -0.267 OA
ATOM      8  C   UNL     1       4.189  -3.309   4.117  0.00  0.00    +0.037 A 
ATOM      9  C   UNL     1       4.686  -3.380   5.408  0.00  0.00    +0.060 A 
ATOM     10  C   UNL     1       5.409  -2.312   5.925  0.00  0.00    +0.131 A 
ATOM     11  N   UNL     1       5.636  -1.228   5.215  0.00  0.00    -0.251 NA
ATOM     12 CL   UNL     1       4.409  -4.795   6.374  0.00  0.00    -0.082 Cl
ATOM     13  N   UNL     1       6.166   1.149   3.710  0.00  0.00    -0.311 N 
ATOM     14  C   UNL     1       6.894   2.032   2.785  0.00  0.00    +0.259 C 
ATOM     15  C   UNL     1       5.907   2.535   1.726  0.00  0.00    +0.138 C 
ATOM     16  C   UNL     1       5.174   1.362   1.129  0.00  0.00    +0.186 C 
ATOM     17  O   UNL     1       4.782   1.419  -0.019  0.00  0.00    -0.290 OA
ATOM     18  F   UNL     1       7.927   1.318   2.167  0.00  0.00    -0.224 F 
ATOM     19  H   UNL     1       6.199   1.297   4.668  0.00  0.00    +0.149 HD
ENDROOT
BRANCH   1  20
ATOM     20  C   UNL     1       3.711  -0.707  -0.038  0.00  0.00    +0.160 C 
BRANCH  20  24
ATOM     21  C   UNL     1      -0.204   0.999   0.039  0.00  0.00    +0.000 A 
ATOM     22  C   UNL     1       0.897   1.806  -0.175  0.00  0.00    +0.000 A 
ATOM     23  C   UNL     1       2.164   1.254  -0.199  0.00  0.00    +0.005 A 
ATOM     24  C   UNL     1       2.330  -0.105  -0.010  0.00  0.00    -0.028 A 
ATOM     25  C   UNL     1       1.228  -0.912   0.205  0.00  0.00    +0.005 A 
ATOM     26  C   UNL     1      -0.039  -0.360   0.228  0.00  0.00    +0.000 A 
ENDBRANCH  20  24
ENDBRANCH   1  20
TORSDOF 2
