REMARK  Name = ZINC61563920
REMARK  4 active torsions:
REMARK  status: ('A' for Active; 'I' for Inactive)
REMARK    1  A    between atoms: C_1  and  C_2
REMARK    2  A    between atoms: C_5  and  C_8
REMARK    3  A    between atoms: C_10  and  C_13
REMARK    4  A    between atoms: C_18  and  N_19
REMARK                            x       y       z     vdW  Elec       q    Type
REMARK                         _______ _______ _______ _____ _____    ______ ____
ROOT
ATOM      1  C   UNL     1       0.683  -4.663  -0.566  0.00  0.00    +0.202 A 
ATOM      2  N   UNL     1       0.617  -5.297   0.615  0.00  0.00    -0.187 NA
ATOM      3  C   UNL     1       0.386  -6.576   0.423  0.00  0.00    +0.261 A 
ATOM      4  O   UNL     1       0.298  -6.794  -0.901  0.00  0.00    -0.332 OA
ATOM      5  N   UNL     1       0.489  -5.534  -1.526  0.00  0.00    -0.056 NA
ENDROOT
BRANCH   3   6
ATOM      6  C   UNL     1       0.248  -7.598   1.478  0.00  0.00    +0.063 A 
ATOM      7  C   UNL     1       1.170  -7.653   2.526  0.00  0.00    +0.056 A 
ATOM      8  C   UNL     1       1.036  -8.610   3.511  0.00  0.00    +0.159 A 
ATOM      9  C   UNL     1      -0.013  -9.520   3.464  0.00  0.00    +0.160 A 
ATOM     10  C   UNL     1      -0.932  -9.475   2.432  0.00  0.00    +0.064 A 
ATOM     11  C   UNL     1      -0.813  -8.514   1.437  0.00  0.00    +0.040 A 
ATOM     12  F   UNL     1      -0.137 -10.454   4.433  0.00  0.00    -0.202 F 
ATOM     13  F   UNL     1       1.928  -8.663   4.524  0.00  0.00    -0.202 F 
BRANCH  11  14
ATOM     14  N   UNL     1      -1.740  -8.464   0.400  0.00  0.00    -0.357 N 
ATOM     15  H   UNL     1      -1.708  -7.740  -0.245  0.00  0.00    +0.142 HD
ATOM     16  H   UNL     1      -2.419  -9.153   0.322  0.00  0.00    +0.142 HD
ENDBRANCH  11  14
ENDBRANCH   3   6
BRANCH   1  21
ATOM     17  C   UNL     1       1.639   0.971  -1.294  0.00  0.00    +0.044 C 
ATOM     18  C   UNL     1       1.389  -0.503  -1.103  0.00  0.00    -0.050 A 
ATOM     19  C   UNL     1       1.199  -1.318  -2.205  0.00  0.00    +0.004 A 
ATOM     20  C   UNL     1       0.970  -2.669  -2.036  0.00  0.00    +0.012 A 
ATOM     21  C   UNL     1       0.930  -3.211  -0.754  0.00  0.00    +0.022 A 
ATOM     22  C   UNL     1       1.121  -2.386   0.352  0.00  0.00    +0.012 A 
ATOM     23  C   UNL     1       1.356  -1.037   0.172  0.00  0.00    +0.004 A 
ENDBRANCH   1  21
TORSDOF 3
