REMARK  Name = ZINC45829827
REMARK  6 active torsions:
REMARK  status: ('A' for Active; 'I' for Inactive)
REMARK    1  A    between atoms: C_1  and  C_2
REMARK    2  A    between atoms: C_5  and  C_8
REMARK    3  A    between atoms: C_8  and  C_10
REMARK    4  A    between atoms: C_8  and  N_13
REMARK    5  A    between atoms: C_14  and  C_16
REMARK    6  A    between atoms: C_16  and  N_17
REMARK                            x       y       z     vdW  Elec       q    Type
REMARK                         _______ _______ _______ _____ _____    ______ ____
ROOT
ATOM      1  C   UNL     1      -2.261  -6.529   2.025  0.00  0.00    +0.213 C 
ENDROOT
BRANCH   1   2
ATOM      2  N   UNL     1      -2.721  -7.877   1.678  0.00  0.00    -0.215 N 
ATOM      3  C   UNL     1      -3.841  -8.138   0.971  0.00  0.00    +0.251 C 
ATOM      4  O   UNL     1      -4.630  -7.336   0.518  0.00  0.00    -0.272 OA
ATOM      5  C   UNL     1      -3.901  -9.640   0.865  0.00  0.00    +0.138 C 
ATOM      6  C   UNL     1      -3.888 -10.093  -0.601  0.00  0.00    +0.045 C 
ATOM      7  C   UNL     1      -5.394 -10.277  -0.898  0.00  0.00    +0.038 C 
ATOM      8  C   UNL     1      -6.033 -10.558   0.446  0.00  0.00    -0.042 A 
ATOM      9  C   UNL     1      -5.168 -10.188   1.463  0.00  0.00    -0.012 A 
ATOM     10  C   UNL     1      -5.550 -10.357   2.784  0.00  0.00    +0.006 A 
ATOM     11  C   UNL     1      -6.786 -10.892   3.089  0.00  0.00    +0.000 A 
ATOM     12  C   UNL     1      -7.649 -11.260   2.074  0.00  0.00    +0.000 A 
ATOM     13  C   UNL     1      -7.271 -11.094   0.755  0.00  0.00    +0.004 A 
ATOM     14  N   UNL     1      -2.714 -10.108   1.580  0.00  0.00    -0.281 N 
ATOM     15  C   UNL     1      -2.079  -9.002   2.018  0.00  0.00    +0.310 C 
ATOM     16  O   UNL     1      -1.042  -9.024   2.652  0.00  0.00    -0.252 OA
ATOM     17  H   UNL     1      -2.437 -11.029   1.710  0.00  0.00    +0.152 HD
ENDBRANCH   1   2
BRANCH   1  19
ATOM     18  N   UNL     1      -0.816  -4.781   1.039  0.00  0.00    -0.307 N 
ATOM     19  C   UNL     1      -1.361  -6.009   0.935  0.00  0.00    +0.231 C 
ATOM     20  O   UNL     1      -1.125  -6.696  -0.037  0.00  0.00    -0.274 OA
ATOM     21  H   UNL     1      -1.004  -4.231   1.816  0.00  0.00    +0.149 HD
BRANCH  18  22
ATOM     22  C   UNL     1       0.059  -4.275  -0.021  0.00  0.00    +0.106 C 
BRANCH  22  27
ATOM     23  C   UNL     1      -0.018   1.503   0.010  0.00  0.00    +0.044 C 
ATOM     24  C   UNL     1       0.002  -0.004   0.002  0.00  0.00    -0.050 A 
ATOM     25  C   UNL     1       0.006  -0.689  -1.199  0.00  0.00    +0.004 A 
ATOM     26  C   UNL     1       0.025  -2.071  -1.206  0.00  0.00    +0.006 A 
ATOM     27  C   UNL     1       0.040  -2.768  -0.013  0.00  0.00    -0.027 A 
ATOM     28  C   UNL     1       0.037  -2.084   1.188  0.00  0.00    +0.006 A 
ATOM     29  C   UNL     1       0.023  -0.702   1.195  0.00  0.00    +0.004 A 
ENDBRANCH  22  27
BRANCH  22  30
ATOM     30  C   UNL     1       1.488  -4.768   0.218  0.00  0.00    +0.014 C 
ATOM     31  C   UNL     1       2.203  -5.455  -0.947  0.00  0.00    +0.006 C 
ATOM     32  C   UNL     1       1.718  -6.281   0.246  0.00  0.00    +0.006 C 
ENDBRANCH  22  30
ENDBRANCH  18  22
ENDBRANCH   1  19
TORSDOF 5
