REMARK  Name = ZINC03654487
REMARK  4 active torsions:
REMARK  status: ('A' for Active; 'I' for Inactive)
REMARK    1  A    between atoms: C_1  and  C_2
REMARK    2  A    between atoms: C_2  and  C_32
REMARK    3  A    between atoms: C_6  and  C_22
REMARK    4  A    between atoms: C_8  and  C_20
REMARK                            x       y       z     vdW  Elec       q    Type
REMARK                         _______ _______ _______ _____ _____    ______ ____
ROOT
ATOM      1  C   UNL     1      -0.019   1.529   0.010  0.00  0.00    +0.011 C 
ATOM      2  C   UNL     1       0.002  -0.004   0.002  0.00  0.00    -0.023 C 
ATOM      3  C   UNL     1      -1.438  -0.523   0.044  0.00  0.00    +0.058 C 
ATOM      4  C   UNL     1      -1.439  -2.033   0.021  0.00  0.00    +0.025 C 
ATOM      5  C   UNL     1      -0.438  -2.681   0.666  0.00  0.00    +0.025 C 
ATOM      6  C   UNL     1      -0.376  -4.188   0.569  0.00  0.00    +0.098 C 
ATOM      7  C   UNL     1      -1.393  -4.854  -0.338  0.00  0.00    +0.080 C 
ATOM      8  C   UNL     1      -2.366  -4.056  -0.925  0.00  0.00    +0.123 C 
ATOM      9  N   UNL     1      -2.449  -2.707  -0.613  0.00  0.00    -0.257 N 
ATOM     10  C   UNL     1      -3.635  -2.038  -0.909  0.00  0.00    +0.050 A 
ATOM     11  C   UNL     1      -4.026  -0.875  -0.264  0.00  0.00    +0.024 A 
ATOM     12  C   UNL     1      -5.142  -0.181  -0.690  0.00  0.00    +0.002 A 
ATOM     13  C   UNL     1      -5.929  -0.675  -1.718  0.00  0.00    +0.001 A 
ATOM     14  C   UNL     1      -5.630  -1.893  -2.291  0.00  0.00    +0.013 A 
ATOM     15  C   UNL     1      -4.513  -2.601  -1.855  0.00  0.00    +0.034 A 
ATOM     16  C   UNL     1      -4.239  -3.968  -2.319  0.00  0.00    +0.104 C 
ATOM     17  N   UNL     1      -3.208  -4.614  -1.808  0.00  0.00    -0.330 N 
ATOM     18  N   UNL     1      -5.032  -4.569  -3.263  0.00  0.00    -0.344 N 
ATOM     19  C   UNL     1       0.526  -1.989   1.407  0.00  0.00    +0.162 C 
ATOM     20  O   UNL     1       1.224  -2.588   2.205  0.00  0.00    -0.292 OA
ATOM     21  C   UNL     1       0.742  -0.508   1.241  0.00  0.00    +0.086 C 
ATOM     22  C   UNL     1       0.699  -0.493  -1.268  0.00  0.00    +0.011 C 
ATOM     23  H   UNL     1      -5.789  -4.091  -3.637  0.00  0.00    +0.144 HD
ATOM     24  H   UNL     1      -4.836  -5.472  -3.557  0.00  0.00    +0.144 HD
ATOM     25  H   UNL     1      -3.079  -5.521  -2.124  0.00  0.00    +0.168 HD
ENDROOT
BRANCH   6  26
ATOM     26  C   UNL     1       0.986  -4.570   0.048  0.00  0.00    -0.033 A 
ATOM     27  C   UNL     1       1.406  -4.114  -1.188  0.00  0.00    +0.004 A 
ATOM     28  C   UNL     1       2.655  -4.464  -1.666  0.00  0.00    +0.002 A 
ATOM     29  C   UNL     1       3.484  -5.270  -0.909  0.00  0.00    +0.020 A 
ATOM     30  C   UNL     1       3.065  -5.726   0.327  0.00  0.00    +0.041 A 
ATOM     31  C   UNL     1       1.817  -5.371   0.808  0.00  0.00    +0.024 A 
ATOM     32 CL   UNL     1       4.106  -6.739   1.278  0.00  0.00    -0.084 Cl
ENDBRANCH   6  26
BRANCH   7  33
ATOM     33  C   UNL     1      -1.322  -6.271  -0.546  0.00  0.00    +0.099 C 
ATOM     34  N   UNL     1      -1.265  -7.394  -0.710  0.00  0.00    -0.191 NA
ENDBRANCH   7  33
TORSDOF 2
