REMARK  Name = ZINC08920812
REMARK  12 active torsions:
REMARK  status: ('A' for Active; 'I' for Inactive)
REMARK    1  A    between atoms: C_1  and  C_2
REMARK    2  A    between atoms: C_2  and  C_3
REMARK    3  A    between atoms: C_3  and  C_4
REMARK    4  A    between atoms: C_3  and  C_5
REMARK    5  A    between atoms: C_3  and  C_6
REMARK    6  A    between atoms: C_15  and  O_36
REMARK    7  A    between atoms: C_17  and  C_20
REMARK    8  A    between atoms: C_23  and  C_25
REMARK    9  A    between atoms: C_28  and  C_31
REMARK   10  A    between atoms: C_31  and  O_33
REMARK   11  A    between atoms: O_33  and  C_34
REMARK   12  A    between atoms: C_34  and  C_35
REMARK                            x       y       z     vdW  Elec       q    Type
REMARK                         _______ _______ _______ _____ _____    ______ ____
ROOT
ATOM      1  C   UNL     1      -2.011  -7.724   6.976  0.00  0.00    -0.000 C 
ATOM      2  C   UNL     1      -1.685  -9.123   6.443  0.00  0.00    +0.009 C 
ATOM      3  C   UNL     1      -1.039  -9.014   5.061  0.00  0.00    +0.037 C 
ATOM      4  C   UNL     1      -1.930  -8.159   4.167  0.00  0.00    -0.023 A 
ATOM      5  C   UNL     1      -2.865  -7.340   4.702  0.00  0.00    -0.004 A 
ATOM      6  S   UNL     1      -3.641  -6.562   3.309  0.00  0.00    -0.078 S 
ATOM      7  C   UNL     1      -2.743  -7.305   2.056  0.00  0.00    +0.080 A 
ATOM      8  C   UNL     1      -1.849  -8.156   2.717  0.00  0.00    +0.068 A 
ATOM      9  C   UNL     1      -0.926  -8.959   1.874  0.00  0.00    +0.220 C 
ATOM     10  N   UNL     1      -0.837  -8.649   0.609  0.00  0.00    -0.220 NA
ATOM     11  C   UNL     1      -1.528  -7.533  -0.024  0.00  0.00    +0.260 C 
ATOM     12  N   UNL     1      -2.776  -7.194   0.687  0.00  0.00    -0.311 N 
ATOM     13  C   UNL     1      -3.169  -7.140   6.154  0.00  0.00    +0.046 C 
ATOM     14  H   UNL     1      -3.573  -6.908   0.214  0.00  0.00    +0.149 HD
ENDROOT
BRANCH  11  15
ATOM     15  C   UNL     1      -0.621  -6.330  -0.026  0.00  0.00    +0.148 A 
ATOM     16  C   UNL     1       0.727  -6.363  -0.038  0.00  0.00    +0.049 A 
ATOM     17  C   UNL     1       1.172  -5.027  -0.041  0.00  0.00    +0.050 A 
ATOM     18  C   UNL     1       0.060  -4.243  -0.021  0.00  0.00    +0.135 A 
ATOM     19  O   UNL     1      -1.020  -5.049  -0.016  0.00  0.00    -0.456 OA
BRANCH  18  20
ATOM     20  C   UNL     1       0.040  -2.768  -0.013  0.00  0.00    +0.017 A 
ATOM     21  C   UNL     1      -1.181  -2.085   0.002  0.00  0.00    +0.012 A 
ATOM     22  C   UNL     1      -1.200  -0.720   0.010  0.00  0.00    +0.015 A 
ATOM     23  C   UNL     1       0.002  -0.004   0.002  0.00  0.00    +0.059 A 
ATOM     24  C   UNL     1       1.223  -0.687  -0.019  0.00  0.00    +0.015 A 
ATOM     25  C   UNL     1       1.241  -2.052  -0.021  0.00  0.00    +0.012 A 
BRANCH  23  26
ATOM     26  C   UNL     1      -0.018   1.470   0.010  0.00  0.00    +0.339 C 
ATOM     27  O   UNL     1      -1.078   2.063   0.018  0.00  0.00    -0.245 OA
BRANCH  26  28
ATOM     28  O   UNL     1       1.140   2.160   0.003  0.00  0.00    -0.461 OA
BRANCH  28  29
ATOM     29  C   UNL     1       1.044   3.609   0.011  0.00  0.00    +0.229 C 
ATOM     30  C   UNL     1       2.450   4.213   0.001  0.00  0.00    +0.048 C 
ENDBRANCH  28  29
ENDBRANCH  26  28
ENDBRANCH  23  26
ENDBRANCH  18  20
ENDBRANCH  11  15
BRANCH   1  31
ATOM     31  C   UNL     1      -2.424  -7.820   8.447  0.00  0.00    -0.032 C 
ATOM     32  C   UNL     1      -3.648  -8.728   8.575  0.00  0.00    +0.011 C 
ATOM     33  C   UNL     1      -1.269  -8.403   9.264  0.00  0.00    +0.011 C 
BRANCH  31  35
ATOM     34  C   UNL     1      -3.179  -6.520  10.442  0.00  0.00    +0.004 C 
ATOM     35  C   UNL     1      -2.767  -6.424   8.972  0.00  0.00    +0.003 C 
ENDBRANCH  31  35
ENDBRANCH   1  31
BRANCH   9  36
ATOM     36  O   UNL     1      -0.202  -9.974   2.399  0.00  0.00    -0.492 OA
ATOM     37  H   UNL     1       0.364 -10.426   1.758  0.00  0.00    +0.294 HD
ENDBRANCH   9  36
TORSDOF 8
