REMARK  Name = ZINC63985755
REMARK  11 active torsions:
REMARK  status: ('A' for Active; 'I' for Inactive)
REMARK    1  A    between atoms: C_1  and  C_2
REMARK    2  A    between atoms: C_2  and  C_3
REMARK    3  A    between atoms: C_3  and  C_4
REMARK    4  A    between atoms: C_4  and  C_5
REMARK    5  A    between atoms: C_7  and  C_11
REMARK    6  A    between atoms: C_11  and  N_12
REMARK    7  A    between atoms: C_19  and  C_31
REMARK    8  A    between atoms: N_23  and  C_24
REMARK    9  A    between atoms: C_24  and  C_25
REMARK   10  A    between atoms: C_35  and  O_37
REMARK   11  A    between atoms: O_37  and  C_38
REMARK                            x       y       z     vdW  Elec       q    Type
REMARK                         _______ _______ _______ _____ _____    ______ ____
ROOT
ATOM      1  N   UNL     1      -6.623  -2.522   2.042  0.00  0.00    -0.293 NA
ATOM      2  C   UNL     1      -5.805  -1.615   2.855  0.00  0.00    +0.087 C 
ATOM      3  C   UNL     1      -6.552  -0.300   3.088  0.00  0.00    +0.042 C 
ATOM      4  C   UNL     1      -7.819  -0.577   3.901  0.00  0.00    +0.105 C 
ATOM      5  C   UNL     1      -8.581  -1.648   3.160  0.00  0.00    -0.038 C 
ATOM      6  C   UNL     1      -9.842  -1.481   2.861  0.00  0.00    -0.007 C 
ATOM      7  C   UNL     1     -10.539  -0.198   3.243  0.00  0.00    +0.128 C 
ATOM      8  C   UNL     1      -9.752   0.903   3.910  0.00  0.00    +0.228 C 
ATOM      9  O   UNL     1     -10.286   1.958   4.180  0.00  0.00    -0.275 OA
ATOM     10  N   UNL     1      -8.454   0.705   4.200  0.00  0.00    -0.288 N 
ATOM     11  C   UNL     1      -7.854  -2.907   2.752  0.00  0.00    +0.117 C 
ENDROOT
BRANCH   7  12
ATOM     12  C   UNL     1     -11.145   0.378   1.989  0.00  0.00    -0.028 A 
ATOM     13  C   UNL     1     -10.334   0.702   0.917  0.00  0.00    +0.005 A 
ATOM     14  C   UNL     1     -10.887   1.230  -0.235  0.00  0.00    +0.004 A 
ATOM     15  C   UNL     1     -12.251   1.435  -0.318  0.00  0.00    +0.045 A 
ATOM     16  C   UNL     1     -13.066   1.110   0.757  0.00  0.00    +0.120 A 
ATOM     17  C   UNL     1     -12.509   0.575   1.909  0.00  0.00    +0.050 A 
BRANCH  16  18
ATOM     18  O   UNL     1     -14.408   1.311   0.678  0.00  0.00    -0.495 OA
ATOM     19  C   UNL     1     -14.911   1.860  -0.541  0.00  0.00    +0.277 C 
ENDBRANCH  16  18
ENDBRANCH   7  12
BRANCH   1  20
ATOM     20  C   UNL     1      -5.855  -3.708   1.640  0.00  0.00    +0.139 C 
BRANCH  20  23
ATOM     21  C   UNL     1      -2.826  -2.585   0.015  0.00  0.00    +0.084 A 
ATOM     22  N   UNL     1      -3.532  -2.849   1.081  0.00  0.00    -0.346 N 
ATOM     23  C   UNL     1      -4.742  -3.294   0.712  0.00  0.00    +0.047 A 
ATOM     24  H   UNL     1      -3.304  -2.743  -2.001  0.00  0.00    +0.166 HD
ATOM     25  C   UNL     1      -4.788  -3.306  -0.634  0.00  0.00    +0.106 A 
ATOM     26  N   UNL     1      -3.575  -2.851  -1.077  0.00  0.00    -0.350 N 
ATOM     27  H   UNL     1      -3.228  -2.741   1.996  0.00  0.00    +0.167 HD
BRANCH  21  28
ATOM     28  C   UNL     1      -1.413  -2.063   0.004  0.00  0.00    +0.072 C 
BRANCH  28  29
ATOM     29  C   UNL     1      -1.433  -0.534   0.013  0.00  0.00    +0.007 C 
BRANCH  29  31
ATOM     30  C   UNL     1      -0.019   1.526   0.010  0.00  0.00    +0.004 C 
ATOM     31  C   UNL     1       0.002  -0.004   0.002  0.00  0.00    -0.003 C 
ENDBRANCH  29  31
ENDBRANCH  28  29
ENDBRANCH  21  28
ENDBRANCH  20  23
ENDBRANCH   1  20
BRANCH  10  32
ATOM     32  C   UNL     1      -7.678   1.780   4.822  0.00  0.00    +0.163 C 
BRANCH  32  33
ATOM     33  C   UNL     1      -7.046   2.630   3.749  0.00  0.00    +0.059 A 
ATOM     34  C   UNL     1      -7.681   3.783   3.329  0.00  0.00    +0.025 A 
ATOM     35  C   UNL     1      -7.092   4.558   2.342  0.00  0.00    +0.003 A 
ATOM     36  C   UNL     1      -5.881   4.141   1.812  0.00  0.00    +0.020 A 
ATOM     37  C   UNL     1      -5.305   2.975   2.281  0.00  0.00    +0.111 A 
ATOM     38  N   UNL     1      -5.892   2.266   3.226  0.00  0.00    -0.258 NA
ENDBRANCH  32  33
ENDBRANCH  10  32
TORSDOF 9
