REMARK  Name = ZINC18091745
REMARK  10 active torsions:
REMARK  status: ('A' for Active; 'I' for Inactive)
REMARK    1  A    between atoms: C_1  and  C_2
REMARK    2  A    between atoms: C_2  and  C_3
REMARK    3  A    between atoms: C_2  and  C_4
REMARK    4  A    between atoms: C_2  and  C_5
REMARK    5  A    between atoms: C_8  and  C_11
REMARK    6  A    between atoms: C_11  and  N_12
REMARK    7  A    between atoms: C_13  and  N_17
REMARK    8  A    between atoms: C_18  and  C_20
REMARK    9  A    between atoms: C_20  and  C_21
REMARK   10  A    between atoms: C_21  and  N_22
REMARK                            x       y       z     vdW  Elec       q    Type
REMARK                         _______ _______ _______ _____ _____    ______ ____
ROOT
ATOM      1  N   UNL     1       0.455  -1.803  -6.792  0.00  0.00    -0.271 N 
ATOM      2  C   UNL     1      -0.492  -1.676  -7.742  0.00  0.00    +0.220 C 
ATOM      3  O   UNL     1      -0.429  -0.768  -8.544  0.00  0.00    -0.275 OA
ATOM      4  H   UNL     1       0.404  -2.529  -6.151  0.00  0.00    +0.156 HD
ENDROOT
BRANCH   1   6
ATOM      5  N   UNL     1       2.520  -0.898  -5.833  0.00  0.00    -0.246 N 
ATOM      6  C   UNL     1       1.507  -0.890  -6.730  0.00  0.00    +0.123 A 
ATOM      7  C   UNL     1       1.702   0.171  -7.560  0.00  0.00    +0.065 A 
ATOM      8  C   UNL     1       2.868   0.824  -7.154  0.00  0.00    +0.136 A 
ATOM      9  N   UNL     1       3.356   0.190  -6.119  0.00  0.00    -0.178 NA
BRANCH   5  10
ATOM     10  C   UNL     1       2.707  -1.868  -4.752  0.00  0.00    +0.180 C 
BRANCH  10  14
ATOM     11  C   UNL     1       0.707  -0.490  -1.238  0.00  0.00    -0.042 A 
ATOM     12  C   UNL     1       0.036  -1.284  -2.148  0.00  0.00    +0.004 A 
ATOM     13  C   UNL     1       0.683  -1.730  -3.286  0.00  0.00    +0.006 A 
ATOM     14  C   UNL     1       2.001  -1.381  -3.513  0.00  0.00    -0.026 A 
ATOM     15  C   UNL     1       2.672  -0.586  -2.603  0.00  0.00    +0.006 A 
ATOM     16  C   UNL     1       2.024  -0.137  -1.467  0.00  0.00    +0.004 A 
BRANCH  11  18
ATOM     17  C   UNL     1      -0.019   1.526   0.010  0.00  0.00    +0.015 C 
ATOM     18  C   UNL     1       0.002  -0.004   0.002  0.00  0.00    -0.013 C 
ATOM     19  C   UNL     1       0.742  -0.511   1.242  0.00  0.00    +0.015 C 
ATOM     20  C   UNL     1      -1.433  -0.534   0.013  0.00  0.00    +0.015 C 
ENDBRANCH  11  18
ENDBRANCH  10  14
ENDBRANCH   5  10
ENDBRANCH   1   6
BRANCH   2  21
ATOM     21  C   UNL     1      -1.629  -2.663  -7.809  0.00  0.00    +0.115 C 
BRANCH  21  22
ATOM     22  C   UNL     1      -2.556  -2.295  -8.970  0.00  0.00    +0.126 C 
BRANCH  22  23
ATOM     23  N   UNL     1      -3.662  -3.254  -9.035  0.00  0.00    -0.234 N 
ATOM     24  C   UNL     1      -3.637  -4.397  -9.744  0.00  0.00    +0.254 C 
ATOM     25  O   UNL     1      -2.710  -4.790 -10.422  0.00  0.00    -0.270 OA
ATOM     26  C   UNL     1      -4.928  -5.093  -9.560  0.00  0.00    +0.049 A 
ATOM     27  C   UNL     1      -5.463  -6.281 -10.033  0.00  0.00    +0.014 A 
ATOM     28  C   UNL     1      -6.744  -6.655  -9.658  0.00  0.00    +0.001 A 
ATOM     29  C   UNL     1      -7.490  -5.852  -8.816  0.00  0.00    +0.001 A 
ATOM     30  C   UNL     1      -6.968  -4.662  -8.335  0.00  0.00    +0.014 A 
ATOM     31  C   UNL     1      -5.689  -4.274  -8.701  0.00  0.00    +0.049 A 
ATOM     32  C   UNL     1      -4.833  -3.111  -8.389  0.00  0.00    +0.254 C 
ATOM     33  O   UNL     1      -5.137  -2.180  -7.670  0.00  0.00    -0.270 OA
ENDBRANCH  22  23
ENDBRANCH  21  22
ENDBRANCH   2  21
TORSDOF 7
