REMARK  Name = ZINC38671187
REMARK  12 active torsions:
REMARK  status: ('A' for Active; 'I' for Inactive)
REMARK    1  A    between atoms: C_1  and  C_2
REMARK    2  A    between atoms: C_3  and  C_35
REMARK    3  A    between atoms: C_4  and  C_34
REMARK    4  A    between atoms: C_5  and  S_10
REMARK    5  A    between atoms: C_6  and  C_9
REMARK    6  A    between atoms: C_7  and  C_8
REMARK    7  A    between atoms: S_10  and  N_13
REMARK    8  A    between atoms: N_13  and  C_14
REMARK    9  A    between atoms: C_14  and  C_15
REMARK   10  A    between atoms: C_15  and  C_17
REMARK   11  A    between atoms: C_15  and  N_28
REMARK   12  A    between atoms: N_26  and  C_27
REMARK                            x       y       z     vdW  Elec       q    Type
REMARK                         _______ _______ _______ _____ _____    ______ ____
ROOT
ATOM      1  C   UNL     1       3.895  -3.896   2.502  0.00  0.00    -0.022 C 
ENDROOT
BRANCH   1   2
ATOM      2  C   UNL     1       4.287  -3.341   3.846  0.00  0.00    -0.059 A 
ATOM      3  C   UNL     1       4.750  -2.041   3.947  0.00  0.00    +0.004 A 
ATOM      4  C   UNL     1       5.111  -1.533   5.179  0.00  0.00    +0.023 A 
ATOM      5  C   UNL     1       5.008  -2.326   6.317  0.00  0.00    +0.033 A 
ATOM      6  C   UNL     1       4.541  -3.627   6.215  0.00  0.00    -0.026 A 
ATOM      7  C   UNL     1       4.178  -4.128   4.976  0.00  0.00    +0.007 A 
ATOM      8  C   UNL     1       4.406  -4.511   7.427  0.00  0.00    +0.038 C 
ATOM      9  C   UNL     1       5.287  -3.998   8.565  0.00  0.00    +0.024 C 
ATOM     10  C   UNL     1       5.000  -2.506   8.781  0.00  0.00    +0.105 C 
ATOM     11  N   UNL     1       5.383  -1.793   7.555  0.00  0.00    -0.333 N 
ATOM     12  C   UNL     1       6.146  -0.544   7.628  0.00  0.00    +0.129 C 
ENDBRANCH   1   2
BRANCH   1  13
ATOM     13  N   UNL     1       4.856  -3.445   1.486  0.00  0.00    +0.385 N 
ATOM     14  C   UNL     1       4.450  -3.954   0.171  0.00  0.00    -0.078 C 
ATOM     15  C   UNL     1       5.401  -3.420  -0.902  0.00  0.00    -0.019 C 
ATOM     16  C   UNL     1       6.827  -3.885  -0.591  0.00  0.00    -0.004 C 
ATOM     17  C   UNL     1       7.212  -3.411   0.814  0.00  0.00    -0.019 C 
ATOM     18  C   UNL     1       6.194  -3.945   1.823  0.00  0.00    -0.078 C 
ATOM     19  H   UNL     1       4.871  -2.436   1.464  0.00  0.00    -0.081 HD
ENDBRANCH   1  13
BRANCH   1  20
ATOM     20  C   UNL     1       2.495  -3.402   2.135  0.00  0.00    +0.095 C 
BRANCH  20  21
ATOM     21  N   UNL     1       1.524  -3.925   3.099  0.00  0.00    -0.191 NA
ATOM     22  H   UNL     1       1.773  -4.649   3.695  0.00  0.00    +0.148 HD
BRANCH  21  23
ATOM     23  S   UNL     1       0.000  -3.281   3.172  0.00  0.00    +0.059 S 
ATOM     24  O   UNL     1       0.158  -1.870   3.227  0.00  0.00    -0.153 OA
ATOM     25  O   UNL     1      -0.701  -4.008   4.172  0.00  0.00    -0.153 OA
BRANCH  23  30
ATOM     26  C   UNL     1      -2.709  -4.513  -2.076  0.00  0.00    +0.044 C 
ATOM     27  C   UNL     1      -2.033  -4.205  -0.765  0.00  0.00    -0.044 A 
ATOM     28  C   UNL     1      -1.340  -3.019  -0.607  0.00  0.00    -0.043 A 
ATOM     29  C   UNL     1      -0.720  -2.737   0.596  0.00  0.00    -0.021 A 
ATOM     30  C   UNL     1      -0.792  -3.640   1.640  0.00  0.00    +0.112 A 
ATOM     31  C   UNL     1      -1.485  -4.826   1.481  0.00  0.00    -0.021 A 
ATOM     32  C   UNL     1      -2.109  -5.106   0.280  0.00  0.00    -0.043 A 
ATOM     33  C   UNL     1      -2.869  -6.396   0.109  0.00  0.00    +0.044 C 
ATOM     34  C   UNL     1      -1.563  -5.811   2.619  0.00  0.00    +0.046 C 
ATOM     35  C   UNL     1       0.036  -1.445   0.769  0.00  0.00    +0.046 C 
ATOM     36  C   UNL     1      -1.262  -2.035  -1.745  0.00  0.00    +0.044 C 
ENDBRANCH  23  30
ENDBRANCH  21  23
ENDBRANCH  20  21
ENDBRANCH   1  20
TORSDOF 6
