REMARK  Name = ZINC09397825
REMARK  9 active torsions:
REMARK  status: ('A' for Active; 'I' for Inactive)
REMARK    1  A    between atoms: C_1  and  C_2
REMARK    2  A    between atoms: C_5  and  C_8
REMARK    3  A    between atoms: C_10  and  C_18
REMARK    4  A    between atoms: C_21  and  S_26
REMARK    5  A    between atoms: N_22  and  C_23
REMARK    6  A    between atoms: C_23  and  C_24
REMARK    7  A    between atoms: S_26  and  C_27
REMARK    8  A    between atoms: C_27  and  C_29
REMARK    9  A    between atoms: C_27  and  C_30
REMARK                            x       y       z     vdW  Elec       q    Type
REMARK                         _______ _______ _______ _____ _____    ______ ____
ROOT
ATOM      1  C   UNL     1      -3.801   3.199  -0.072  0.00  0.00    +0.166 A 
ATOM      2  N   UNL     1      -3.993   1.899  -0.118  0.00  0.00    -0.128 NA
ATOM      3  N   UNL     1      -5.237   1.633   0.071  0.00  0.00    -0.122 NA
ATOM      4  C   UNL     1      -5.915   2.748   0.249  0.00  0.00    +0.193 A 
ATOM      5  N   UNL     1      -5.027   3.780   0.169  0.00  0.00    -0.298 N 
ENDROOT
BRANCH   1   8
ATOM      6  C   UNL     1      -0.880   5.527   0.454  0.00  0.00    +0.072 A 
ATOM      7  C   UNL     1      -2.107   4.886   0.653  0.00  0.00    +0.040 A 
ATOM      8  C   UNL     1      -2.517   3.902  -0.241  0.00  0.00    +0.030 A 
ATOM      9  C   UNL     1      -1.620   3.592  -1.357  0.00  0.00    +0.011 A 
ATOM     10  C   UNL     1      -1.947   2.622  -2.310  0.00  0.00    +0.011 A 
ATOM     11  C   UNL     1      -1.081   2.362  -3.331  0.00  0.00    +0.001 A 
ATOM     12  C   UNL     1       0.120   3.058  -3.442  0.00  0.00    +0.002 A 
ATOM     13  C   UNL     1       0.466   4.011  -2.534  0.00  0.00    +0.028 A 
ATOM     14  C   UNL     1      -0.400   4.303  -1.464  0.00  0.00    +0.072 A 
ATOM     15  N   UNL     1      -0.087   5.233  -0.559  0.00  0.00    -0.247 NA
BRANCH   6  20
ATOM     16  C   UNL     1       0.768   9.591   4.185  0.00  0.00    +0.044 C 
ATOM     17  C   UNL     1       0.337   8.528   3.208  0.00  0.00    -0.050 A 
ATOM     18  C   UNL     1       1.152   8.203   2.139  0.00  0.00    +0.004 A 
ATOM     19  C   UNL     1       0.762   7.230   1.242  0.00  0.00    +0.010 A 
ATOM     20  C   UNL     1      -0.456   6.574   1.414  0.00  0.00    +0.000 A 
ATOM     21  C   UNL     1      -1.275   6.909   2.490  0.00  0.00    +0.010 A 
ATOM     22  C   UNL     1      -0.873   7.880   3.385  0.00  0.00    +0.004 A 
ENDBRANCH   6  20
ENDBRANCH   1   8
BRANCH   5  23
ATOM     23  C   UNL     1      -5.316   5.209   0.309  0.00  0.00    +0.152 C 
BRANCH  23  24
ATOM     24  C   UNL     1      -5.611   5.797  -1.047  0.00  0.00    -0.013 C 
ATOM     25  C   UNL     1      -6.732   6.442  -1.252  0.00  0.00    +0.005 C 
ENDBRANCH  23  24
ENDBRANCH   5  23
BRANCH   4  26
ATOM     26  S   UNL     1      -7.647   2.880   0.542  0.00  0.00    -0.073 S 
BRANCH  26  27
ATOM     27  C   UNL     1      -8.106   1.129   0.512  0.00  0.00    +0.137 C 
ATOM     28  C   UNL     1      -7.866   0.563  -0.888  0.00  0.00    +0.029 C 
BRANCH  27  29
ATOM     29  C   UNL     1      -9.563   0.986   0.869  0.00  0.00    +0.233 C 
ATOM     30  O   UNL     1     -10.327   1.908   0.680  0.00  0.00    -0.274 OA
ATOM     31  N   UNL     1     -10.017  -0.168   1.399  0.00  0.00    -0.239 N 
ATOM     32  C   UNL     1     -11.320  -0.296   1.718  0.00  0.00    +0.303 C 
ATOM     33  O   UNL     1     -12.086   0.628   1.528  0.00  0.00    -0.253 OA
ATOM     34  N   UNL     1     -11.773  -1.450   2.247  0.00  0.00    -0.313 N 
ATOM     35  H   UNL     1      -9.405  -0.905   1.550  0.00  0.00    +0.159 HD
ATOM     36  H   UNL     1     -11.162  -2.188   2.399  0.00  0.00    +0.146 HD
ATOM     37  H   UNL     1     -12.711  -1.542   2.477  0.00  0.00    +0.146 HD
ENDBRANCH  27  29
ENDBRANCH  26  27
ENDBRANCH   4  26
TORSDOF 7
