REMARK  Name = ZINC06149597
REMARK  13 active torsions:
REMARK  status: ('A' for Active; 'I' for Inactive)
REMARK    1  A    between atoms: C_1  and  C_2
REMARK    2  A    between atoms: C_2  and  C_3
REMARK    3  A    between atoms: C_3  and  C_4
REMARK    4  A    between atoms: C_3  and  C_5
REMARK    5  A    between atoms: C_3  and  N_6
REMARK    6  A    between atoms: C_7  and  C_11
REMARK    7  A    between atoms: C_11  and  C_13
REMARK    8  A    between atoms: C_11  and  N_72
REMARK    9  A    between atoms: C_19  and  C_25
REMARK   10  A    between atoms: C_26  and  C_27
REMARK   11  A    between atoms: C_26  and  N_72
REMARK   12  A    between atoms: C_33  and  C_34
REMARK   13  A    between atoms: C_33  and  N_72
REMARK                            x       y       z     vdW  Elec       q    Type
REMARK                         _______ _______ _______ _____ _____    ______ ____
ROOT
ATOM      1  C   UNL     1      -0.709  -3.351   4.792  0.00  0.00    +0.040 C 
ENDROOT
BRANCH   1   2
ATOM      2  C   UNL     1      -0.538  -3.103   3.315  0.00  0.00    +0.011 A 
ATOM      3  C   UNL     1       0.704  -2.934   2.798  0.00  0.00    +0.017 A 
ATOM      4  C   UNL     1       0.836  -2.696   1.359  0.00  0.00    -0.001 A 
ATOM      5  C   UNL     1       2.090  -2.515   0.768  0.00  0.00    +0.010 A 
ATOM      6  C   UNL     1       2.179  -2.293  -0.577  0.00  0.00    +0.001 A 
ATOM      7  C   UNL     1       1.036  -2.254  -1.364  0.00  0.00    +0.005 A 
ATOM      8  C   UNL     1      -0.211  -2.423  -0.801  0.00  0.00    -0.026 A 
ATOM      9  C   UNL     1      -0.326  -2.649   0.566  0.00  0.00    +0.052 A 
ATOM     10  N   UNL     1      -1.560  -2.828   1.154  0.00  0.00    -0.322 N 
ATOM     11  H   UNL     1      -2.385  -2.795   0.589  0.00  0.00    +0.169 HD
ATOM     12  C   UNL     1      -1.671  -3.047   2.476  0.00  0.00    +0.251 A 
ATOM     13  O   UNL     1      -2.779  -3.201   2.962  0.00  0.00    -0.268 OA
ATOM     14  C   UNL     1      -1.444  -2.370  -1.666  0.00  0.00    +0.046 C 
ENDBRANCH   1   2
BRANCH   1  16
ATOM     15  N   UNL     1       1.248  -4.509   5.947  0.00  0.00    -0.225 N 
ATOM     16  C   UNL     1       0.645  -3.413   5.451  0.00  0.00    +0.143 A 
ATOM     17  N   UNL     1       1.462  -2.408   5.657  0.00  0.00    -0.115 NA
ATOM     18  N   UNL     1       2.514  -2.865   6.245  0.00  0.00    -0.023 NA
ATOM     19  N   UNL     1       2.389  -4.134   6.418  0.00  0.00    -0.043 NA
BRANCH  15  20
ATOM     20  C   UNL     1       0.711  -5.872   5.948  0.00  0.00    +0.061 C 
ATOM     21  C   UNL     1      -0.559  -5.919   6.799  0.00  0.00    +0.036 C 
ATOM     22  C   UNL     1       0.380  -6.291   4.514  0.00  0.00    +0.036 C 
BRANCH  20  24
ATOM     23  C   UNL     1       1.191  -8.253   6.533  0.00  0.00    +0.006 C 
ATOM     24  C   UNL     1       1.752  -6.830   6.532  0.00  0.00    +0.026 C 
ENDBRANCH  20  24
ENDBRANCH  15  20
ENDBRANCH   1  16
BRANCH   1  25
ATOM     25  N   UNL     1      -1.518  -2.258   5.372  0.00  0.00    +0.395 N 
ATOM     26  H   UNL     1      -2.438  -2.247   4.917  0.00  0.00    -0.079 HD
BRANCH  25  27
ATOM     27  C   UNL     1      -0.852  -0.959   5.139  0.00  0.00    -0.041 C 
BRANCH  27  28
ATOM     28  C   UNL     1      -1.344  -0.396   3.830  0.00  0.00    -0.064 A 
ATOM     29  C   UNL     1      -0.504  -0.365   2.733  0.00  0.00    +0.002 A 
ATOM     30  C   UNL     1      -0.956   0.146   1.531  0.00  0.00    +0.000 A 
ATOM     31  C   UNL     1      -2.244   0.637   1.429  0.00  0.00    +0.000 A 
ATOM     32  C   UNL     1      -3.082   0.611   2.529  0.00  0.00    +0.000 A 
ATOM     33  C   UNL     1      -2.632   0.095   3.729  0.00  0.00    +0.002 A 
ENDBRANCH  27  28
ENDBRANCH  25  27
BRANCH  25  34
ATOM     34  C   UNL     1      -1.701  -2.479   6.822  0.00  0.00    -0.041 C 
BRANCH  34  35
ATOM     35  C   UNL     1      -2.814  -1.589   7.310  0.00  0.00    -0.064 A 
ATOM     36  C   UNL     1      -2.518  -0.380   7.913  0.00  0.00    +0.004 A 
ATOM     37  C   UNL     1      -3.538   0.439   8.357  0.00  0.00    +0.038 A 
ATOM     38  C   UNL     1      -4.857   0.045   8.208  0.00  0.00    +0.123 A 
ATOM     39  C   UNL     1      -5.152  -1.168   7.609  0.00  0.00    +0.038 A 
ATOM     40  C   UNL     1      -4.131  -1.984   7.161  0.00  0.00    +0.004 A 
ATOM     41  F   UNL     1      -5.855   0.844   8.646  0.00  0.00    -0.205 F 
ENDBRANCH  34  35
ENDBRANCH  25  34
ENDBRANCH   1  25
TORSDOF 9
