REMARK  Name = ZINC16557520
REMARK  12 active torsions:
REMARK  status: ('A' for Active; 'I' for Inactive)
REMARK    1  A    between atoms: C_1  and  C_2
REMARK    2  A    between atoms: C_2  and  N_71
REMARK    3  A    between atoms: C_3  and  C_4
REMARK    4  A    between atoms: C_3  and  N_71
REMARK    5  A    between atoms: N_6  and  C_7
REMARK    6  A    between atoms: C_10  and  N_13
REMARK    7  A    between atoms: C_14  and  C_16
REMARK    8  A    between atoms: C_17  and  C_18
REMARK    9  A    between atoms: C_17  and  N_71
REMARK   10  A    between atoms: N_20  and  C_21
REMARK   11  A    between atoms: C_21  and  C_23
REMARK   12  A    between atoms: C_21  and  C_24
REMARK                            x       y       z     vdW  Elec       q    Type
REMARK                         _______ _______ _______ _____ _____    ______ ____
ROOT
ATOM      1  N   UNL     1       3.621   1.581  -0.709  0.00  0.00    +0.391 N 
ATOM      2  H   UNL     1       3.491   2.412  -0.120  0.00  0.00    -0.080 HD
ENDROOT
BRANCH   1   4
ATOM      3  C   UNL     1       2.446   3.005  -2.310  0.00  0.00    -0.017 C 
ATOM      4  C   UNL     1       3.573   1.986  -2.129  0.00  0.00    -0.081 C 
ENDBRANCH   1   4
BRANCH   1   5
ATOM      5  C   UNL     1       2.540   0.614  -0.422  0.00  0.00    +0.020 C 
BRANCH   5   6
ATOM      6  C   UNL     1       2.312   0.573   1.067  0.00  0.00    +0.201 C 
ATOM      7  O   UNL     1       2.917   1.331   1.795  0.00  0.00    -0.278 OA
ATOM      8  N   UNL     1       1.435  -0.307   1.590  0.00  0.00    -0.287 N 
ATOM      9  H   UNL     1       0.897  -0.862   1.004  0.00  0.00    +0.155 HD
BRANCH   8  10
ATOM     10  C   UNL     1       1.298  -0.417   2.979  0.00  0.00    +0.033 A 
ATOM     11  C   UNL     1       1.045  -1.655   3.557  0.00  0.00    +0.025 A 
ATOM     12  C   UNL     1       0.916  -1.764   4.927  0.00  0.00    +0.025 A 
ATOM     13  C   UNL     1       1.026  -0.634   5.727  0.00  0.00    +0.033 A 
ATOM     14  C   UNL     1       1.272   0.604   5.149  0.00  0.00    +0.025 A 
ATOM     15  C   UNL     1       1.408   0.713   3.780  0.00  0.00    +0.025 A 
BRANCH  13  16
ATOM     16  N   UNL     1       0.888  -0.744   7.116  0.00  0.00    -0.286 N 
ATOM     17  C   UNL     1       1.295  -1.863   7.747  0.00  0.00    +0.214 C 
ATOM     18  O   UNL     1       1.861  -2.738   7.127  0.00  0.00    -0.276 OA
ATOM     19  C   UNL     1       1.046  -2.028   9.225  0.00  0.00    +0.109 C 
ATOM     20  H   UNL     1       0.500  -0.014   7.624  0.00  0.00    +0.155 HD
ENDBRANCH  13  16
ENDBRANCH   8  10
ENDBRANCH   5   6
ENDBRANCH   1   5
BRANCH   1  21
ATOM     21  C   UNL     1       4.934   0.976  -0.401  0.00  0.00    +0.019 C 
BRANCH  21  22
ATOM     22  C   UNL     1       5.994   2.043  -0.489  0.00  0.00    +0.197 C 
ATOM     23  O   UNL     1       5.689   3.177  -0.792  0.00  0.00    -0.278 OA
ATOM     24  N   UNL     1       7.281   1.738  -0.231  0.00  0.00    -0.314 N 
ATOM     25  H   UNL     1       7.525   0.831   0.012  0.00  0.00    +0.149 HD
BRANCH  24  26
ATOM     26  C   UNL     1       8.312   2.776  -0.316  0.00  0.00    +0.076 C 
ATOM     27  C   UNL     1       8.786   2.905  -1.765  0.00  0.00    +0.028 C 
BRANCH  26  28
ATOM     28  C   UNL     1       9.495   2.394   0.575  0.00  0.00    -0.010 C 
ATOM     29  C   UNL     1      10.076   1.059   0.108  0.00  0.00    +0.012 C 
ATOM     30  C   UNL     1      11.260   0.677   1.000  0.00  0.00    -0.010 C 
ATOM     31  C   UNL     1      12.336   1.761   0.910  0.00  0.00    +0.007 C 
ATOM     32  C   UNL     1      11.754   3.097   1.378  0.00  0.00    -0.010 C 
ATOM     33  C   UNL     1      10.571   3.478   0.486  0.00  0.00    +0.012 C 
ATOM     34  C   UNL     1      11.280   2.968   2.827  0.00  0.00    +0.007 C 
ATOM     35  C   UNL     1      10.204   1.884   2.916  0.00  0.00    -0.010 C 
ATOM     36  C   UNL     1      10.785   0.548   2.449  0.00  0.00    +0.007 C 
ATOM     37  C   UNL     1       9.021   2.265   2.024  0.00  0.00    +0.012 C 
ENDBRANCH  26  28
ENDBRANCH  24  26
ENDBRANCH  21  22
ENDBRANCH   1  21
TORSDOF 9
