REMARK  Name = ZINC54822151
REMARK  4 active torsions:
REMARK  status: ('A' for Active; 'I' for Inactive)
REMARK    1  A    between atoms: C_1  and  C_2
REMARK    2  A    between atoms: C_6  and  C_8
REMARK    3  A    between atoms: C_8  and  N_9
REMARK    4  A    between atoms: N_9  and  C_10
REMARK                            x       y       z     vdW  Elec       q    Type
REMARK                         _______ _______ _______ _____ _____    ______ ____
ROOT
ATOM      1  C   UNL     1       1.706  -4.628   2.823  0.00  0.00    +0.044 A 
ATOM      2  C   UNL     1       0.667  -5.417   3.295  0.00  0.00    +0.051 A 
ATOM      3  C   UNL     1       0.940  -6.484   4.137  0.00  0.00    +0.069 A 
ATOM      4  C   UNL     1       2.257  -6.761   4.507  0.00  0.00    +0.068 A 
ATOM      5  C   UNL     1       3.292  -5.969   4.032  0.00  0.00    +0.045 A 
ATOM      6  C   UNL     1       3.018  -4.909   3.189  0.00  0.00    +0.041 A 
ATOM      7 BR   UNL     1       4.429  -3.834   2.537  0.00  0.00    -0.048 Br
ATOM      8  N   UNL     1       2.214  -7.875   5.346  0.00  0.00    -0.306 N 
ATOM      9  H   UNL     1       2.979  -8.302   5.763  0.00  0.00    +0.170 HD
ATOM     10  C   UNL     1       0.930  -8.255   5.478  0.00  0.00    +0.325 A 
ATOM     11  O   UNL     1       0.543  -9.197   6.145  0.00  0.00    -0.247 OA
ATOM     12  N   UNL     1       0.137  -7.437   4.761  0.00  0.00    -0.306 N 
ATOM     13  H   UNL     1      -0.828  -7.499   4.691  0.00  0.00    +0.170 HD
ENDROOT
BRANCH   1  14
ATOM     14  N   UNL     1       1.433  -3.551   1.972  0.00  0.00    -0.337 N 
ATOM     15  H   UNL     1       2.159  -3.001   1.639  0.00  0.00    +0.146 HD
BRANCH  14  16
ATOM     16  C   UNL     1       0.052  -3.253   1.586  0.00  0.00    +0.156 C 
BRANCH  16  22
ATOM     17  C   UNL     1      -0.018   1.503   0.010  0.00  0.00    +0.084 C 
ATOM     18  C   UNL     1       0.002  -0.004   0.002  0.00  0.00    +0.081 A 
ATOM     19  N   UNL     1       0.008  -0.785  -1.100  0.00  0.00    -0.350 N 
ATOM     20  H   UNL     1       0.001  -0.481  -2.021  0.00  0.00    +0.166 HD
ATOM     21  C   UNL     1       0.028  -2.086  -0.674  0.00  0.00    +0.106 A 
ATOM     22  C   UNL     1       0.033  -2.055   0.673  0.00  0.00    +0.051 A 
ATOM     23  N   UNL     1       0.022  -0.770   1.058  0.00  0.00    -0.346 N 
ATOM     24  H   UNL     1       0.027  -0.460   1.977  0.00  0.00    +0.167 HD
ENDBRANCH  16  22
ENDBRANCH  14  16
ENDBRANCH   1  14
TORSDOF 3
