REMARK  Name = ZINC43209314
REMARK  4 active torsions:
REMARK  status: ('A' for Active; 'I' for Inactive)
REMARK    1  A    between atoms: C_7  and  C_16
REMARK    2  A    between atoms: N_24  and  C_27
REMARK    3  A    between atoms: N_34  and  C_35
REMARK    4  A    between atoms: C_35  and  C_36
REMARK                            x       y       z     vdW  Elec       q    Type
REMARK                         _______ _______ _______ _____ _____    ______ ____
ROOT
ATOM      1  C   UNL     1       0.024  -2.886  -0.013  0.00  0.00    +0.131 C 
ATOM      2  C   UNL     1      -0.126  -3.633   1.305  0.00  0.00    +0.139 C 
ATOM      3  C   UNL     1       0.683  -4.929   0.919  0.00  0.00    +0.241 C 
ATOM      4  C   UNL     1       0.966  -5.493   2.225  0.00  0.00    +0.254 C 
ATOM      5  O   UNL     1       1.051  -6.667   2.516  0.00  0.00    -0.272 OA
ATOM      6  N   UNL     1       1.117  -4.417   3.060  0.00  0.00    -0.236 N 
ATOM      7  C   UNL     1       0.679  -3.236   2.503  0.00  0.00    +0.230 C 
ATOM      8  O   UNL     1       0.900  -2.109   2.891  0.00  0.00    -0.275 OA
ATOM      9  O   UNL     1       0.134  -5.284  -0.284  0.00  0.00    -0.282 OA
ATOM     10  N   UNL     1       0.087  -3.976  -1.036  0.00  0.00    -0.170 NA
ENDROOT
BRANCH   1  17
ATOM     11  C   UNL     1       0.148   1.110   1.397  0.00  0.00    +0.001 A 
ATOM     12  C   UNL     1       1.325   1.860   1.389  0.00  0.00    +0.001 A 
ATOM     13  C   UNL     1       2.494   1.347   0.929  0.00  0.00    +0.010 A 
ATOM     14  C   UNL     1       2.531   0.023   0.443  0.00  0.00    +0.001 A 
ATOM     15  C   UNL     1       1.294  -0.765   0.451  0.00  0.00    -0.011 A 
ATOM     16  C   UNL     1       0.114  -0.169   0.944  0.00  0.00    +0.009 A 
ATOM     17  C   UNL     1       1.295  -2.076  -0.022  0.00  0.00    -0.012 A 
ATOM     18  C   UNL     1       2.478  -2.635  -0.502  0.00  0.00    -0.011 A 
ATOM     19  C   UNL     1       2.514  -3.959  -0.989  0.00  0.00    +0.009 A 
ATOM     20  C   UNL     1       3.683  -4.472  -1.451  0.00  0.00    +0.001 A 
ATOM     21  C   UNL     1       4.860  -3.723  -1.458  0.00  0.00    +0.001 A 
ATOM     22  C   UNL     1       4.895  -2.444  -1.004  0.00  0.00    +0.010 A 
ATOM     23  C   UNL     1       3.715  -1.847  -0.511  0.00  0.00    +0.001 A 
ATOM     24  C   UNL     1       3.716  -0.535  -0.038  0.00  0.00    +0.056 A 
ATOM     25 CL   UNL     1       5.180   0.397  -0.048  0.00  0.00    -0.082 Cl
ENDBRANCH   1  17
BRANCH   6  26
ATOM     26  C   UNL     1       1.674  -4.511   4.411  0.00  0.00    +0.084 C 
ATOM     27  C   UNL     1       3.100  -5.059   4.338  0.00  0.00    +0.023 C 
ATOM     28  C   UNL     1       3.682  -5.158   5.749  0.00  0.00    +0.002 C 
ATOM     29  C   UNL     1       2.818  -6.098   6.593  0.00  0.00    +0.000 C 
ATOM     30  C   UNL     1       1.391  -5.550   6.666  0.00  0.00    +0.002 C 
ATOM     31  C   UNL     1       0.810  -5.451   5.255  0.00  0.00    +0.023 C 
ENDBRANCH   6  26
BRANCH  10  32
ATOM     32  C   UNL     1      -1.078  -3.928  -1.929  0.00  0.00    +0.210 C 
BRANCH  32  33
ATOM     33  C   UNL     1      -0.919  -4.959  -3.017  0.00  0.00    +0.227 C 
ATOM     34  O   UNL     1       0.067  -5.664  -3.046  0.00  0.00    -0.275 OA
ATOM     35  N   UNL     1      -1.874  -5.097  -3.959  0.00  0.00    -0.328 N 
ATOM     36  H   UNL     1      -2.663  -4.533  -3.936  0.00  0.00    +0.145 HD
ATOM     37  H   UNL     1      -1.772  -5.761  -4.659  0.00  0.00    +0.145 HD
ENDBRANCH  32  33
ENDBRANCH  10  32
TORSDOF 4
