REMARK  Name = ZINC00752451
REMARK  8 active torsions:
REMARK  status: ('A' for Active; 'I' for Inactive)
REMARK    1  A    between atoms: C_1  and  C_2
REMARK    2  A    between atoms: C_2  and  O_3
REMARK    3  A    between atoms: O_3  and  C_4
REMARK    4  A    between atoms: C_4  and  C_6
REMARK    5  A    between atoms: C_7  and  C_24
REMARK    6  A    between atoms: C_9  and  N_23
REMARK    7  A    between atoms: C_10  and  C_21
REMARK    8  A    between atoms: C_11  and  C_13
REMARK                            x       y       z     vdW  Elec       q    Type
REMARK                         _______ _______ _______ _____ _____    ______ ____
ROOT
ATOM      1  C   UNL     1      -1.606   3.874   2.401  0.00  0.00    +0.087 C 
ATOM      2  C   UNL     1      -1.454   5.172   2.690  0.00  0.00    +0.115 C 
ATOM      3  O   UNL     1      -1.891   5.706   3.840  0.00  0.00    -0.445 OA
ATOM      4  C   UNL     1      -2.148   4.900   4.885  0.00  0.00    +0.198 C 
ATOM      5  C   UNL     1      -2.346   3.569   4.729  0.00  0.00    +0.098 C 
ATOM      6  C   UNL     1      -2.288   2.938   3.362  0.00  0.00    +0.106 C 
ATOM      7  C   UNL     1      -0.767   6.065   1.689  0.00  0.00    +0.087 C 
ENDROOT
BRANCH   6   8
ATOM      8  C   UNL     1      -3.686   2.652   2.877  0.00  0.00    -0.016 A 
ATOM      9  C   UNL     1      -4.590   3.687   2.726  0.00  0.00    +0.007 A 
ATOM     10  C   UNL     1      -5.870   3.427   2.275  0.00  0.00    +0.020 A 
ATOM     11  C   UNL     1      -6.251   2.128   1.986  0.00  0.00    +0.042 A 
ATOM     12  C   UNL     1      -5.349   1.092   2.142  0.00  0.00    +0.040 A 
ATOM     13  C   UNL     1      -4.066   1.354   2.588  0.00  0.00    +0.046 A 
ATOM     14 CL   UNL     1      -2.932   0.054   2.785  0.00  0.00    -0.083 Cl
ATOM     15 CL   UNL     1      -7.862   1.800   1.426  0.00  0.00    -0.083 Cl
ENDBRANCH   6   8
BRANCH   4  16
ATOM     16  N   UNL     1      -2.212   5.441   6.145  0.00  0.00    -0.328 N 
ATOM     17  H   UNL     1      -2.072   6.393   6.272  0.00  0.00    +0.145 HD
ATOM     18  H   UNL     1      -2.397   4.872   6.909  0.00  0.00    +0.145 HD
ENDBRANCH   4  16
BRANCH   1  19
ATOM     19  C   UNL     1      -1.123   3.374   1.167  0.00  0.00    +0.339 C 
ATOM     20  O   UNL     1      -0.115   2.692   1.140  0.00  0.00    -0.245 OA
BRANCH  19  21
ATOM     21  O   UNL     1      -1.779   3.654   0.022  0.00  0.00    -0.462 OA
BRANCH  21  23
ATOM     22  C   UNL     1      -2.108   3.537  -2.369  0.00  0.00    +0.048 C 
ATOM     23  C   UNL     1      -1.235   3.117  -1.185  0.00  0.00    +0.229 C 
ENDBRANCH  21  23
ENDBRANCH  19  21
ENDBRANCH   1  19
BRANCH   5  24
ATOM     24  C   UNL     1      -2.619   2.755   5.875  0.00  0.00    +0.101 C 
ATOM     25  N   UNL     1      -2.836   2.109   6.784  0.00  0.00    -0.191 NA
ENDBRANCH   5  24
TORSDOF 6
