REMARK  Name = ZINC26967851
REMARK  9 active torsions:
REMARK  status: ('A' for Active; 'I' for Inactive)
REMARK    1  A    between atoms: C_1  and  C_2
REMARK    2  A    between atoms: C_2  and  O_3
REMARK    3  A    between atoms: O_3  and  C_4
REMARK    4  A    between atoms: C_9  and  N_10
REMARK    5  A    between atoms: C_11  and  C_13
REMARK    6  A    between atoms: C_13  and  C_14
REMARK    7  A    between atoms: N_25  and  S_26
REMARK    8  A    between atoms: S_26  and  C_29
REMARK    9  A    between atoms: C_33  and  N_35
REMARK                            x       y       z     vdW  Elec       q    Type
REMARK                         _______ _______ _______ _____ _____    ______ ____
ROOT
ATOM      1  C   UNL     1      -5.746  -0.323   2.591  0.00  0.00    +0.192 C 
ATOM      2  C   UNL     1      -6.848  -0.538   3.590  0.00  0.00    +0.240 C 
ATOM      3  O   UNL     1      -7.003  -1.636   4.083  0.00  0.00    -0.273 OA
ATOM      4  N   UNL     1      -7.667   0.471   3.943  0.00  0.00    -0.282 N 
ATOM      5  C   UNL     1      -7.540   1.733   3.352  0.00  0.00    +0.056 A 
ATOM      6  C   UNL     1      -8.172   2.838   3.898  0.00  0.00    +0.025 A 
ATOM      7  C   UNL     1      -8.042   4.075   3.293  0.00  0.00    +0.002 A 
ATOM      8  C   UNL     1      -7.285   4.215   2.144  0.00  0.00    +0.002 A 
ATOM      9  C   UNL     1      -6.649   3.118   1.593  0.00  0.00    +0.026 A 
ATOM     10  C   UNL     1      -6.773   1.878   2.194  0.00  0.00    +0.073 A 
ATOM     11  N   UNL     1      -6.137   0.748   1.662  0.00  0.00    -0.189 N 
ATOM     12  H   UNL     1      -8.446   0.307   4.702  0.00  0.00    +0.155 HD
ENDROOT
BRANCH  11  13
ATOM     13  S   UNL     1      -5.842   0.620   0.037  0.00  0.00    +0.075 S 
ATOM     14  O   UNL     1      -6.708   1.544  -0.607  0.00  0.00    -0.150 OA
ATOM     15  O   UNL     1      -5.847  -0.768  -0.268  0.00  0.00    -0.150 OA
BRANCH  13  16
ATOM     16  C   UNL     1      -4.199   1.191  -0.240  0.00  0.00    +0.111 A 
ATOM     17  C   UNL     1      -3.968   2.526  -0.518  0.00  0.00    +0.029 A 
ATOM     18  C   UNL     1      -2.679   2.974  -0.735  0.00  0.00    +0.004 A 
ATOM     19  C   UNL     1      -1.619   2.088  -0.671  0.00  0.00    +0.033 A 
ATOM     20  C   UNL     1      -1.850   0.752  -0.400  0.00  0.00    +0.128 A 
ATOM     21  C   UNL     1      -3.140   0.304  -0.182  0.00  0.00    +0.061 A 
BRANCH  20  22
ATOM     22  N   UNL     1      -0.716  -0.197  -0.336  0.00  0.00    +0.056 N 
ATOM     23  O   UNL     1      -0.907  -1.352   0.001  0.00  0.00    -0.126 OA
ATOM     24  O   UNL     1       0.407   0.175  -0.626  0.00  0.00    -0.126 OA
ENDBRANCH  20  22
ENDBRANCH  13  16
ENDBRANCH  11  13
BRANCH   1  25
ATOM     25  C   UNL     1      -4.466   0.080   3.326  0.00  0.00    +0.129 C 
BRANCH  25  27
ATOM     26  N   UNL     1      -2.918  -0.923   4.974  0.00  0.00    -0.283 N 
ATOM     27  C   UNL     1      -3.974  -1.081   4.152  0.00  0.00    +0.220 C 
ATOM     28  O   UNL     1      -4.529  -2.157   4.076  0.00  0.00    -0.275 OA
ATOM     29  H   UNL     1      -2.469   0.072   5.109  0.00  0.00    +0.155 HD
BRANCH  26  35
ATOM     30  C   UNL     1      -1.595  -1.836   6.784  0.00  0.00    +0.142 A 
ATOM     31  C   UNL     1      -1.077  -2.932   7.456  0.00  0.00    +0.047 A 
ATOM     32  C   UNL     1      -1.352  -4.211   7.009  0.00  0.00    +0.004 A 
ATOM     33  C   UNL     1      -2.144  -4.401   5.891  0.00  0.00    +0.002 A 
ATOM     34  C   UNL     1      -2.668  -3.314   5.219  0.00  0.00    +0.027 A 
ATOM     35  C   UNL     1      -2.392  -2.027   5.658  0.00  0.00    +0.076 A 
BRANCH  30  36
ATOM     36  O   UNL     1      -1.325  -0.578   7.223  0.00  0.00    -0.490 OA
BRANCH  36  38
ATOM     37  C   UNL     1      -0.310   1.021   8.723  0.00  0.00    +0.048 C 
ATOM     38  C   UNL     1      -0.501  -0.458   8.384  0.00  0.00    +0.226 C 
ENDBRANCH  36  38
ENDBRANCH  30  36
ENDBRANCH  26  35
ENDBRANCH  25  27
ENDBRANCH   1  25
TORSDOF 8
