REMARK  Name = ZINC39674308
REMARK  13 active torsions:
REMARK  status: ('A' for Active; 'I' for Inactive)
REMARK    1  A    between atoms: C_1  and  C_2
REMARK    2  A    between atoms: C_4  and  C_9
REMARK    3  A    between atoms: C_5  and  C_8
REMARK    4  A    between atoms: C_9  and  C_11
REMARK    5  A    between atoms: C_9  and  N_12
REMARK    6  A    between atoms: C_13  and  C_15
REMARK    7  A    between atoms: C_26  and  C_28
REMARK    8  A    between atoms: C_30  and  O_38
REMARK    9  A    between atoms: C_31  and  O_36
REMARK   10  A    between atoms: C_32  and  O_34
REMARK   11  A    between atoms: O_34  and  C_35
REMARK   12  A    between atoms: O_36  and  C_37
REMARK   13  A    between atoms: O_38  and  C_39
REMARK                            x       y       z     vdW  Elec       q    Type
REMARK                         _______ _______ _______ _____ _____    ______ ____
ROOT
ATOM      1  C   UNL     1      -4.084   2.765  -1.227  0.00  0.00    +0.100 C 
ATOM      2  C   UNL     1      -3.666   3.837  -0.196  0.00  0.00    +0.121 C 
ATOM      3  N   UNL     1      -4.756   4.840  -0.236  0.00  0.00    -0.296 N 
ATOM      4  C   UNL     1      -5.994   4.034  -0.369  0.00  0.00    +0.115 C 
ATOM      5  C   UNL     1      -5.612   2.897  -1.338  0.00  0.00    -0.004 C 
ATOM      6  C   UNL     1      -6.009   3.264  -2.764  0.00  0.00    -0.010 C 
ATOM      7  C   UNL     1      -7.535   3.333  -2.862  0.00  0.00    -0.082 C 
ATOM      8  N   UNL     1      -8.111   2.035  -2.491  0.00  0.00    +0.379 N 
ATOM      9  C   UNL     1      -7.802   1.733  -1.088  0.00  0.00    -0.082 C 
ATOM     10  C   UNL     1      -6.287   1.596  -0.915  0.00  0.00    -0.010 C 
ATOM     11  C   UNL     1      -4.648   6.181  -0.167  0.00  0.00    +0.247 C 
ATOM     12  O   UNL     1      -3.550   6.703  -0.159  0.00  0.00    -0.270 OA
ATOM     13  H   UNL     1      -9.112   2.065  -2.615  0.00  0.00    -0.086 HD
ATOM     14  H   UNL     1      -7.723   1.315  -3.082  0.00  0.00    -0.086 HD
ENDROOT
BRANCH  11  15
ATOM     15  C   UNL     1      -5.862   7.018  -0.102  0.00  0.00    +0.044 A 
ATOM     16  C   UNL     1      -7.066   6.470   0.347  0.00  0.00    +0.062 A 
ATOM     17  C   UNL     1      -8.202   7.255   0.407  0.00  0.00    +0.166 A 
ATOM     18  C   UNL     1      -8.147   8.592   0.021  0.00  0.00    +0.204 A 
ATOM     19  C   UNL     1      -6.949   9.140  -0.428  0.00  0.00    +0.166 A 
ATOM     20  C   UNL     1      -5.809   8.361  -0.484  0.00  0.00    +0.062 A 
BRANCH  19  21
ATOM     21  O   UNL     1      -6.898  10.446  -0.805  0.00  0.00    -0.491 OA
ATOM     22  C   UNL     1      -5.636  10.943  -1.255  0.00  0.00    +0.277 C 
ENDBRANCH  19  21
BRANCH  18  23
ATOM     23  O   UNL     1      -9.265   9.362   0.081  0.00  0.00    -0.488 OA
ATOM     24  C   UNL     1      -9.506  10.062   1.303  0.00  0.00    +0.277 C 
ENDBRANCH  18  23
BRANCH  17  25
ATOM     25  O   UNL     1      -9.374   6.722   0.845  0.00  0.00    -0.491 OA
ATOM     26  C   UNL     1      -9.359   5.345   1.225  0.00  0.00    +0.277 C 
ENDBRANCH  17  25
ENDBRANCH  11  15
BRANCH   1  28
ATOM     27  N   UNL     1      -3.444   0.408  -1.619  0.00  0.00    -0.309 N 
ATOM     28  C   UNL     1      -3.710   1.390  -0.736  0.00  0.00    +0.219 C 
ATOM     29  O   UNL     1      -3.649   1.168   0.455  0.00  0.00    -0.275 OA
ATOM     30  H   UNL     1      -3.493   0.586  -2.571  0.00  0.00    +0.149 HD
BRANCH  27  31
ATOM     31  C   UNL     1      -3.080  -0.928  -1.141  0.00  0.00    +0.100 C 
ATOM     32  C   UNL     1      -4.351  -1.717  -0.817  0.00  0.00    +0.033 C 
BRANCH  31  35
ATOM     33  C   UNL     1      -3.045  -0.718  -4.416  0.00  0.00    +0.039 C 
ATOM     34  C   UNL     1      -2.742  -1.990  -3.622  0.00  0.00    +0.154 C 
ATOM     35  C   UNL     1      -2.300  -1.649  -2.210  0.00  0.00    -0.001 C 
ATOM     36  C   UNL     1      -1.060  -2.136  -2.135  0.00  0.00    +0.063 C 
ATOM     37  N   UNL     1      -0.701  -2.718  -3.301  0.00  0.00    -0.159 NA
ATOM     38  N   UNL     1      -1.571  -2.686  -4.181  0.00  0.00    -0.180 NA
ATOM     39  C   UNL     1      -0.178  -2.050  -0.916  0.00  0.00    +0.067 C 
ENDBRANCH  31  35
ENDBRANCH  27  31
ENDBRANCH   1  28
TORSDOF 7
