REMARK  Name = ZINC10435175
REMARK  10 active torsions:
REMARK  status: ('A' for Active; 'I' for Inactive)
REMARK    1  A    between atoms: C_1  and  O_2
REMARK    2  A    between atoms: O_2  and  C_3
REMARK    3  A    between atoms: C_7  and  C_19
REMARK    4  A    between atoms: C_8  and  O_9
REMARK    5  A    between atoms: O_9  and  C_10
REMARK    6  A    between atoms: C_10  and  C_11
REMARK    7  A    between atoms: C_19  and  N_61
REMARK    8  A    between atoms: C_20  and  N_61
REMARK    9  A    between atoms: C_25  and  C_26
REMARK   10  A    between atoms: C_25  and  N_64
REMARK                            x       y       z     vdW  Elec       q    Type
REMARK                         _______ _______ _______ _____ _____    ______ ____
ROOT
ATOM      1  C   UNL     1      -0.009   1.346  -0.360  0.00  0.00    +0.162 A 
ATOM      2  C   UNL     1      -0.019   0.011   0.011  0.00  0.00    +0.049 A 
ATOM      3  C   UNL     1       1.161  -0.616   0.366  0.00  0.00    +0.004 A 
ATOM      4  C   UNL     1       2.352   0.086   0.353  0.00  0.00    +0.005 A 
ATOM      5  C   UNL     1       2.368   1.418  -0.016  0.00  0.00    -0.019 A 
ATOM      6  C   UNL     1       1.190   2.053  -0.373  0.00  0.00    +0.164 A 
ENDROOT
BRANCH   1   8
ATOM      7  C   UNL     1      -2.361   1.177  -0.672  0.00  0.00    +0.277 C 
ATOM      8  O   UNL     1      -1.169   1.965  -0.709  0.00  0.00    -0.491 OA
ENDBRANCH   1   8
BRANCH   6   9
ATOM      9  O   UNL     1       1.204   3.363  -0.737  0.00  0.00    -0.483 OA
BRANCH   9  10
ATOM     10  C   UNL     1       0.909   4.322   0.281  0.00  0.00    +0.266 C 
BRANCH  10  11
ATOM     11  C   UNL     1       1.084   5.713  -0.273  0.00  0.00    +0.008 A 
ATOM     12  C   UNL     1       1.477   5.889  -1.587  0.00  0.00    +0.010 A 
ATOM     13  C   UNL     1       1.638   7.163  -2.095  0.00  0.00    +0.020 A 
ATOM     14  C   UNL     1       1.406   8.265  -1.290  0.00  0.00    +0.042 A 
ATOM     15  C   UNL     1       1.014   8.089   0.025  0.00  0.00    +0.040 A 
ATOM     16  C   UNL     1       0.848   6.812   0.532  0.00  0.00    +0.049 A 
ATOM     17 CL   UNL     1       0.348   6.591   2.180  0.00  0.00    -0.083 Cl
ATOM     18 CL   UNL     1       1.609   9.866  -1.929  0.00  0.00    -0.083 Cl
ENDBRANCH  10  11
ENDBRANCH   9  10
ENDBRANCH   6   9
BRANCH   5  19
ATOM     19  C   UNL     1       3.668   2.180  -0.030  0.00  0.00    -0.043 C 
BRANCH  19  20
ATOM     20  N   UNL     1       4.128   2.326  -1.424  0.00  0.00    +0.384 N 
ATOM     21  H   UNL     1       3.457   2.905  -1.943  0.00  0.00    -0.085 HD
ATOM     22  H   UNL     1       4.189   1.399  -1.860  0.00  0.00    -0.085 HD
BRANCH  20  23
ATOM     23  C   UNL     1       5.455   2.969  -1.461  0.00  0.00    -0.075 C 
ATOM     24  C   UNL     1       5.288   4.491  -1.431  0.00  0.00    -0.034 C 
ATOM     25  C   UNL     1       6.664   5.153  -1.540  0.00  0.00    -0.080 C 
ATOM     26  C   UNL     1       7.524   3.285  -2.823  0.00  0.00    -0.080 C 
ATOM     27  C   UNL     1       6.174   2.568  -2.752  0.00  0.00    -0.034 C 
ATOM     28  N   UNL     1       7.293   4.746  -2.814  0.00  0.00    +0.382 N 
ATOM     29  H   UNL     1       6.663   4.987  -3.588  0.00  0.00    -0.081 HD
BRANCH  28  30
ATOM     30  C   UNL     1       8.573   5.460  -2.996  0.00  0.00    -0.043 C 
BRANCH  30  31
ATOM     31  C   UNL     1       8.286   6.925  -3.203  0.00  0.00    -0.064 A 
ATOM     32  C   UNL     1       8.073   7.415  -4.478  0.00  0.00    +0.002 A 
ATOM     33  C   UNL     1       7.804   8.757  -4.667  0.00  0.00    +0.000 A 
ATOM     34  C   UNL     1       7.759   9.613  -3.582  0.00  0.00    +0.000 A 
ATOM     35  C   UNL     1       7.978   9.124  -2.308  0.00  0.00    +0.000 A 
ATOM     36  C   UNL     1       8.241   7.780  -2.118  0.00  0.00    +0.002 A 
ENDBRANCH  30  31
ENDBRANCH  28  30
ENDBRANCH  20  23
ENDBRANCH  19  20
ENDBRANCH   5  19
TORSDOF 9
