REMARK  Name = ZINC15276463
REMARK  6 active torsions:
REMARK  status: ('A' for Active; 'I' for Inactive)
REMARK    1  A    between atoms: C_3  and  C_6
REMARK    2  A    between atoms: C_8  and  C_31
REMARK    3  A    between atoms: C_13  and  C_15
REMARK    4  A    between atoms: C_15  and  O_17
REMARK    5  A    between atoms: O_17  and  C_18
REMARK    6  A    between atoms: C_18  and  C_19
REMARK                            x       y       z     vdW  Elec       q    Type
REMARK                         _______ _______ _______ _____ _____    ______ ____
ROOT
ATOM      1  C   UNL     1       1.112   2.026   0.002  0.00  0.00    +0.082 A 
ATOM      2  C   UNL     1       2.357   1.350  -0.013  0.00  0.00    +0.061 A 
ATOM      3  C   UNL     1       2.377   0.001  -0.021  0.00  0.00    +0.149 A 
ATOM      4  N   UNL     1       1.193  -0.688  -0.013  0.00  0.00    -0.208 N 
ATOM      5  C   UNL     1       0.002  -0.004   0.002  0.00  0.00    +0.176 A 
ATOM      6  N   UNL     1      -0.016   1.335   0.009  0.00  0.00    -0.226 NA
ATOM      7  C   UNL     1      -1.013  -0.950   0.007  0.00  0.00    +0.119 A 
ATOM      8  C   UNL     1      -0.412  -2.215  -0.005  0.00  0.00    +0.190 A 
ATOM      9  N   UNL     1       0.903  -2.058  -0.017  0.00  0.00    -0.156 NA
ATOM     10 CL   UNL     1      -2.719  -0.625   0.026  0.00  0.00    -0.077 Cl
ENDROOT
BRANCH   1  13
ATOM     11  C   UNL     1       0.197   5.694   0.031  0.00  0.00    +0.008 A 
ATOM     12  C   UNL     1      -0.014   4.336   0.020  0.00  0.00    +0.017 A 
ATOM     13  C   UNL     1       1.073   3.499   0.011  0.00  0.00    +0.038 A 
ATOM     14  S   UNL     1       2.430   4.660   0.003  0.00  0.00    -0.095 S 
ATOM     15  C   UNL     1       1.472   6.167   0.021  0.00  0.00    +0.046 A 
ENDBRANCH   1  13
BRANCH   3  16
ATOM     16  C   UNL     1       3.689  -0.741  -0.038  0.00  0.00    +0.434 C 
ATOM     17  F   UNL     1       4.082  -0.963  -1.362  0.00  0.00    -0.164 F 
ATOM     18  F   UNL     1       4.664   0.020   0.617  0.00  0.00    -0.164 F 
ATOM     19  F   UNL     1       3.539  -1.968   0.616  0.00  0.00    -0.164 F 
ENDBRANCH   3  16
BRANCH   8  20
ATOM     20  C   UNL     1      -1.126  -3.508  -0.005  0.00  0.00    +0.361 C 
ATOM     21  O   UNL     1      -2.340  -3.532   0.007  0.00  0.00    -0.243 OA
BRANCH  20  22
ATOM     22  O   UNL     1      -0.429  -4.661  -0.018  0.00  0.00    -0.460 OA
BRANCH  22  23
ATOM     23  C   UNL     1      -1.196  -5.894  -0.017  0.00  0.00    +0.234 C 
BRANCH  23  24
ATOM     24  C   UNL     1      -0.241  -7.089  -0.033  0.00  0.00    +0.013 C 
ATOM     25  C   UNL     1       0.569  -7.110   1.265  0.00  0.00    +0.003 C 
ATOM     26  C   UNL     1      -0.393  -7.282   2.443  0.00  0.00    -0.018 C 
ATOM     27  C   UNL     1      -1.172  -8.584   2.257  0.00  0.00    -0.078 C 
ATOM     28  C   UNL     1      -1.048  -8.385  -0.161  0.00  0.00    -0.062 C 
ATOM     29  C   UNL     1      -1.877  -8.303  -1.447  0.00  0.00    -0.015 C 
ATOM     30  C   UNL     1      -2.735  -9.561  -1.593  0.00  0.00    -0.003 C 
ATOM     31  C   UNL     1      -3.636  -9.686  -0.359  0.00  0.00    -0.019 C 
ATOM     32  C   UNL     1      -2.756  -9.758   0.888  0.00  0.00    -0.078 C 
ATOM     33  N   UNL     1      -1.952  -8.527   1.008  0.00  0.00    +0.382 N 
ATOM     34  H   UNL     1      -2.581  -7.717   1.042  0.00  0.00    -0.081 HD
ENDBRANCH  23  24
ENDBRANCH  22  23
ENDBRANCH  20  22
ENDBRANCH   8  20
TORSDOF 6
