REMARK  Name = ZINC06443513
REMARK  13 active torsions:
REMARK  status: ('A' for Active; 'I' for Inactive)
REMARK    1  A    between atoms: C_1  and  C_2
REMARK    2  A    between atoms: C_12  and  C_14
REMARK    3  A    between atoms: C_14  and  N_15
REMARK    4  A    between atoms: N_15  and  C_16
REMARK    5  A    between atoms: N_15  and  C_26
REMARK    6  A    between atoms: C_16  and  C_17
REMARK    7  A    between atoms: C_26  and  N_28
REMARK    8  A    between atoms: N_28  and  C_29
REMARK    9  A    between atoms: C_29  and  C_30
REMARK   10  A    between atoms: C_30  and  C_31
REMARK   11  A    between atoms: C_31  and  N_63
REMARK   12  A    between atoms: C_32  and  N_63
REMARK   13  A    between atoms: C_33  and  N_63
REMARK                            x       y       z     vdW  Elec       q    Type
REMARK                         _______ _______ _______ _____ _____    ______ ____
ROOT
ATOM      1  N   UNL     1      -2.836   0.558   1.305  0.00  0.00    -0.304 N 
ENDROOT
BRANCH   1   2
ATOM      2  C   UNL     1      -3.565   1.529   1.891  0.00  0.00    +0.133 C 
ATOM      3  S   UNL     1      -3.840   1.492   3.580  0.00  0.00    -0.019 S 
BRANCH   2   4
ATOM      4  N   UNL     1      -4.078   2.529   1.147  0.00  0.00    -0.326 N 
ATOM      5  H   UNL     1      -3.922   2.550   0.190  0.00  0.00    +0.148 HD
BRANCH   4   6
ATOM      6  C   UNL     1      -4.870   3.584   1.784  0.00  0.00    +0.101 C 
BRANCH   6   7
ATOM      7  C   UNL     1      -5.330   4.587   0.724  0.00  0.00    +0.000 C 
BRANCH   7   8
ATOM      8  C   UNL     1      -6.157   5.689   1.389  0.00  0.00    -0.078 C 
BRANCH   8  11
ATOM      9  C   UNL     1      -7.538   6.029  -0.571  0.00  0.00    -0.097 C 
ATOM     10  C   UNL     1      -7.189   7.843   0.994  0.00  0.00    -0.097 C 
ATOM     11  N   UNL     1      -6.575   6.660   0.356  0.00  0.00    +0.376 N 
ATOM     12  H   UNL     1      -5.748   6.959  -0.175  0.00  0.00    -0.083 HD
ENDBRANCH   8  11
ENDBRANCH   7   8
ENDBRANCH   6   7
ENDBRANCH   4   6
ENDBRANCH   2   4
ENDBRANCH   1   2
BRANCH   1  13
ATOM     13  C   UNL     1      -2.347  -0.571   2.100  0.00  0.00    +0.147 C 
BRANCH  13  25
ATOM     14  C   UNL     1      -7.240  -4.931   2.596  0.00  0.00    +0.046 C 
ATOM     15  C   UNL     1      -6.030  -4.891   1.700  0.00  0.00    -0.026 A 
ATOM     16  C   UNL     1      -5.814  -5.899   0.784  0.00  0.00    +0.005 A 
ATOM     17  C   UNL     1      -4.703  -5.874  -0.048  0.00  0.00    +0.001 A 
ATOM     18  C   UNL     1      -3.802  -4.849   0.026  0.00  0.00    +0.010 A 
ATOM     19  C   UNL     1      -4.001  -3.816   0.948  0.00  0.00    -0.001 A 
ATOM     20  C   UNL     1      -5.126  -3.838   1.793  0.00  0.00    +0.052 A 
ATOM     21  N   UNL     1      -5.317  -2.818   2.700  0.00  0.00    -0.322 N 
ATOM     22  H   UNL     1      -6.093  -2.834   3.282  0.00  0.00    +0.169 HD
ATOM     23  C   UNL     1      -4.444  -1.800   2.790  0.00  0.00    +0.254 A 
ATOM     24  O   UNL     1      -4.644  -0.914   3.603  0.00  0.00    -0.268 OA
ATOM     25  C   UNL     1      -3.300  -1.730   1.966  0.00  0.00    +0.035 A 
ATOM     26  C   UNL     1      -3.058  -2.701   1.050  0.00  0.00    +0.020 A 
ENDBRANCH  13  25
ENDBRANCH   1  13
BRANCH   1  27
ATOM     27  C   UNL     1      -2.534   0.632  -0.126  0.00  0.00    +0.142 C 
BRANCH  27  28
ATOM     28  C   UNL     1      -1.273   1.432  -0.333  0.00  0.00    -0.026 A 
ATOM     29  C   UNL     1      -0.040   0.817  -0.224  0.00  0.00    +0.009 A 
ATOM     30  C   UNL     1       1.119   1.545  -0.418  0.00  0.00    +0.050 A 
ATOM     31  C   UNL     1       1.046   2.896  -0.717  0.00  0.00    +0.166 A 
ATOM     32  C   UNL     1      -0.196   3.518  -0.821  0.00  0.00    +0.167 A 
ATOM     33  C   UNL     1      -1.353   2.781  -0.624  0.00  0.00    +0.054 A 
ATOM     34  O   UNL     1      -0.001   4.835  -1.119  0.00  0.00    -0.453 OA
ATOM     35  C   UNL     1       1.354   4.925  -1.599  0.00  0.00    +0.466 C 
ATOM     36  O   UNL     1       2.019   3.825  -0.951  0.00  0.00    -0.453 OA
ENDBRANCH  27  28
ENDBRANCH   1  27
TORSDOF 10
