REMARK  Name = ZINC17172389
REMARK  3 active torsions:
REMARK  status: ('A' for Active; 'I' for Inactive)
REMARK    1  A    between atoms: C_4  and  C_7
REMARK    2  A    between atoms: N_14  and  N_17
REMARK    3  A    between atoms: C_18  and  C_20
REMARK                            x       y       z     vdW  Elec       q    Type
REMARK                         _______ _______ _______ _____ _____    ______ ____
ROOT
ATOM      1  C   UNL     1      -8.992   4.963   2.323  0.00  0.00    +0.004 A 
ATOM      2  C   UNL     1     -10.302   4.709   2.087  0.00  0.00    +0.056 A 
ATOM      3  S   UNL     1     -10.330   4.253   0.365  0.00  0.00    -0.076 S 
ATOM      4  C   UNL     1      -8.600   4.411   0.005  0.00  0.00    +0.116 A 
ATOM      5  C   UNL     1      -8.041   4.814   1.228  0.00  0.00    +0.081 A 
ATOM      6  C   UNL     1      -6.624   5.020   1.225  0.00  0.00    +0.280 A 
ATOM      7  O   UNL     1      -6.047   5.371   2.240  0.00  0.00    -0.265 OA
ATOM      8  N   UNL     1      -5.939   4.820   0.084  0.00  0.00    -0.212 N 
ATOM      9  C   UNL     1      -6.566   4.434  -1.057  0.00  0.00    +0.223 A 
ATOM     10  N   UNL     1      -7.856   4.233  -1.084  0.00  0.00    -0.228 NA
ENDROOT
BRANCH   1  14
ATOM     11  C   UNL     1      -7.680   6.170   6.182  0.00  0.00    +0.000 A 
ATOM     12  C   UNL     1      -8.747   6.816   5.584  0.00  0.00    +0.001 A 
ATOM     13  C   UNL     1      -9.177   6.429   4.332  0.00  0.00    +0.008 A 
ATOM     14  C   UNL     1      -8.534   5.384   3.669  0.00  0.00    -0.017 A 
ATOM     15  C   UNL     1      -7.463   4.733   4.279  0.00  0.00    +0.008 A 
ATOM     16  C   UNL     1      -7.038   5.133   5.530  0.00  0.00    +0.001 A 
ENDBRANCH   1  14
BRANCH   8  17
ATOM     17  N   UNL     1      -4.552   5.019   0.072  0.00  0.00    -0.214 N 
ATOM     18  C   UNL     1      -3.719   3.959   0.057  0.00  0.00    +0.283 C 
ATOM     19  O   UNL     1      -4.172   2.830   0.055  0.00  0.00    -0.267 OA
ATOM     20  H   UNL     1      -4.191   5.919   0.074  0.00  0.00    +0.176 HD
BRANCH  18  21
ATOM     21  C   UNL     1      -2.260   4.168   0.045  0.00  0.00    +0.156 A 
ATOM     22  C   UNL     1      -1.222   3.130   0.030  0.00  0.00    +0.032 A 
ATOM     23  C   UNL     1      -1.209   1.738   0.017  0.00  0.00    +0.012 A 
ATOM     24  C   UNL     1      -0.013   1.076   0.008  0.00  0.00    +0.001 A 
ATOM     25  C   UNL     1       1.184   1.781   0.000  0.00  0.00    +0.002 A 
ATOM     26  C   UNL     1       1.193   3.148   0.008  0.00  0.00    +0.028 A 
ATOM     27  C   UNL     1      -0.010   3.847   0.022  0.00  0.00    +0.066 A 
ATOM     28  N   UNL     1      -0.354   5.173   0.033  0.00  0.00    -0.276 N 
ATOM     29  H   UNL     1       0.302   5.927   0.031  0.00  0.00    +0.189 HD
ATOM     30  N   UNL     1      -1.629   5.323   0.045  0.00  0.00    -0.168 NA
ENDBRANCH  18  21
ENDBRANCH   8  17
TORSDOF 3
