REMARK  Name = ZINC58850060
REMARK  4 active torsions:
REMARK  status: ('A' for Active; 'I' for Inactive)
REMARK    1  A    between atoms: C_10  and  N_11
REMARK    2  A    between atoms: N_11  and  S_12
REMARK    3  A    between atoms: S_12  and  C_15
REMARK    4  A    between atoms: C_28  and  C_31
REMARK                            x       y       z     vdW  Elec       q    Type
REMARK                         _______ _______ _______ _____ _____    ______ ____
ROOT
ATOM      1  C   UNL     1       5.911  -0.527  -2.513  0.00  0.00    +0.109 A 
ATOM      2  C   UNL     1       5.308  -1.614  -3.119  0.00  0.00    +0.030 A 
ATOM      3  C   UNL     1       5.082  -1.601  -4.480  0.00  0.00    +0.025 A 
ATOM      4  C   UNL     1       5.457  -0.499  -5.240  0.00  0.00    +0.031 A 
ATOM      5  C   UNL     1       6.051   0.597  -4.633  0.00  0.00    -0.018 A 
ATOM      6  C   UNL     1       6.276   0.572  -3.264  0.00  0.00    +0.034 A 
ATOM      7  C   UNL     1       6.431   1.813  -5.408  0.00  0.00    +0.049 C 
ATOM      8  C   UNL     1       7.917   1.888  -5.653  0.00  0.00    -0.023 C 
ATOM      9  C   UNL     1       8.156   2.398  -6.835  0.00  0.00    -0.030 C 
ATOM     10  C   UNL     1       6.865   2.730  -7.551  0.00  0.00    +0.033 C 
ATOM     11  C   UNL     1       5.799   1.903  -6.795  0.00  0.00    +0.029 C 
ATOM     12  C   UNL     1       5.660   0.565  -7.491  0.00  0.00    +0.105 C 
ATOM     13  N   UNL     1       5.241  -0.509  -6.613  0.00  0.00    -0.336 N 
ATOM     14  H   UNL     1       4.808  -1.283  -7.005  0.00  0.00    +0.147 HD
ENDROOT
BRANCH  12  15
ATOM     15  C   UNL     1       6.981   0.214  -8.125  0.00  0.00    -0.027 A 
ATOM     16  C   UNL     1       7.996  -0.323  -7.355  0.00  0.00    +0.008 A 
ATOM     17  C   UNL     1       9.208  -0.645  -7.936  0.00  0.00    +0.038 A 
ATOM     18  C   UNL     1       9.405  -0.429  -9.289  0.00  0.00    +0.123 A 
ATOM     19  C   UNL     1       8.388   0.108 -10.059  0.00  0.00    +0.038 A 
ATOM     20  C   UNL     1       7.175   0.425  -9.477  0.00  0.00    +0.008 A 
ATOM     21  F   UNL     1      10.590  -0.744  -9.858  0.00  0.00    -0.205 F 
ENDBRANCH  12  15
BRANCH   1  22
ATOM     22  S   UNL     1       6.210  -0.543  -0.776  0.00  0.00    +0.072 S 
ATOM     23  O   UNL     1       7.275   0.367  -0.539  0.00  0.00    -0.150 OA
ATOM     24  O   UNL     1       6.273  -1.908  -0.388  0.00  0.00    -0.150 OA
BRANCH  22  25
ATOM     25  N   UNL     1       4.869   0.096  -0.044  0.00  0.00    -0.216 N 
ATOM     26  H   UNL     1       4.948   0.897   0.497  0.00  0.00    +0.174 HD
BRANCH  25  36
ATOM     27  C   UNL     1       0.118   1.747  -0.448  0.00  0.00    +0.001 A 
ATOM     28  C   UNL     1       1.349   2.381  -0.287  0.00  0.00    +0.001 A 
ATOM     29  C   UNL     1       2.502   1.662  -0.206  0.00  0.00    +0.010 A 
ATOM     30  C   UNL     1       2.454   0.261  -0.285  0.00  0.00    +0.004 A 
ATOM     31  C   UNL     1       1.204  -0.384  -0.448  0.00  0.00    -0.016 A 
ATOM     32  C   UNL     1       0.034   0.391  -0.528  0.00  0.00    +0.008 A 
ATOM     33  C   UNL     1       1.154  -1.786  -0.527  0.00  0.00    +0.008 A 
ATOM     34  C   UNL     1       2.303  -2.513  -0.445  0.00  0.00    +0.002 A 
ATOM     35  C   UNL     1       3.537  -1.891  -0.284  0.00  0.00    +0.025 A 
ATOM     36  C   UNL     1       3.629  -0.517  -0.204  0.00  0.00    +0.056 A 
ENDBRANCH  25  36
ENDBRANCH  22  25
ENDBRANCH   1  22
TORSDOF 4
