REMARK  Name = ZINC34806569
REMARK  6 active torsions:
REMARK  status: ('A' for Active; 'I' for Inactive)
REMARK    1  A    between atoms: C_1  and  C_2
REMARK    2  A    between atoms: C_2  and  N_3
REMARK    3  A    between atoms: C_20  and  C_28
REMARK    4  A    between atoms: C_21  and  N_27
REMARK    5  A    between atoms: C_22  and  C_23
REMARK    6  A    between atoms: C_22  and  C_25
REMARK                            x       y       z     vdW  Elec       q    Type
REMARK                         _______ _______ _______ _____ _____    ______ ____
ROOT
ATOM      1  N   UNL     1      -1.376  -0.512   0.012  0.00  0.00    -0.298 NA
ATOM      2  C   UNL     1      -2.043  -0.203   1.288  0.00  0.00    +0.111 C 
ATOM      3  C   UNL     1      -3.470  -0.673   1.198  0.00  0.00    -0.009 C 
ATOM      4  C   UNL     1      -3.811  -1.676   0.444  0.00  0.00    -0.027 C 
ATOM      5  C   UNL     1      -2.831  -2.467  -0.382  0.00  0.00    +0.056 C 
ATOM      6  C   UNL     1      -1.405  -1.956  -0.233  0.00  0.00    +0.094 C 
ATOM      7  C   UNL     1      -2.892  -3.928   0.074  0.00  0.00    +0.117 C 
ATOM      8  C   UNL     1      -2.113  -4.108   1.341  0.00  0.00    -0.006 A 
ATOM      9  C   UNL     1      -2.286  -3.574   2.600  0.00  0.00    +0.007 A 
ATOM     10  C   UNL     1      -1.367  -3.949   3.575  0.00  0.00    +0.000 A 
ATOM     11  C   UNL     1      -0.332  -4.815   3.291  0.00  0.00    +0.002 A 
ATOM     12  C   UNL     1      -0.152  -5.357   2.028  0.00  0.00    +0.023 A 
ATOM     13  C   UNL     1      -1.068  -4.989   1.040  0.00  0.00    +0.038 A 
ATOM     14  N   UNL     1      -1.129  -5.372  -0.288  0.00  0.00    -0.284 N 
ATOM     15  C   UNL     1      -2.168  -4.801  -0.932  0.00  0.00    +0.234 C 
ATOM     16  O   UNL     1      -2.466  -4.956  -2.098  0.00  0.00    -0.274 OA
ATOM     17  C   UNL     1      -4.304  -4.391   0.238  0.00  0.00    +0.069 C 
ATOM     18  C   UNL     1      -5.356  -3.589   0.390  0.00  0.00    +0.055 C 
ATOM     19  C   UNL     1      -5.269  -2.090   0.376  0.00  0.00    +0.202 C 
ATOM     20  H   UNL     1      -0.499  -5.979  -0.707  0.00  0.00    +0.155 HD
ENDROOT
BRANCH  18  21
ATOM     21  N   UNL     1      -6.588  -4.164   0.567  0.00  0.00    -0.358 N 
ATOM     22  H   UNL     1      -6.675  -5.130   0.580  0.00  0.00    +0.142 HD
ATOM     23  H   UNL     1      -7.372  -3.605   0.680  0.00  0.00    +0.142 HD
ENDBRANCH  18  21
BRANCH   1  25
ATOM     24  C   UNL     1      -0.019   1.526   0.010  0.00  0.00    +0.020 C 
ATOM     25  C   UNL     1       0.002  -0.004   0.002  0.00  0.00    +0.081 C 
ENDBRANCH   1  25
BRANCH  19  26
ATOM     26  C   UNL     1      -5.869  -1.573  -0.865  0.00  0.00    +0.095 C 
ATOM     27  N   UNL     1      -6.333  -1.174  -1.822  0.00  0.00    -0.194 NA
ENDBRANCH  19  26
BRANCH  19  28
ATOM     28  C   UNL     1      -5.989  -1.544   1.538  0.00  0.00    +0.095 C 
ATOM     29  N   UNL     1      -6.545  -1.123   2.434  0.00  0.00    -0.194 NA
ENDBRANCH  19  28
BRANCH  17  30
ATOM     30  C   UNL     1      -4.542  -5.803   0.231  0.00  0.00    +0.098 C 
ATOM     31  N   UNL     1      -4.732  -6.923   0.226  0.00  0.00    -0.191 NA
ENDBRANCH  17  30
TORSDOF 5
