REMARK  Name = ZINC38728608
REMARK  15 active torsions:
REMARK  status: ('A' for Active; 'I' for Inactive)
REMARK    1  A    between atoms: C_1  and  C_2
REMARK    2  A    between atoms: C_2  and  C_3
REMARK    3  A    between atoms: N_16  and  C_30
REMARK    4  A    between atoms: C_17  and  C_19
REMARK    5  A    between atoms: C_22  and  O_27
REMARK    6  A    between atoms: C_23  and  O_25
REMARK    7  A    between atoms: O_25  and  C_26
REMARK    8  A    between atoms: O_27  and  C_28
REMARK    9  A    between atoms: C_28  and  C_29
REMARK   10  A    between atoms: C_30  and  C_31
REMARK   11  A    between atoms: C_31  and  N_32
REMARK   12  A    between atoms: N_32  and  C_33
REMARK   13  A    between atoms: N_32  and  C_35
REMARK   14  A    between atoms: C_33  and  C_34
REMARK   15  A    between atoms: C_35  and  C_36
REMARK                            x       y       z     vdW  Elec       q    Type
REMARK                         _______ _______ _______ _____ _____    ______ ____
ROOT
ATOM      1  C   UNL     1      -1.697  -1.004   0.682  0.00  0.00    -0.047 A 
ATOM      2  C   UNL     1      -2.461  -1.209   1.822  0.00  0.00    +0.007 A 
ATOM      3  C   UNL     1      -3.771  -1.621   1.730  0.00  0.00    +0.047 A 
ATOM      4  C   UNL     1      -4.348  -1.837   0.478  0.00  0.00    +0.139 A 
ATOM      5  C   UNL     1      -3.568  -1.621  -0.669  0.00  0.00    +0.065 A 
ATOM      6  C   UNL     1      -2.242  -1.202  -0.556  0.00  0.00    +0.019 A 
ATOM      7  C   UNL     1      -4.178  -1.833  -2.006  0.00  0.00    +0.199 A 
ATOM      8  O   UNL     1      -3.535  -1.833  -3.041  0.00  0.00    -0.287 OA
ATOM      9  C   UNL     1      -5.629  -2.043  -1.962  0.00  0.00    +0.072 A 
ATOM     10  C   UNL     1      -6.277  -2.234  -0.774  0.00  0.00    +0.199 A 
ATOM     11  O   UNL     1      -5.635  -2.249   0.410  0.00  0.00    -0.450 OA
ATOM     12  C   UNL     1      -7.713  -2.407  -1.054  0.00  0.00    +0.283 C 
ATOM     13  O   UNL     1      -8.569  -2.593  -0.212  0.00  0.00    -0.267 OA
ATOM     14  N   UNL     1      -7.940  -2.328  -2.381  0.00  0.00    -0.285 N 
ATOM     15  C   UNL     1      -6.650  -2.096  -3.051  0.00  0.00    +0.145 C 
ENDROOT
BRANCH  15  16
ATOM     16  C   UNL     1      -6.680  -0.789  -3.799  0.00  0.00    -0.019 A 
ATOM     17  C   UNL     1      -7.331   0.302  -3.255  0.00  0.00    +0.009 A 
ATOM     18  C   UNL     1      -7.362   1.504  -3.937  0.00  0.00    +0.050 A 
ATOM     19  C   UNL     1      -6.738   1.617  -5.169  0.00  0.00    +0.162 A 
ATOM     20  C   UNL     1      -6.082   0.519  -5.717  0.00  0.00    +0.162 A 
ATOM     21  C   UNL     1      -6.051  -0.681  -5.025  0.00  0.00    +0.055 A 
BRANCH  20  22
ATOM     22  O   UNL     1      -5.468   0.625  -6.926  0.00  0.00    -0.491 OA
ATOM     23  C   UNL     1      -4.815  -0.543  -7.426  0.00  0.00    +0.277 C 
ENDBRANCH  20  22
BRANCH  19  24
ATOM     24  O   UNL     1      -6.768   2.799  -5.842  0.00  0.00    -0.489 OA
BRANCH  24  25
ATOM     25  C   UNL     1      -7.460   3.883  -5.219  0.00  0.00    +0.226 C 
ATOM     26  C   UNL     1      -7.386   5.119  -6.118  0.00  0.00    +0.048 C 
ENDBRANCH  24  25
ENDBRANCH  19  24
ENDBRANCH  15  16
BRANCH   1  28
ATOM     27  C   UNL     1      -0.207   0.974   0.819  0.00  0.00    +0.009 C 
ATOM     28  C   UNL     1      -0.264  -0.555   0.808  0.00  0.00    +0.032 C 
ENDBRANCH   1  28
BRANCH  14  29
ATOM     29  C   UNL     1      -9.242  -2.453  -3.041  0.00  0.00    +0.090 C 
BRANCH  29  30
ATOM     30  C   UNL     1      -9.891  -1.071  -3.154  0.00  0.00    -0.060 C 
BRANCH  30  31
ATOM     31  N   UNL     1     -11.252  -1.212  -3.688  0.00  0.00    +0.380 N 
ATOM     32  H   UNL     1     -11.220  -1.724  -4.557  0.00  0.00    -0.082 HD
BRANCH  31  33
ATOM     33  C   UNL     1     -12.085  -1.937  -2.721  0.00  0.00    -0.082 C 
ATOM     34  C   UNL     1     -13.466  -2.193  -3.328  0.00  0.00    -0.017 C 
ENDBRANCH  31  33
BRANCH  31  35
ATOM     35  C   UNL     1     -11.824   0.120  -3.926  0.00  0.00    -0.082 C 
ATOM     36  C   UNL     1     -11.039   0.822  -5.037  0.00  0.00    -0.017 C 
ENDBRANCH  31  35
ENDBRANCH  30  31
ENDBRANCH  29  30
ENDBRANCH  14  29
TORSDOF 10
