REMARK  Name = ZINC39668733
REMARK  7 active torsions:
REMARK  status: ('A' for Active; 'I' for Inactive)
REMARK    1  A    between atoms: C_1  and  C_2
REMARK    2  A    between atoms: C_2  and  C_4
REMARK    3  A    between atoms: C_2  and  O_30
REMARK    4  A    between atoms: C_4  and  N_5
REMARK    5  A    between atoms: C_6  and  C_8
REMARK    6  A    between atoms: C_19  and  C_21
REMARK    7  A    between atoms: O_30  and  C_31
REMARK                            x       y       z     vdW  Elec       q    Type
REMARK                         _______ _______ _______ _____ _____    ______ ____
ROOT
ATOM      1  C   UNL     1      -3.285  -4.918  -0.699  0.00  0.00    +0.100 C 
ATOM      2  C   UNL     1      -2.713  -5.466  -2.025  0.00  0.00    +0.121 C 
ATOM      3  N   UNL     1      -3.700  -6.479  -2.469  0.00  0.00    -0.296 N 
ATOM      4  C   UNL     1      -5.016  -5.879  -2.140  0.00  0.00    +0.115 C 
ATOM      5  C   UNL     1      -4.796  -5.191  -0.778  0.00  0.00    -0.004 C 
ATOM      6  C   UNL     1      -5.227  -6.115   0.357  0.00  0.00    -0.010 C 
ATOM      7  C   UNL     1      -6.742  -6.326   0.290  0.00  0.00    -0.082 C 
ATOM      8  N   UNL     1      -7.423  -5.030   0.403  0.00  0.00    +0.379 N 
ATOM      9  C   UNL     1      -7.075  -4.180  -0.742  0.00  0.00    -0.082 C 
ATOM     10  C   UNL     1      -5.574  -3.879  -0.720  0.00  0.00    -0.010 C 
ATOM     11  C   UNL     1      -3.457  -7.674  -3.042  0.00  0.00    +0.248 C 
ATOM     12  O   UNL     1      -4.383  -8.368  -3.418  0.00  0.00    -0.270 OA
ATOM     13  H   UNL     1      -8.421  -5.177   0.420  0.00  0.00    -0.086 HD
ATOM     14  H   UNL     1      -7.138  -4.575   1.257  0.00  0.00    -0.086 HD
ENDROOT
BRANCH  11  15
ATOM     15  C   UNL     1      -2.075  -8.138  -3.214  0.00  0.00    +0.052 A 
ATOM     16  C   UNL     1      -1.074  -7.266  -3.502  0.00  0.00    +0.059 A 
ATOM     17  S   UNL     1       0.314  -8.201  -3.611  0.00  0.00    -0.096 S 
ATOM     18  C   UNL     1      -0.361  -9.805  -3.278  0.00  0.00    +0.020 A 
ATOM     19  C   UNL     1      -1.731  -9.555  -3.073  0.00  0.00    +0.001 A 
ATOM     20  C   UNL     1      -2.551 -10.660  -2.777  0.00  0.00    +0.010 A 
ATOM     21  C   UNL     1      -2.014 -11.921  -2.691  0.00  0.00    +0.001 A 
ATOM     22  C   UNL     1      -0.659 -12.140  -2.892  0.00  0.00    +0.001 A 
ATOM     23  C   UNL     1       0.168 -11.076  -3.195  0.00  0.00    +0.015 A 
ENDBRANCH  11  15
BRANCH   1  25
ATOM     24  N   UNL     1      -2.856  -2.873   0.625  0.00  0.00    -0.312 N 
ATOM     25  C   UNL     1      -3.024  -3.438  -0.587  0.00  0.00    +0.218 C 
ATOM     26  O   UNL     1      -2.965  -2.755  -1.587  0.00  0.00    -0.275 OA
ATOM     27  H   UNL     1      -2.903  -3.420   1.426  0.00  0.00    +0.149 HD
BRANCH  24  28
ATOM     28  C   UNL     1      -2.602  -1.435   0.735  0.00  0.00    +0.148 C 
BRANCH  28  30
ATOM     29  C   UNL     1      -2.185   0.449   2.322  0.00  0.00    +0.053 C 
ATOM     30  C   UNL     1      -2.450  -1.054   2.208  0.00  0.00    +0.187 C 
BRANCH  30  31
ATOM     31  O   UNL     1      -3.651  -1.380   2.911  0.00  0.00    -0.486 OA
BRANCH  31  32
ATOM     32  C   UNL     1      -3.519  -1.796   4.198  0.00  0.00    +0.139 A 
ATOM     33  C   UNL     1      -2.276  -1.773   4.824  0.00  0.00    +0.049 A 
ATOM     34  C   UNL     1      -2.192  -2.206   6.137  0.00  0.00    +0.023 A 
ATOM     35  C   UNL     1      -3.336  -2.644   6.778  0.00  0.00    +0.111 A 
ATOM     36  N   UNL     1      -4.499  -2.653   6.156  0.00  0.00    -0.260 NA
ATOM     37  C   UNL     1      -4.623  -2.243   4.909  0.00  0.00    +0.156 A 
ENDBRANCH  31  32
ENDBRANCH  30  31
ENDBRANCH  28  30
ENDBRANCH  24  28
ENDBRANCH   1  25
TORSDOF 6
