REMARK  Name = ZINC02171939
REMARK  6 active torsions:
REMARK  status: ('A' for Active; 'I' for Inactive)
REMARK    1  A    between atoms: C_6  and  S_7
REMARK    2  A    between atoms: S_7  and  N_10
REMARK    3  A    between atoms: N_10  and  C_11
REMARK    4  A    between atoms: C_22  and  S_24
REMARK    5  A    between atoms: S_24  and  N_27
REMARK    6  A    between atoms: N_27  and  C_28
REMARK                            x       y       z     vdW  Elec       q    Type
REMARK                         _______ _______ _______ _____ _____    ______ ____
ROOT
ATOM      1  C   UNL     1      -1.373  -1.991   3.572  0.00  0.00    +0.029 A 
ATOM      2  C   UNL     1      -2.149  -3.085   3.251  0.00  0.00    +0.011 A 
ATOM      3  C   UNL     1      -3.440  -2.902   2.753  0.00  0.00    -0.014 A 
ATOM      4  C   UNL     1      -3.930  -1.610   2.587  0.00  0.00    -0.033 A 
ATOM      5  C   UNL     1      -3.150  -0.522   2.915  0.00  0.00    +0.033 A 
ATOM      6  C   UNL     1      -1.868  -0.711   3.402  0.00  0.00    +0.106 A 
ATOM      7  C   UNL     1      -5.333  -1.723   2.041  0.00  0.00    +0.071 C 
ATOM      8  C   UNL     1      -5.611  -3.200   1.907  0.00  0.00    -0.033 A 
ATOM      9  C   UNL     1      -4.474  -3.881   2.335  0.00  0.00    -0.014 A 
ATOM     10  C   UNL     1      -4.464  -5.277   2.314  0.00  0.00    +0.011 A 
ATOM     11  C   UNL     1      -5.574  -5.967   1.872  0.00  0.00    +0.029 A 
ATOM     12  C   UNL     1      -6.698  -5.282   1.449  0.00  0.00    +0.106 A 
ATOM     13  C   UNL     1      -6.715  -3.898   1.467  0.00  0.00    +0.033 A 
ENDROOT
BRANCH   6  14
ATOM     14  S   UNL     1      -0.870   0.681   3.814  0.00  0.00    +0.059 S 
ATOM     15  O   UNL     1       0.083   0.230   4.766  0.00  0.00    -0.153 OA
ATOM     16  O   UNL     1      -1.761   1.756   4.078  0.00  0.00    -0.153 OA
BRANCH  14  17
ATOM     17  N   UNL     1      -0.020   1.094   2.454  0.00  0.00    -0.187 NA
ATOM     18  H   UNL     1       0.946   1.014   2.443  0.00  0.00    +0.148 HD
BRANCH  17  19
ATOM     19  C   UNL     1      -0.729   1.579   1.267  0.00  0.00    +0.077 C 
ATOM     20  C   UNL     1      -0.013   1.086   0.008  0.00  0.00    +0.020 C 
ATOM     21  C   UNL     1      -0.753   1.593  -1.232  0.00  0.00    +0.002 C 
ATOM     22  C   UNL     1      -0.773   3.123  -1.223  0.00  0.00    +0.000 C 
ATOM     23  C   UNL     1      -1.490   3.616   0.036  0.00  0.00    +0.002 C 
ATOM     24  C   UNL     1      -0.750   3.109   1.275  0.00  0.00    +0.020 C 
ENDBRANCH  17  19
ENDBRANCH  14  17
ENDBRANCH   6  14
BRANCH  12  25
ATOM     25  S   UNL     1      -8.111  -6.172   0.886  0.00  0.00    +0.059 S 
ATOM     26  O   UNL     1      -8.831  -5.293   0.032  0.00  0.00    -0.153 OA
ATOM     27  O   UNL     1      -7.644  -7.442   0.453  0.00  0.00    -0.153 OA
BRANCH  25  28
ATOM     28  N   UNL     1      -9.074  -6.445   2.205  0.00  0.00    -0.187 NA
ATOM     29  H   UNL     1      -9.228  -7.352   2.513  0.00  0.00    +0.148 HD
BRANCH  28  30
ATOM     30  C   UNL     1      -9.695  -5.318   2.905  0.00  0.00    +0.077 C 
ATOM     31  C   UNL     1      -8.816  -4.908   4.089  0.00  0.00    +0.020 C 
ATOM     32  C   UNL     1      -9.464  -3.731   4.821  0.00  0.00    +0.002 C 
ATOM     33  C   UNL     1     -10.846  -4.145   5.330  0.00  0.00    +0.000 C 
ATOM     34  C   UNL     1     -11.724  -4.556   4.147  0.00  0.00    +0.002 C 
ATOM     35  C   UNL     1     -11.076  -5.733   3.415  0.00  0.00    +0.020 C 
ENDBRANCH  28  30
ENDBRANCH  25  28
ENDBRANCH  12  25
TORSDOF 6
