REMARK  Name = ZINC39673827
REMARK  10 active torsions:
REMARK  status: ('A' for Active; 'I' for Inactive)
REMARK    1  A    between atoms: C_1  and  C_2
REMARK    2  A    between atoms: C_2  and  C_3
REMARK    3  A    between atoms: C_3  and  C_4
REMARK    4  A    between atoms: C_4  and  C_6
REMARK    5  A    between atoms: C_4  and  N_7
REMARK    6  A    between atoms: C_8  and  C_10
REMARK    7  A    between atoms: C_21  and  C_23
REMARK    8  A    between atoms: C_23  and  O_24
REMARK    9  A    between atoms: O_24  and  C_25
REMARK   10  A    between atoms: C_35  and  C_36
REMARK                            x       y       z     vdW  Elec       q    Type
REMARK                         _______ _______ _______ _____ _____    ______ ____
ROOT
ATOM      1  C   UNL     1       2.131  -4.220  -1.602  0.00  0.00    +0.100 C 
ATOM      2  C   UNL     1       1.793  -3.397  -2.865  0.00  0.00    +0.121 C 
ATOM      3  N   UNL     1       1.828  -4.381  -3.973  0.00  0.00    -0.297 N 
ATOM      4  C   UNL     1       1.210  -5.602  -3.401  0.00  0.00    +0.115 C 
ATOM      5  C   UNL     1       1.747  -5.665  -1.957  0.00  0.00    -0.004 C 
ATOM      6  C   UNL     1       0.660  -6.170  -1.013  0.00  0.00    -0.010 C 
ATOM      7  C   UNL     1       0.336  -7.629  -1.349  0.00  0.00    -0.082 C 
ATOM      8  N   UNL     1       1.548  -8.445  -1.212  0.00  0.00    +0.379 N 
ATOM      9  C   UNL     1       2.555  -8.013  -2.189  0.00  0.00    -0.082 C 
ATOM     10  C   UNL     1       2.973  -6.570  -1.889  0.00  0.00    -0.010 C 
ATOM     11  C   UNL     1       2.312  -4.206  -5.218  0.00  0.00    +0.253 C 
ATOM     12  O   UNL     1       2.268  -5.115  -6.019  0.00  0.00    -0.272 OA
ATOM     13  H   UNL     1       1.919  -8.341  -0.280  0.00  0.00    -0.086 HD
ATOM     14  H   UNL     1       1.319  -9.415  -1.375  0.00  0.00    -0.086 HD
ENDROOT
BRANCH   1  16
ATOM     15  N   UNL     1       1.808  -3.855   0.824  0.00  0.00    -0.312 N 
ATOM     16  C   UNL     1       1.321  -3.735  -0.427  0.00  0.00    +0.218 C 
ATOM     17  O   UNL     1       0.230  -3.236  -0.608  0.00  0.00    -0.275 OA
ATOM     18  H   UNL     1       2.680  -4.255   0.968  0.00  0.00    +0.149 HD
BRANCH  15  19
ATOM     19  C   UNL     1       1.020  -3.384   1.965  0.00  0.00    +0.070 C 
ATOM     20  C   UNL     1       0.042  -4.479   2.397  0.00  0.00    +0.028 C 
BRANCH  19  21
ATOM     21  C   UNL     1       1.956  -3.049   3.127  0.00  0.00    +0.022 C 
BRANCH  21  23
ATOM     22  C   UNL     1       3.787  -1.534   3.901  0.00  0.00    +0.004 C 
ATOM     23  C   UNL     1       2.850  -1.869   2.738  0.00  0.00    -0.002 C 
ENDBRANCH  21  23
ENDBRANCH  19  21
ENDBRANCH  15  19
ENDBRANCH   1  16
BRANCH  11  24
ATOM     24  C   UNL     1       2.907  -2.880  -5.616  0.00  0.00    +0.324 C 
BRANCH  24  25
ATOM     25  O   UNL     1       3.347  -2.943  -6.974  0.00  0.00    -0.479 OA
BRANCH  25  26
ATOM     26  C   UNL     1       3.913  -1.820  -7.492  0.00  0.00    +0.164 A 
ATOM     27  C   UNL     1       4.047  -0.687  -6.710  0.00  0.00    +0.049 A 
ATOM     28  C   UNL     1       4.623   0.464  -7.228  0.00  0.00    +0.004 A 
ATOM     29  C   UNL     1       5.070   0.495  -8.530  0.00  0.00    +0.012 A 
ATOM     30  C   UNL     1       4.942  -0.642  -9.334  0.00  0.00    +0.024 A 
ATOM     31  C   UNL     1       4.364  -1.811  -8.811  0.00  0.00    +0.181 A 
ATOM     32  O   UNL     1       4.246  -2.909  -9.588  0.00  0.00    -0.418 OA
ATOM     33  C   UNL     1       4.675  -2.917 -10.860  0.00  0.00    +0.338 A 
ATOM     34  O   UNL     1       4.547  -3.930 -11.523  0.00  0.00    -0.245 OA
ATOM     35  C   UNL     1       5.270  -1.780 -11.448  0.00  0.00    +0.096 A 
ATOM     36  C   UNL     1       5.408  -0.640 -10.724  0.00  0.00    -0.033 A 
ATOM     37  C   UNL     1       6.039   0.588 -11.328  0.00  0.00    +0.045 C 
ENDBRANCH  25  26
ENDBRANCH  24  25
ENDBRANCH  11  24
TORSDOF 7
