REMARK  Name = ZINC12887404
REMARK  6 active torsions:
REMARK  status: ('A' for Active; 'I' for Inactive)
REMARK    1  A    between atoms: C_1  and  N_54
REMARK    2  A    between atoms: C_2  and  C_3
REMARK    3  A    between atoms: C_2  and  N_54
REMARK    4  A    between atoms: C_14  and  C_15
REMARK    5  A    between atoms: C_14  and  N_54
REMARK    6  A    between atoms: C_28  and  C_30
REMARK                            x       y       z     vdW  Elec       q    Type
REMARK                         _______ _______ _______ _____ _____    ______ ____
ROOT
ATOM      1  C   UNL     1      -0.922   0.756  -2.236  0.00  0.00    +0.204 C 
ATOM      2  O   UNL     1      -0.520  -0.388  -2.206  0.00  0.00    -0.277 OA
ATOM      3  N   UNL     1      -0.718   1.569  -1.180  0.00  0.00    -0.259 N 
ATOM      4  C   UNL     1      -1.178   2.893  -1.200  0.00  0.00    +0.058 A 
ATOM      5  C   UNL     1      -0.560   3.844  -1.997  0.00  0.00    +0.025 A 
ATOM      6  C   UNL     1      -1.013   5.150  -1.986  0.00  0.00    +0.002 A 
ATOM      7  C   UNL     1      -2.079   5.512  -1.182  0.00  0.00    +0.002 A 
ATOM      8  C   UNL     1      -2.706   4.567  -0.391  0.00  0.00    +0.025 A 
ATOM      9  C   UNL     1      -2.265   3.255  -0.404  0.00  0.00    +0.055 A 
ATOM     10  N   UNL     1      -2.919   2.270   0.345  0.00  0.00    -0.284 N 
ATOM     11  C   UNL     1      -2.214   1.417   1.120  0.00  0.00    +0.219 C 
ATOM     12  O   UNL     1      -2.784   0.517   1.699  0.00  0.00    -0.275 OA
ATOM     13  C   UNL     1      -0.726   1.577   1.269  0.00  0.00    +0.128 C 
ATOM     14  C   UNL     1      -0.013   1.086   0.008  0.00  0.00    +0.194 C 
ATOM     15  H   UNL     1      -3.886   2.199   0.309  0.00  0.00    +0.155 HD
ENDROOT
BRANCH  14  16
ATOM     16  C   UNL     1       1.423   1.614  -0.003  0.00  0.00    +0.409 C 
ATOM     17  F   UNL     1       1.406   3.013   0.005  0.00  0.00    -0.169 F 
ATOM     18  F   UNL     1       2.099   1.150   1.131  0.00  0.00    -0.169 F 
ATOM     19  F   UNL     1       2.078   1.162  -1.154  0.00  0.00    -0.169 F 
ENDBRANCH  14  16
BRANCH   1  20
ATOM     20  C   UNL     1      -1.649   1.268  -3.452  0.00  0.00    +0.019 C 
BRANCH  20  22
ATOM     21  C   UNL     1      -2.592  -0.900  -3.975  0.00  0.00    -0.095 C 
ATOM     22  N   UNL     1      -1.715   0.187  -4.458  0.00  0.00    +0.386 N 
ATOM     23  H   UNL     1      -0.771  -0.187  -4.608  0.00  0.00    -0.081 HD
BRANCH  22  24
ATOM     24  C   UNL     1      -2.229   0.719  -5.738  0.00  0.00    -0.030 C 
BRANCH  24  25
ATOM     25  C   UNL     1      -2.077  -0.356  -6.816  0.00  0.00    +0.194 C 
ATOM     26  C   UNL     1      -2.557   0.194  -8.166  0.00  0.00    +0.271 C 
ATOM     27  O   UNL     1      -2.389  -0.830  -9.152  0.00  0.00    -0.485 OA
ATOM     28  C   UNL     1      -1.197  -1.489  -9.153  0.00  0.00    +0.162 A 
ATOM     29  C   UNL     1      -0.826  -2.223 -10.270  0.00  0.00    +0.049 A 
ATOM     30  C   UNL     1       0.377  -2.903 -10.283  0.00  0.00    +0.004 A 
ATOM     31  C   UNL     1       1.214  -2.853  -9.183  0.00  0.00    +0.004 A 
ATOM     32  C   UNL     1       0.850  -2.122  -8.068  0.00  0.00    +0.049 A 
ATOM     33  C   UNL     1      -0.355  -1.437  -8.049  0.00  0.00    +0.162 A 
ATOM     34  O   UNL     1      -0.698  -0.719  -6.944  0.00  0.00    -0.484 OA
ENDBRANCH  24  25
ENDBRANCH  22  24
ENDBRANCH  20  22
ENDBRANCH   1  20
TORSDOF 5
