REMARK  Name = ZINC09183530
REMARK  4 active torsions:
REMARK  status: ('A' for Active; 'I' for Inactive)
REMARK    1  A    between atoms: C_1  and  C_2
REMARK    2  A    between atoms: C_5  and  N_8
REMARK    3  A    between atoms: N_8  and  C_9
REMARK    4  A    between atoms: C_28  and  C_34
REMARK                            x       y       z     vdW  Elec       q    Type
REMARK                         _______ _______ _______ _____ _____    ______ ____
ROOT
ATOM      1  C   UNL     1      -3.770   2.052   0.061  0.00  0.00    +0.047 A 
ATOM      2  C   UNL     1      -4.910   1.316  -0.265  0.00  0.00    +0.072 A 
ATOM      3  C   UNL     1      -4.877  -0.063  -0.267  0.00  0.00    +0.154 A 
ATOM      4  C   UNL     1      -3.689  -0.743   0.061  0.00  0.00    +0.094 A 
ATOM      5  C   UNL     1      -2.540  -0.023   0.390  0.00  0.00    +0.062 A 
ATOM      6  C   UNL     1      -2.579   1.392   0.390  0.00  0.00    +0.056 A 
ATOM      7  C   UNL     1      -1.380   2.160   0.739  0.00  0.00    +0.196 A 
ATOM      8  O   UNL     1      -1.415   3.376   0.739  0.00  0.00    -0.287 OA
ATOM      9  C   UNL     1      -0.127   1.456   1.080  0.00  0.00    +0.033 A 
ATOM     10  C   UNL     1       1.018   2.178   1.408  0.00  0.00    +0.012 A 
ATOM     11  C   UNL     1       2.185   1.511   1.731  0.00  0.00    +0.001 A 
ATOM     12  C   UNL     1       2.224   0.128   1.731  0.00  0.00    +0.001 A 
ATOM     13  C   UNL     1       1.098  -0.606   1.408  0.00  0.00    +0.012 A 
ATOM     14  C   UNL     1      -0.086   0.050   1.080  0.00  0.00    +0.033 A 
ATOM     15  C   UNL     1      -1.296  -0.725   0.734  0.00  0.00    +0.197 A 
ATOM     16  O   UNL     1      -1.261  -1.941   0.733  0.00  0.00    -0.287 OA
ATOM     17  N   UNL     1      -3.668  -2.129   0.056  0.00  0.00    -0.349 N 
ATOM     18  H   UNL     1      -2.856  -2.610   0.280  0.00  0.00    +0.166 HD
ATOM     19  C   UNL     1      -4.835  -2.825  -0.278  0.00  0.00    +0.086 A 
ATOM     20  C   UNL     1      -4.842  -4.212  -0.292  0.00  0.00    -0.024 A 
ATOM     21  C   UNL     1      -6.000  -4.892  -0.623  0.00  0.00    +0.005 A 
ATOM     22  C   UNL     1      -7.150  -4.192  -0.939  0.00  0.00    +0.004 A 
ATOM     23  C   UNL     1      -7.149  -2.809  -0.927  0.00  0.00    +0.048 A 
ATOM     24  C   UNL     1      -5.994  -2.119  -0.597  0.00  0.00    +0.152 A 
ATOM     25  O   UNL     1      -5.995  -0.761  -0.586  0.00  0.00    -0.452 OA
ATOM     26  C   UNL     1      -3.590  -4.976   0.053  0.00  0.00    +0.046 C 
ENDROOT
BRANCH   1  27
ATOM     27  N   UNL     1      -3.816   3.437   0.059  0.00  0.00    -0.314 N 
ATOM     28  H   UNL     1      -4.187   3.911   0.821  0.00  0.00    +0.152 HD
BRANCH  27  33
ATOM     29  C   UNL     1      -1.841   6.335  -4.397  0.00  0.00    +0.044 C 
ATOM     30  C   UNL     1      -2.366   5.565  -3.212  0.00  0.00    -0.050 A 
ATOM     31  C   UNL     1      -2.776   6.240  -2.077  0.00  0.00    +0.005 A 
ATOM     32  C   UNL     1      -3.258   5.538  -0.991  0.00  0.00    +0.023 A 
ATOM     33  C   UNL     1      -3.330   4.151  -1.038  0.00  0.00    +0.031 A 
ATOM     34  C   UNL     1      -2.911   3.476  -2.178  0.00  0.00    +0.023 A 
ATOM     35  C   UNL     1      -2.436   4.185  -3.263  0.00  0.00    +0.005 A 
ENDBRANCH  27  33
ENDBRANCH   1  27
TORSDOF 2
