REMARK  Name = ZINC13986744
REMARK  6 active torsions:
REMARK  status: ('A' for Active; 'I' for Inactive)
REMARK    1  A    between atoms: C_3  and  C_6
REMARK    2  A    between atoms: C_9  and  S_14
REMARK    3  A    between atoms: N_10  and  C_11
REMARK    4  A    between atoms: S_14  and  C_15
REMARK    5  A    between atoms: C_15  and  C_16
REMARK    6  A    between atoms: N_21  and  C_22
REMARK                            x       y       z     vdW  Elec       q    Type
REMARK                         _______ _______ _______ _____ _____    ______ ____
ROOT
ATOM      1  C   UNL     1      -6.968   0.229   2.679  0.00  0.00    +0.231 C 
ATOM      2  O   UNL     1      -6.551   0.836   3.642  0.00  0.00    -0.274 OA
ATOM      3  N   UNL     1      -6.107  -0.235   1.751  0.00  0.00    -0.239 N 
ATOM      4  C   UNL     1      -4.784  -0.024   1.894  0.00  0.00    +0.306 C 
ATOM      5  O   UNL     1      -4.366   0.584   2.860  0.00  0.00    -0.252 OA
ATOM      6  N   UNL     1      -3.923  -0.488   0.966  0.00  0.00    -0.294 N 
ATOM      7  H   UNL     1      -6.441  -0.720   0.980  0.00  0.00    +0.159 HD
ATOM      8  H   UNL     1      -4.257  -0.974   0.195  0.00  0.00    +0.151 HD
ENDROOT
BRANCH   6   9
ATOM      9  C   UNL     1      -2.485  -0.259   1.121  0.00  0.00    +0.037 C 
ATOM     10  C   UNL     1      -1.738  -0.883  -0.060  0.00  0.00    +0.029 C 
ATOM     11  C   UNL     1      -0.236  -0.644   0.103  0.00  0.00    -0.008 C 
ATOM     12  C   UNL     1       0.245  -1.285   1.406  0.00  0.00    +0.007 C 
ATOM     13  C   UNL     1      -0.502  -0.662   2.587  0.00  0.00    -0.008 C 
ATOM     14  C   UNL     1      -2.004  -0.901   2.425  0.00  0.00    +0.029 C 
ATOM     15  C   UNL     1      -0.226   0.843   2.627  0.00  0.00    +0.007 C 
ATOM     16  C   UNL     1      -0.707   1.484   1.324  0.00  0.00    -0.008 C 
ATOM     17  C   UNL     1       0.040   0.861   0.143  0.00  0.00    +0.007 C 
ATOM     18  C   UNL     1      -2.209   1.245   1.162  0.00  0.00    +0.029 C 
ENDBRANCH   6   9
BRANCH   1  19
ATOM     19  C   UNL     1      -8.447  -0.007   2.519  0.00  0.00    +0.173 C 
BRANCH  19  20
ATOM     20  S   UNL     1      -9.330   0.731   3.916  0.00  0.00    -0.077 S 
BRANCH  20  24
ATOM     21  C   UNL     1     -13.164   0.105   3.475  0.00  0.00    +0.172 A 
ATOM     22  N   UNL     1     -12.651  -0.472   2.411  0.00  0.00    -0.128 NA
ATOM     23  N   UNL     1     -11.372  -0.341   2.414  0.00  0.00    -0.122 NA
ATOM     24  C   UNL     1     -10.988   0.318   3.483  0.00  0.00    +0.193 A 
ATOM     25  N   UNL     1     -12.113   0.629   4.195  0.00  0.00    -0.299 N 
BRANCH  21  28
ATOM     26  C   UNL     1     -16.941   0.066   3.603  0.00  0.00    +0.008 A 
ATOM     27  C   UNL     1     -15.690  -0.067   3.046  0.00  0.00    +0.019 A 
ATOM     28  C   UNL     1     -14.590   0.178   3.829  0.00  0.00    +0.056 A 
ATOM     29  S   UNL     1     -15.341   0.601   5.393  0.00  0.00    -0.094 S 
ATOM     30  C   UNL     1     -17.050   0.435   4.905  0.00  0.00    +0.046 A 
ENDBRANCH  21  28
BRANCH  25  31
ATOM     31  C   UNL     1     -12.186   1.367   5.459  0.00  0.00    +0.091 C 
ATOM     32  C   UNL     1     -10.959   2.182   5.873  0.00  0.00    +0.027 C 
ATOM     33  C   UNL     1     -11.301   0.885   6.610  0.00  0.00    +0.027 C 
ENDBRANCH  25  31
ENDBRANCH  20  24
ENDBRANCH  19  20
ENDBRANCH   1  19
TORSDOF 6
