REMARK  Name = ZINC49541822
REMARK  3 active torsions:
REMARK  status: ('A' for Active; 'I' for Inactive)
REMARK    1  A    between atoms: C_2  and  N_21
REMARK    2  A    between atoms: C_6  and  S_7
REMARK    3  A    between atoms: S_7  and  N_10
REMARK                            x       y       z     vdW  Elec       q    Type
REMARK                         _______ _______ _______ _____ _____    ______ ____
ROOT
ATOM      1  S   UNL     1      -1.512  -0.904   0.012  0.00  0.00    +0.103 S 
ATOM      2  O   UNL     1      -1.394  -1.887   1.031  0.00  0.00    -0.146 OA
ATOM      3  O   UNL     1      -2.557   0.058  -0.000  0.00  0.00    -0.146 OA
ENDROOT
BRANCH   1   4
ATOM      4  N   UNL     1      -1.605  -1.722  -1.426  0.00  0.00    -0.103 NA
ATOM      5  C   UNL     1      -2.643  -2.479  -1.683  0.00  0.00    +0.192 A 
ATOM      6  N   UNL     1      -3.751  -2.726  -0.914  0.00  0.00    -0.336 N 
ATOM      7  C   UNL     1      -4.744  -3.573  -1.389  0.00  0.00    +0.028 A 
ATOM      8  C   UNL     1      -4.564  -4.115  -2.594  0.00  0.00    +0.012 A 
ATOM      9  S   UNL     1      -3.000  -3.459  -3.132  0.00  0.00    -0.053 S 
ATOM     10  C   UNL     1      -5.696  -5.015  -2.999  0.00  0.00    +0.044 C 
ATOM     11  C   UNL     1      -6.446  -5.309  -1.680  0.00  0.00    +0.011 C 
ATOM     12  C   UNL     1      -6.086  -4.069  -0.838  0.00  0.00    +0.054 C 
ATOM     13  H   UNL     1      -3.841  -2.312  -0.042  0.00  0.00    +0.168 HD
ENDBRANCH   1   4
BRANCH   1  19
ATOM     14  C   UNL     1      -0.017   1.377   0.010  0.00  0.00    +0.056 A 
ATOM     15  C   UNL     1       1.176   2.087   0.002  0.00  0.00    +0.062 A 
ATOM     16  C   UNL     1       2.388   1.404  -0.013  0.00  0.00    +0.145 A 
ATOM     17  C   UNL     1       2.400   0.022  -0.021  0.00  0.00    +0.062 A 
ATOM     18  C   UNL     1       1.208  -0.682  -0.014  0.00  0.00    +0.071 A 
ATOM     19  C   UNL     1       0.002  -0.004   0.002  0.00  0.00    +0.133 A 
ATOM     20 CL   UNL     1       1.227  -2.417  -0.024  0.00  0.00    -0.081 Cl
ATOM     21  F   UNL     1       3.551   2.091  -0.021  0.00  0.00    -0.204 F 
BRANCH  15  22
ATOM     22  N   UNL     1       1.160   3.486   0.009  0.00  0.00    -0.356 N 
ATOM     23  H   UNL     1       0.314   3.961   0.019  0.00  0.00    +0.142 HD
ATOM     24  H   UNL     1       1.994   3.981   0.004  0.00  0.00    +0.142 HD
ENDBRANCH  15  22
ENDBRANCH   1  19
TORSDOF 3
