REMARK  Name = ZINC66930007
REMARK  9 active torsions:
REMARK  status: ('A' for Active; 'I' for Inactive)
REMARK    1  A    between atoms: C_1  and  C_2
REMARK    2  A    between atoms: C_2  and  C_3
REMARK    3  A    between atoms: C_3  and  N_4
REMARK    4  A    between atoms: N_7  and  C_8
REMARK    5  A    between atoms: C_11  and  C_14
REMARK    6  A    between atoms: C_14  and  C_15
REMARK    7  A    between atoms: N_17  and  C_18
REMARK    8  A    between atoms: C_18  and  C_19
REMARK    9  A    between atoms: C_19  and  O_29
REMARK                            x       y       z     vdW  Elec       q    Type
REMARK                         _______ _______ _______ _____ _____    ______ ____
ROOT
ATOM      1  C   UNL     1       2.572  -6.896   7.734  0.00  0.00    +0.217 C 
ATOM      2  O   UNL     1       1.429  -6.553   7.516  0.00  0.00    -0.275 OA
ATOM      3  N   UNL     1       2.879  -7.518   8.890  0.00  0.00    -0.312 N 
ATOM      4  H   UNL     1       3.793  -7.792   9.065  0.00  0.00    +0.149 HD
ENDROOT
BRANCH   1   5
ATOM      5  C   UNL     1       3.648  -6.629   6.713  0.00  0.00    +0.130 C 
BRANCH   5   9
ATOM      6  C   UNL     1       1.942  -4.644   3.334  0.00  0.00    +0.035 A 
ATOM      7  C   UNL     1       2.442  -3.904   4.397  0.00  0.00    +0.023 A 
ATOM      8  C   UNL     1       2.992  -4.548   5.487  0.00  0.00    +0.006 A 
ATOM      9  C   UNL     1       3.046  -5.929   5.522  0.00  0.00    -0.039 A 
ATOM     10  C   UNL     1       2.550  -6.670   4.465  0.00  0.00    +0.006 A 
ATOM     11  C   UNL     1       1.994  -6.032   3.374  0.00  0.00    +0.023 A 
BRANCH   6  15
ATOM     12  N   UNL     1      -0.264  -3.873   0.579  0.00  0.00    -0.299 N 
ATOM     13  C   UNL     1       0.332  -4.541   1.585  0.00  0.00    +0.304 C 
ATOM     14  O   UNL     1      -0.078  -5.638   1.914  0.00  0.00    -0.253 OA
ATOM     15  N   UNL     1       1.384  -3.995   2.227  0.00  0.00    -0.269 N 
ATOM     16  H   UNL     1       0.063  -2.998   0.317  0.00  0.00    +0.150 HD
ATOM     17  H   UNL     1       1.753  -3.151   1.923  0.00  0.00    +0.156 HD
BRANCH  12  18
ATOM     18  C   UNL     1      -1.407  -4.466  -0.119  0.00  0.00    +0.105 C 
BRANCH  18  20
ATOM     19  C   UNL     1      -3.086  -4.129  -1.939  0.00  0.00    +0.005 C 
ATOM     20  C   UNL     1      -1.893  -3.509  -1.210  0.00  0.00    +0.015 C 
ENDBRANCH  18  20
ENDBRANCH  12  18
ENDBRANCH   6  15
ENDBRANCH   5   9
ENDBRANCH   1   5
BRANCH   3  21
ATOM     21  C   UNL     1       1.833  -7.778   9.883  0.00  0.00    +0.143 C 
BRANCH  21  22
ATOM     22  C   UNL     1       2.464  -8.373  11.143  0.00  0.00    +0.107 C 
ATOM     23  C   UNL     1       3.582  -7.454  11.630  0.00  0.00    +0.041 C 
ATOM     24  C   UNL     1       4.051  -7.949  13.003  0.00  0.00    +0.008 C 
ATOM     25  C   UNL     1       2.944  -7.673  14.019  0.00  0.00    +0.035 C 
ATOM     26  C   UNL     1       1.626  -8.209  13.524  0.00  0.00    -0.041 A 
ATOM     27  C   UNL     1       1.404  -8.527  12.203  0.00  0.00    -0.011 A 
ATOM     28  C   UNL     1       0.163  -9.011  11.811  0.00  0.00    +0.007 A 
ATOM     29  C   UNL     1      -0.848  -9.179  12.735  0.00  0.00    +0.000 A 
ATOM     30  C   UNL     1      -0.624  -8.863  14.062  0.00  0.00    +0.000 A 
ATOM     31  C   UNL     1       0.608  -8.380  14.453  0.00  0.00    +0.004 A 
BRANCH  22  32
ATOM     32  O   UNL     1       3.011  -9.657  10.835  0.00  0.00    -0.382 OA
ATOM     33  H   UNL     1       2.360 -10.294  10.510  0.00  0.00    +0.211 HD
ENDBRANCH  22  32
ENDBRANCH  21  22
ENDBRANCH   3  21
TORSDOF 8
