REMARK  Name = ZINC63869898
REMARK  3 active torsions:
REMARK  status: ('A' for Active; 'I' for Inactive)
REMARK    1  A    between atoms: C_12  and  C_15
REMARK    2  A    between atoms: C_15  and  C_17
REMARK    3  A    between atoms: C_15  and  N_20
REMARK                            x       y       z     vdW  Elec       q    Type
REMARK                         _______ _______ _______ _____ _____    ______ ____
ROOT
ATOM      1  C   UNL     1      -0.017   1.375   0.010  0.00  0.00    +0.001 A 
ATOM      2  C   UNL     1       1.174   2.078   0.002  0.00  0.00    +0.001 A 
ATOM      3  C   UNL     1       2.372   1.395  -0.013  0.00  0.00    +0.016 A 
ATOM      4  C   UNL     1       2.401  -0.002  -0.021  0.00  0.00    +0.026 A 
ATOM      5  C   UNL     1       1.211  -0.705  -0.014  0.00  0.00    +0.026 A 
ATOM      6  C   UNL     1       0.002  -0.004   0.002  0.00  0.00    +0.016 A 
ATOM      7  S   UNL     1       1.132  -2.456  -0.021  0.00  0.00    -0.087 S 
ATOM      8  C   UNL     1       2.589  -3.030   0.768  0.00  0.00    +0.027 A 
ATOM      9  C   UNL     1       2.524  -4.258   1.433  0.00  0.00    +0.016 A 
ATOM     10  C   UNL     1       3.629  -4.774   2.076  0.00  0.00    +0.001 A 
ATOM     11  C   UNL     1       4.819  -4.072   2.066  0.00  0.00    +0.004 A 
ATOM     12  C   UNL     1       4.894  -2.859   1.414  0.00  0.00    -0.035 A 
ATOM     13  C   UNL     1       3.780  -2.327   0.760  0.00  0.00    +0.029 A 
ATOM     14  S   UNL     1       3.973  -0.779  -0.041  0.00  0.00    -0.087 S 
ENDROOT
BRANCH  12  15
ATOM     15  C   UNL     1       6.195  -2.098   1.407  0.00  0.00    +0.079 C 
BRANCH  15  16
ATOM     16  N   UNL     1       7.311  -3.034   1.592  0.00  0.00    +0.398 N 
ATOM     17  C   UNL     1       8.583  -2.294   1.571  0.00  0.00    -0.058 C 
ATOM     18  C   UNL     1       9.707  -3.233   2.014  0.00  0.00    +0.085 C 
ATOM     19  N   UNL     1       9.652  -4.472   1.242  0.00  0.00    -0.319 N 
ATOM     20  C   UNL     1       8.565  -4.848   0.558  0.00  0.00    +0.196 C 
ATOM     21  O   UNL     1       8.589  -5.903  -0.039  0.00  0.00    -0.278 OA
ATOM     22  C   UNL     1       7.315  -4.016   0.501  0.00  0.00    +0.020 C 
ATOM     23  H   UNL     1      10.434  -5.045   1.224  0.00  0.00    +0.149 HD
ATOM     24  H   UNL     1       7.210  -3.510   2.475  0.00  0.00    -0.079 HD
ENDBRANCH  15  16
BRANCH  15  25
ATOM     25  C   UNL     1       6.193  -1.090   2.528  0.00  0.00    +0.347 C 
ATOM     26  O   UNL     1       6.921  -1.250   3.492  0.00  0.00    -0.248 OA
ATOM     27  O   UNL     1       5.462  -0.116   2.470  0.00  0.00    -0.248 OA
ENDBRANCH  15  25
ENDBRANCH  12  15
TORSDOF 3
