REMARK  Name = ZINC54402607
REMARK  6 active torsions:
REMARK  status: ('A' for Active; 'I' for Inactive)
REMARK    1  A    between atoms: C_1  and  C_2
REMARK    2  A    between atoms: C_10  and  C_11
REMARK    3  A    between atoms: N_13  and  N_14
REMARK    4  A    between atoms: N_17  and  C_18
REMARK    5  A    between atoms: C_18  and  C_20
REMARK    6  A    between atoms: C_18  and  C_21
REMARK                            x       y       z     vdW  Elec       q    Type
REMARK                         _______ _______ _______ _____ _____    ______ ____
ROOT
ATOM      1  N   UNL     1       0.760  -0.783   5.102  0.00  0.00    -0.218 N 
ATOM      2  C   UNL     1       0.535  -1.752   6.013  0.00  0.00    +0.316 C 
ATOM      3  O   UNL     1       0.482  -1.474   7.195  0.00  0.00    -0.251 OA
ATOM      4  N   UNL     1       0.368  -3.027   5.612  0.00  0.00    -0.292 N 
ATOM      5  H   UNL     1       0.881   0.135   5.391  0.00  0.00    +0.174 HD
ATOM      6  H   UNL     1       0.410  -3.249   4.668  0.00  0.00    +0.151 HD
ENDROOT
BRANCH   1   9
ATOM      7  C   UNL     1       1.047  -0.136   2.829  0.00  0.00    +0.296 C 
ATOM      8  O   UNL     1       1.198   1.016   3.191  0.00  0.00    -0.265 OA
ATOM      9  N   UNL     1       0.822  -1.104   3.740  0.00  0.00    -0.227 N 
ATOM     10  H   UNL     1       0.702  -2.022   3.451  0.00  0.00    +0.173 HD
BRANCH   7  20
ATOM     11  C   UNL     1       1.553   1.902   0.535  0.00  0.00    +0.048 C 
ATOM     12  C   UNL     1       1.332   0.418   0.398  0.00  0.00    +0.008 A 
ATOM     13  C   UNL     1       1.318  -0.358  -0.842  0.00  0.00    +0.024 A 
ATOM     14  C   UNL     1       1.486  -0.040  -2.192  0.00  0.00    +0.012 A 
ATOM     15  C   UNL     1       1.413  -1.026  -3.135  0.00  0.00    +0.001 A 
ATOM     16  C   UNL     1       1.174  -2.341  -2.759  0.00  0.00    +0.004 A 
ATOM     17  C   UNL     1       1.006  -2.676  -1.433  0.00  0.00    +0.047 A 
ATOM     18  C   UNL     1       1.076  -1.689  -0.456  0.00  0.00    +0.136 A 
ATOM     19  O   UNL     1       0.956  -1.709   0.885  0.00  0.00    -0.450 OA
ATOM     20  C   UNL     1       1.111  -0.471   1.400  0.00  0.00    +0.195 A 
ENDBRANCH   7  20
ENDBRANCH   1   9
BRANCH   4  21
ATOM     21  C   UNL     1       0.123  -4.080   6.601  0.00  0.00    +0.104 C 
ATOM     22  C   UNL     1      -1.378  -4.178   6.880  0.00  0.00    +0.033 C 
BRANCH  21  23
ATOM     23  C   UNL     1       0.622  -5.398   6.067  0.00  0.00    +0.008 A 
ATOM     24  C   UNL     1       0.674  -5.615   4.703  0.00  0.00    +0.011 A 
ATOM     25  C   UNL     1       1.132  -6.822   4.212  0.00  0.00    +0.039 A 
ATOM     26  C   UNL     1       1.538  -7.817   5.086  0.00  0.00    +0.126 A 
ATOM     27  C   UNL     1       1.485  -7.601   6.452  0.00  0.00    +0.077 A 
ATOM     28  C   UNL     1       1.032  -6.389   6.942  0.00  0.00    +0.131 A 
ATOM     29  F   UNL     1       0.986  -6.174   8.276  0.00  0.00    -0.205 F 
ATOM     30  F   UNL     1       1.984  -8.998   4.605  0.00  0.00    -0.205 F 
ENDBRANCH  21  23
ENDBRANCH   4  21
TORSDOF 4
