REMARK  Name = ZINC39630949
REMARK  15 active torsions:
REMARK  status: ('A' for Active; 'I' for Inactive)
REMARK    1  A    between atoms: C_1  and  C_2
REMARK    2  A    between atoms: C_2  and  C_3
REMARK    3  A    between atoms: C_3  and  C_4
REMARK    4  A    between atoms: C_4  and  C_5
REMARK    5  A    between atoms: C_5  and  C_7
REMARK    6  A    between atoms: C_5  and  C_8
REMARK    7  A    between atoms: C_12  and  C_21
REMARK    8  A    between atoms: N_23  and  C_24
REMARK    9  A    between atoms: C_24  and  C_25
REMARK   10  A    between atoms: C_25  and  C_26
REMARK   11  A    between atoms: C_25  and  C_27
REMARK   12  A    between atoms: C_25  and  C_28
REMARK   13  A    between atoms: C_28  and  N_29
REMARK   14  A    between atoms: N_29  and  C_30
REMARK   15  A    between atoms: N_29  and  C_31
REMARK                            x       y       z     vdW  Elec       q    Type
REMARK                         _______ _______ _______ _____ _____    ______ ____
ROOT
ATOM      1  C   UNL     1       0.711  -3.041   2.752  0.00  0.00    +0.218 C 
ATOM      2  O   UNL     1      -0.053  -3.570   1.973  0.00  0.00    -0.275 OA
ATOM      3  N   UNL     1       1.371  -3.786   3.660  0.00  0.00    -0.300 N 
ATOM      4  C   UNL     1       2.332  -3.324   4.689  0.00  0.00    +0.121 C 
ATOM      5  C   UNL     1       2.006  -4.174   5.938  0.00  0.00    +0.100 C 
ATOM      6  C   UNL     1       1.330  -5.440   5.385  0.00  0.00    -0.004 C 
ATOM      7  C   UNL     1       1.293  -5.253   3.861  0.00  0.00    +0.115 C 
ATOM      8  C   UNL     1       2.147  -6.676   5.747  0.00  0.00    -0.010 C 
ATOM      9  C   UNL     1       1.424  -7.927   5.237  0.00  0.00    -0.082 C 
ATOM     10  N   UNL     1       0.089  -8.004   5.841  0.00  0.00    +0.379 N 
ATOM     11  C   UNL     1      -0.721  -6.857   5.413  0.00  0.00    -0.082 C 
ATOM     12  C   UNL     1      -0.090  -5.561   5.930  0.00  0.00    -0.010 C 
ATOM     13  H   UNL     1      -0.361  -8.859   5.551  0.00  0.00    -0.086 HD
ATOM     14  H   UNL     1       0.175  -7.996   6.846  0.00  0.00    -0.086 HD
ENDROOT
BRANCH   5  15
ATOM     15  C   UNL     1       3.272  -4.531   6.674  0.00  0.00    +0.218 C 
ATOM     16  O   UNL     1       4.313  -4.654   6.065  0.00  0.00    -0.275 OA
ATOM     17  N   UNL     1       3.246  -4.715   8.009  0.00  0.00    -0.315 N 
ATOM     18  H   UNL     1       2.413  -4.617   8.496  0.00  0.00    +0.149 HD
BRANCH  17  19
ATOM     19  C   UNL     1       4.476  -5.062   8.724  0.00  0.00    +0.108 C 
BRANCH  19  20
ATOM     20  C   UNL     1       4.173  -5.212  10.216  0.00  0.00    -0.034 C 
ATOM     21  C   UNL     1       3.623  -3.893  10.760  0.00  0.00    +0.010 C 
ATOM     22  C   UNL     1       3.137  -6.319  10.417  0.00  0.00    +0.010 C 
BRANCH  20  23
ATOM     23  C   UNL     1       5.458  -5.575  10.963  0.00  0.00    -0.072 C 
BRANCH  23  24
ATOM     24  N   UNL     1       5.176  -5.677  12.402  0.00  0.00    +0.376 N 
ATOM     25  C   UNL     1       4.703  -7.032  12.713  0.00  0.00    -0.097 C 
ATOM     26  C   UNL     1       6.402  -5.399  13.162  0.00  0.00    -0.097 C 
ATOM     27  H   UNL     1       4.466  -5.006  12.653  0.00  0.00    -0.083 HD
ENDBRANCH  23  24
ENDBRANCH  20  23
ENDBRANCH  19  20
ENDBRANCH  17  19
ENDBRANCH   5  15
BRANCH   1  28
ATOM     28  C   UNL     1       0.924  -1.549   2.703  0.00  0.00    +0.072 C 
ATOM     29  C   UNL     1       2.399  -1.254   2.424  0.00  0.00    +0.017 C 
BRANCH  28  30
ATOM     30  C   UNL     1       0.064  -0.948   1.590  0.00  0.00    +0.012 C 
BRANCH  30  31
ATOM     31  C   UNL     1       0.184   0.578   1.621  0.00  0.00    +0.000 C 
BRANCH  31  33
ATOM     32  C   UNL     1      -0.557   2.704   0.539  0.00  0.00    +0.004 C 
ATOM     33  C   UNL     1      -0.677   1.179   0.508  0.00  0.00    -0.003 C 
ENDBRANCH  31  33
ENDBRANCH  30  31
ENDBRANCH  28  30
ENDBRANCH   1  28
TORSDOF 9
