REMARK  Name = ZINC17851206
REMARK  6 active torsions:
REMARK  status: ('A' for Active; 'I' for Inactive)
REMARK    1  A    between atoms: C_1  and  C_2
REMARK    2  A    between atoms: C_2  and  C_4
REMARK    3  A    between atoms: C_2  and  N_14
REMARK    4  A    between atoms: C_7  and  S_10
REMARK    5  A    between atoms: S_10  and  N_13
REMARK    6  A    between atoms: C_15  and  C_17
REMARK                            x       y       z     vdW  Elec       q    Type
REMARK                         _______ _______ _______ _____ _____    ______ ____
ROOT
ATOM      1  N   UNL     1      -2.250   3.801   5.822  0.00  0.00    -0.304 N 
ATOM      2  C   UNL     1      -2.528   3.834   7.140  0.00  0.00    +0.251 C 
ATOM      3  O   UNL     1      -3.510   3.258   7.570  0.00  0.00    -0.270 OA
ATOM      4  H   UNL     1      -1.467   4.260   5.479  0.00  0.00    +0.150 HD
ENDROOT
BRANCH   2   5
ATOM      5  C   UNL     1      -1.647   4.562   8.056  0.00  0.00    +0.075 A 
ATOM      6  C   UNL     1      -1.754   4.716   9.431  0.00  0.00    +0.025 A 
ATOM      7  C   UNL     1      -0.811   5.450  10.107  0.00  0.00    -0.032 A 
ATOM      8  C   UNL     1       0.221   5.992   9.335  0.00  0.00    +0.023 A 
ATOM      9  S   UNL     1      -0.153   5.475   7.690  0.00  0.00    -0.083 S 
ATOM     10  C   UNL     1       1.318   6.781   9.887  0.00  0.00    -0.008 A 
ATOM     11  C   UNL     1       2.184   7.533   9.105  0.00  0.00    +0.009 A 
ATOM     12  C   UNL     1       3.183   8.274   9.707  0.00  0.00    +0.001 A 
ATOM     13  C   UNL     1       3.320   8.258  11.084  0.00  0.00    +0.000 A 
ATOM     14  C   UNL     1       2.477   7.490  11.866  0.00  0.00    +0.004 A 
ATOM     15  C   UNL     1       1.484   6.733  11.281  0.00  0.00    -0.039 A 
ATOM     16  C   UNL     1       0.621   5.828  12.114  0.00  0.00    +0.040 C 
ATOM     17  C   UNL     1      -0.813   5.731  11.604  0.00  0.00    +0.041 C 
ENDBRANCH   2   5
BRANCH   1  19
ATOM     18  C   UNL     1      -4.294   3.975   4.489  0.00  0.00    +0.033 C 
ATOM     19  C   UNL     1      -3.131   3.072   4.906  0.00  0.00    +0.100 C 
BRANCH  19  20
ATOM     20  C   UNL     1      -2.353   2.659   3.683  0.00  0.00    -0.027 A 
ATOM     21  C   UNL     1      -2.559   1.412   3.121  0.00  0.00    +0.007 A 
ATOM     22  C   UNL     1      -1.846   1.033   2.000  0.00  0.00    +0.029 A 
ATOM     23  C   UNL     1      -0.927   1.900   1.439  0.00  0.00    +0.105 A 
ATOM     24  C   UNL     1      -0.717   3.145   2.004  0.00  0.00    +0.029 A 
ATOM     25  C   UNL     1      -1.434   3.526   3.123  0.00  0.00    +0.007 A 
BRANCH  23  26
ATOM     26  S   UNL     1      -0.017   1.417   0.010  0.00  0.00    +0.056 S 
ATOM     27  O   UNL     1       0.002  -0.004   0.002  0.00  0.00    -0.153 OA
ATOM     28  O   UNL     1       1.172   2.195   0.003  0.00  0.00    -0.153 OA
BRANCH  26  29
ATOM     29  N   UNL     1      -0.897   1.885  -1.312  0.00  0.00    -0.204 NA
ATOM     30  H   UNL     1      -1.201   1.223  -1.952  0.00  0.00    +0.144 HD
ATOM     31  H   UNL     1      -1.110   2.822  -1.446  0.00  0.00    +0.144 HD
ENDBRANCH  26  29
ENDBRANCH  23  26
ENDBRANCH  19  20
ENDBRANCH   1  19
TORSDOF 5
