REMARK  Name = ZINC12428273
REMARK  2 active torsions:
REMARK  status: ('A' for Active; 'I' for Inactive)
REMARK    1  A    between atoms: C_2  and  C_27
REMARK    2  A    between atoms: C_6  and  C_7
REMARK                            x       y       z     vdW  Elec       q    Type
REMARK                         _______ _______ _______ _____ _____    ______ ____
ROOT
ATOM      1  C   UNL     1      -0.013   1.382  -0.094  0.00  0.00    +0.033 A 
ATOM      2  C   UNL     1       1.161   2.094   0.002  0.00  0.00    +0.031 A 
ATOM      3  C   UNL     1       2.384   1.386   0.094  0.00  0.00    +0.040 A 
ATOM      4  C   UNL     1       2.296  -0.020   0.078  0.00  0.00    +0.112 A 
ATOM      5  N   UNL     1       1.149  -0.657  -0.016  0.00  0.00    -0.244 NA
ATOM      6  C   UNL     1       0.006  -0.004  -0.102  0.00  0.00    +0.049 A 
ATOM      7  S   UNL     1       3.984  -0.556   0.207  0.00  0.00    -0.063 S 
ATOM      8  C   UNL     1       4.775   1.031   0.278  0.00  0.00    +0.085 A 
ATOM      9  H   UNL     1       3.380   3.963   0.187  0.00  0.00    +0.169 HD
ATOM     10  C   UNL     1       3.740   1.946   0.203  0.00  0.00    +0.070 A 
ATOM     11  N   UNL     1       4.083   3.296   0.238  0.00  0.00    -0.321 N 
ATOM     12  C   UNL     1       5.356   3.698   0.339  0.00  0.00    +0.253 A 
ATOM     13  O   UNL     1       5.604   4.894   0.366  0.00  0.00    -0.268 OA
ATOM     14  C   UNL     1       6.410   2.780   0.416  0.00  0.00    +0.122 A 
ATOM     15  C   UNL     1       6.115   1.428   0.385  0.00  0.00    +0.200 A 
ATOM     16  O   UNL     1       7.104   0.505   0.457  0.00  0.00    -0.286 OA
ENDROOT
BRANCH   6  17
ATOM     17  C   UNL     1      -1.288  -0.769  -0.207  0.00  0.00    +0.014 C 
ATOM     18  C   UNL     1      -2.024  -0.715   1.133  0.00  0.00    +0.016 C 
ATOM     19  C   UNL     1      -3.337  -1.492   1.026  0.00  0.00    -0.010 C 
ATOM     20  C   UNL     1      -3.040  -2.949   0.665  0.00  0.00    +0.007 C 
ATOM     21  C   UNL     1      -2.304  -3.003  -0.675  0.00  0.00    -0.010 C 
ATOM     22  C   UNL     1      -0.991  -2.226  -0.568  0.00  0.00    +0.016 C 
ATOM     23  C   UNL     1      -3.179  -2.377  -1.763  0.00  0.00    +0.007 C 
ATOM     24  C   UNL     1      -3.477  -0.920  -1.402  0.00  0.00    -0.010 C 
ATOM     25  C   UNL     1      -4.213  -0.867  -0.062  0.00  0.00    +0.007 C 
ATOM     26  C   UNL     1      -2.163  -0.143  -1.295  0.00  0.00    +0.016 C 
ENDBRANCH   6  17
BRANCH   2  27
ATOM     27  C   UNL     1       1.145   3.600   0.010  0.00  0.00    +0.372 C 
ATOM     28  F   UNL     1       1.709   4.067   1.202  0.00  0.00    -0.204 F 
ATOM     29  F   UNL     1       1.887   4.080  -1.075  0.00  0.00    -0.204 F 
ENDBRANCH   2  27
TORSDOF 2
