REMARK  Name = ZINC11917633
REMARK  8 active torsions:
REMARK  status: ('A' for Active; 'I' for Inactive)
REMARK    1  A    between atoms: C_1  and  C_2
REMARK    2  A    between atoms: C_2  and  C_3
REMARK    3  A    between atoms: C_2  and  C_4
REMARK    4  A    between atoms: C_4  and  C_6
REMARK    5  A    between atoms: C_4  and  N_22
REMARK    6  A    between atoms: N_8  and  C_9
REMARK    7  A    between atoms: N_22  and  S_23
REMARK    8  A    between atoms: S_23  and  C_26
REMARK                            x       y       z     vdW  Elec       q    Type
REMARK                         _______ _______ _______ _____ _____    ______ ____
ROOT
ATOM      1  C   UNL     1      -2.413   0.906   0.023  0.00  0.00    +0.236 C 
ATOM      2  O   UNL     1      -2.603  -0.288   0.121  0.00  0.00    -0.274 OA
ATOM      3  N   UNL     1      -1.156   1.384  -0.057  0.00  0.00    -0.284 N 
ATOM      4  H   UNL     1      -1.000   2.341  -0.072  0.00  0.00    +0.155 HD
ENDROOT
BRANCH   3   5
ATOM      5  C   UNL     1      -0.072   0.498  -0.118  0.00  0.00    +0.037 A 
ATOM      6  C   UNL     1       1.040   0.814  -0.887  0.00  0.00    +0.027 A 
ATOM      7  C   UNL     1       2.113  -0.056  -0.944  0.00  0.00    +0.051 A 
ATOM      8  C   UNL     1       2.081  -1.243  -0.234  0.00  0.00    +0.167 A 
ATOM      9  C   UNL     1       0.964  -1.564   0.537  0.00  0.00    +0.169 A 
ATOM     10  C   UNL     1      -0.109  -0.694   0.594  0.00  0.00    +0.072 A 
ATOM     11  O   UNL     1       1.185  -2.781   1.129  0.00  0.00    -0.447 OA
ATOM     12  C   UNL     1       2.201  -3.380   0.311  0.00  0.00    +0.254 C 
ATOM     13  O   UNL     1       2.992  -2.262  -0.116  0.00  0.00    -0.448 OA
ATOM     14  C   UNL     1       3.039  -4.382   1.112  0.00  0.00    +0.093 C 
ATOM     15  C   UNL     1       2.439  -5.760   0.729  0.00  0.00    +0.008 C 
ATOM     16  C   UNL     1       2.097  -5.583  -0.772  0.00  0.00    +0.008 C 
ATOM     17  C   UNL     1       1.596  -4.125  -0.878  0.00  0.00    +0.093 C 
ENDBRANCH   3   5
BRANCH   1  18
ATOM     18  C   UNL     1      -3.583   1.855  -0.010  0.00  0.00    +0.165 C 
BRANCH  18  20
ATOM     19  C   UNL     1      -4.660   3.806   1.121  0.00  0.00    +0.009 C 
ATOM     20  C   UNL     1      -3.483   2.829   1.166  0.00  0.00    +0.010 C 
ATOM     21  C   UNL     1      -3.518   2.048   2.480  0.00  0.00    +0.009 C 
ENDBRANCH  18  20
BRANCH  18  22
ATOM     22  N   UNL     1      -4.832   1.095   0.091  0.00  0.00    -0.178 NA
ATOM     23  H   UNL     1      -5.154   0.806   0.959  0.00  0.00    +0.149 HD
BRANCH  22  24
ATOM     24  S   UNL     1      -5.692   0.730  -1.276  0.00  0.00    +0.062 S 
ATOM     25  O   UNL     1      -6.827  -0.013  -0.855  0.00  0.00    -0.153 OA
ATOM     26  O   UNL     1      -5.803   1.935  -2.020  0.00  0.00    -0.153 OA
BRANCH  24  27
ATOM     27  C   UNL     1      -4.701  -0.366  -2.237  0.00  0.00    +0.140 A 
ATOM     28  C   UNL     1      -5.093  -1.680  -2.411  0.00  0.00    +0.031 A 
ATOM     29  C   UNL     1      -4.319  -2.538  -3.170  0.00  0.00    +0.002 A 
ATOM     30  C   UNL     1      -3.147  -2.086  -3.746  0.00  0.00    +0.003 A 
ATOM     31  C   UNL     1      -2.750  -0.774  -3.569  0.00  0.00    +0.040 A 
ATOM     32  C   UNL     1      -3.527   0.088  -2.813  0.00  0.00    +0.150 A 
ATOM     33  F   UNL     1      -3.140   1.371  -2.639  0.00  0.00    -0.203 F 
ENDBRANCH  24  27
ENDBRANCH  22  24
ENDBRANCH  18  22
ENDBRANCH   1  18
TORSDOF 6
