REMARK  Name = ZINC58168135
REMARK  6 active torsions:
REMARK  status: ('A' for Active; 'I' for Inactive)
REMARK    1  A    between atoms: C_1  and  N_2
REMARK    2  A    between atoms: N_2  and  C_3
REMARK    3  A    between atoms: C_6  and  C_11
REMARK    4  A    between atoms: C_11  and  C_27
REMARK    5  A    between atoms: C_12  and  C_13
REMARK    6  A    between atoms: C_16  and  C_18
REMARK                            x       y       z     vdW  Elec       q    Type
REMARK                         _______ _______ _______ _____ _____    ______ ____
ROOT
ATOM      1  C   UNL     1       0.047  -4.153  -2.369  0.00  0.00    +0.099 C 
ATOM      2  C   UNL     1      -0.067  -4.837  -3.563  0.00  0.00    +0.068 C 
ENDROOT
BRANCH   1   8
ATOM      3  C   UNL     1       2.303   1.512  -2.375  0.00  0.00    +0.132 C 
ATOM      4  N   UNL     1       2.327   0.047  -2.391  0.00  0.00    -0.306 N 
ATOM      5  C   UNL     1       3.607  -0.664  -2.428  0.00  0.00    +0.132 C 
ATOM      6  C   UNL     1       1.144  -0.663  -2.371  0.00  0.00    +0.222 A 
ATOM      7  N   UNL     1       1.166  -1.992  -2.379  0.00  0.00    -0.194 NA
ATOM      8  C   UNL     1       0.024  -2.677  -2.360  0.00  0.00    +0.177 A 
ATOM      9  N   UNL     1      -1.140  -2.028  -2.331  0.00  0.00    -0.194 NA
ATOM     10  C   UNL     1      -1.159  -0.700  -2.323  0.00  0.00    +0.217 A 
ATOM     11  N   UNL     1      -0.018  -0.017  -2.337  0.00  0.00    -0.181 NA
ATOM     12  N   UNL     1      -2.365  -0.027  -2.294  0.00  0.00    -0.327 N 
ATOM     13  H   UNL     1      -3.194  -0.522  -2.206  0.00  0.00    +0.145 HD
ATOM     14  H   UNL     1      -2.382   0.940  -2.361  0.00  0.00    +0.145 HD
ENDBRANCH   1   8
BRANCH   2  15
ATOM     15  C   UNL     1      -0.088  -4.130  -4.782  0.00  0.00    +0.130 A 
ATOM     16  C   UNL     1      -0.096  -4.693  -6.048  0.00  0.00    +0.050 A 
ATOM     17  C   UNL     1      -0.116  -3.637  -6.960  0.00  0.00    +0.052 A 
ATOM     18  C   UNL     1      -0.120  -2.470  -6.225  0.00  0.00    +0.161 A 
ATOM     19  O   UNL     1      -0.109  -2.788  -4.917  0.00  0.00    -0.453 OA
BRANCH  18  20
ATOM     20  C   UNL     1      -0.139  -1.108  -6.777  0.00  0.00    +0.144 A 
ATOM     21  N   UNL     1      -0.247  -0.726  -8.034  0.00  0.00    -0.236 NA
ATOM     22  C   UNL     1      -0.251   0.563  -8.399  0.00  0.00    +0.079 A 
ATOM     23  C   UNL     1      -0.359   1.102  -9.705  0.00  0.00    +0.029 A 
ATOM     24  C   UNL     1      -0.346   2.446  -9.908  0.00  0.00    +0.002 A 
ATOM     25  C   UNL     1      -0.227   3.341  -8.853  0.00  0.00    +0.001 A 
ATOM     26  C   UNL     1      -0.119   2.859  -7.562  0.00  0.00    +0.017 A 
ATOM     27  C   UNL     1      -0.131   1.503  -7.346  0.00  0.00    +0.040 A 
ATOM     28  S   UNL     1      -0.031   0.455  -5.915  0.00  0.00    -0.064 S 
ENDBRANCH  18  20
ENDBRANCH   2  15
BRANCH   1  29
ATOM     29  C   UNL     1       0.188  -4.875  -1.141  0.00  0.00    +0.103 C 
ATOM     30  N   UNL     1       0.300  -5.448  -0.167  0.00  0.00    -0.191 NA
ENDBRANCH   1  29
TORSDOF 4
