REMARK  Name = ZINC02909670
REMARK  10 active torsions:
REMARK  status: ('A' for Active; 'I' for Inactive)
REMARK    1  A    between atoms: C_1  and  C_2
REMARK    2  A    between atoms: C_2  and  O_3
REMARK    3  A    between atoms: O_3  and  C_4
REMARK    4  A    between atoms: C_4  and  C_6
REMARK    5  A    between atoms: C_9  and  N_12
REMARK    6  A    between atoms: C_13  and  C_15
REMARK    7  A    between atoms: C_19  and  N_20
REMARK    8  A    between atoms: N_20  and  C_21
REMARK    9  A    between atoms: C_21  and  C_22
REMARK   10  A    between atoms: C_23  and  C_27
REMARK                            x       y       z     vdW  Elec       q    Type
REMARK                         _______ _______ _______ _____ _____    ______ ____
ROOT
ATOM      1  C   UNL     1       4.326  -5.758  -7.123  0.00  0.00    +0.069 A 
ATOM      2  C   UNL     1       5.769  -5.950  -7.034  0.00  0.00    -0.023 A 
ATOM      3  C   UNL     1       6.325  -6.446  -8.157  0.00  0.00    -0.005 A 
ATOM      4  S   UNL     1       4.971  -6.657  -9.278  0.00  0.00    -0.078 S 
ATOM      5  C   UNL     1       3.711  -6.109  -8.314  0.00  0.00    +0.078 A 
ATOM      6  C   UNL     1       7.771  -6.741  -8.408  0.00  0.00    +0.043 C 
ATOM      7  C   UNL     1       8.330  -7.555  -7.233  0.00  0.00    +0.005 C 
ATOM      8  C   UNL     1       8.858  -6.588  -6.178  0.00  0.00    +0.001 C 
ATOM      9  C   UNL     1       8.016  -5.314  -6.162  0.00  0.00    +0.005 C 
ATOM     10  C   UNL     1       6.574  -5.633  -5.782  0.00  0.00    +0.037 C 
ENDROOT
BRANCH   1  12
ATOM     11  N   UNL     1       3.368  -3.894  -5.883  0.00  0.00    -0.281 N 
ATOM     12  C   UNL     1       3.558  -5.223  -5.998  0.00  0.00    +0.251 C 
ATOM     13  O   UNL     1       3.090  -5.979  -5.166  0.00  0.00    -0.270 OA
ATOM     14  H   UNL     1       3.683  -3.297  -6.580  0.00  0.00    +0.155 HD
BRANCH  11  18
ATOM     15  C   UNL     1       1.430  -2.349  -2.537  0.00  0.00    +0.059 A 
ATOM     16  C   UNL     1       2.473  -1.635  -3.134  0.00  0.00    +0.017 A 
ATOM     17  C   UNL     1       3.112  -2.149  -4.240  0.00  0.00    +0.024 A 
ATOM     18  C   UNL     1       2.720  -3.377  -4.763  0.00  0.00    +0.034 A 
ATOM     19  C   UNL     1       1.681  -4.090  -4.172  0.00  0.00    +0.024 A 
ATOM     20  C   UNL     1       1.042  -3.585  -3.062  0.00  0.00    +0.017 A 
BRANCH  15  21
ATOM     21  C   UNL     1       0.744  -1.802  -1.352  0.00  0.00    +0.339 C 
ATOM     22  O   UNL     1      -0.160  -2.426  -0.831  0.00  0.00    -0.245 OA
BRANCH  21  23
ATOM     23  O   UNL     1       1.119  -0.610  -0.846  0.00  0.00    -0.461 OA
BRANCH  23  25
ATOM     24  C   UNL     1       0.972   1.216   0.729  0.00  0.00    +0.048 C 
ATOM     25  C   UNL     1       0.411  -0.141   0.303  0.00  0.00    +0.229 C 
ENDBRANCH  23  25
ENDBRANCH  21  23
ENDBRANCH  15  21
ENDBRANCH  11  18
ENDBRANCH   1  12
BRANCH   5  26
ATOM     26  N   UNL     1       2.370  -6.025  -8.635  0.00  0.00    -0.333 N 
ATOM     27  H   UNL     1       1.736  -5.686  -7.984  0.00  0.00    +0.147 HD
BRANCH  26  28
ATOM     28  C   UNL     1       1.905  -6.448  -9.959  0.00  0.00    +0.144 C 
BRANCH  28  29
ATOM     29  C   UNL     1       0.413  -6.256 -10.053  0.00  0.00    +0.010 A 
ATOM     30  C   UNL     1      -0.283  -5.173 -10.475  0.00  0.00    -0.039 A 
ATOM     31  C   UNL     1      -1.664  -5.222 -10.476  0.00  0.00    +0.011 A 
ATOM     32  C   UNL     1      -2.282  -6.353 -10.055  0.00  0.00    +0.046 A 
ATOM     33  S   UNL     1      -0.895  -7.399  -9.643  0.00  0.00    -0.100 S 
ATOM     34  C   UNL     1       0.438  -3.932 -10.937  0.00  0.00    +0.044 C 
ENDBRANCH  28  29
ENDBRANCH  26  28
ENDBRANCH   5  26
TORSDOF 8
