REMARK  Name = ZINC62038574
REMARK  9 active torsions:
REMARK  status: ('A' for Active; 'I' for Inactive)
REMARK    1  A    between atoms: C_1  and  C_2
REMARK    2  A    between atoms: C_5  and  C_9
REMARK    3  A    between atoms: C_7  and  C_8
REMARK    4  A    between atoms: C_17  and  S_19
REMARK    5  A    between atoms: S_19  and  C_20
REMARK    6  A    between atoms: C_20  and  C_22
REMARK    7  A    between atoms: C_20  and  C_23
REMARK    8  A    between atoms: N_25  and  C_26
REMARK    9  A    between atoms: C_31  and  O_32
REMARK                            x       y       z     vdW  Elec       q    Type
REMARK                         _______ _______ _______ _____ _____    ______ ____
ROOT
ATOM      1  C   UNL     1       0.003  -4.234   0.026  0.00  0.00    +0.004 A 
ATOM      2  C   UNL     1       0.902  -4.914   0.777  0.00  0.00    +0.056 A 
ATOM      3  S   UNL     1       0.524  -6.620   0.422  0.00  0.00    -0.078 S 
ATOM      4  C   UNL     1      -0.815  -6.376  -0.714  0.00  0.00    +0.093 A 
ATOM      5  C   UNL     1      -0.944  -4.989  -0.787  0.00  0.00    +0.080 A 
ATOM      6  C   UNL     1      -2.017  -4.498  -1.683  0.00  0.00    +0.283 A 
ATOM      7  O   UNL     1      -2.206  -3.299  -1.819  0.00  0.00    -0.265 OA
ATOM      8  N   UNL     1      -2.776  -5.379  -2.340  0.00  0.00    -0.185 NA
ATOM      9  C   UNL     1      -2.607  -6.680  -2.224  0.00  0.00    +0.171 A 
ATOM     10  N   UNL     1      -1.632  -7.200  -1.426  0.00  0.00    -0.328 N 
ATOM     11  H   UNL     1      -1.528  -8.162  -1.356  0.00  0.00    +0.168 HD
ENDROOT
BRANCH   1  16
ATOM     12  C   UNL     1      -0.095   1.523   0.059  0.00  0.00    +0.044 C 
ATOM     13  C   UNL     1      -0.069   0.016   0.051  0.00  0.00    -0.048 A 
ATOM     14  C   UNL     1      -0.054  -0.666  -1.153  0.00  0.00    +0.004 A 
ATOM     15  C   UNL     1      -0.031  -2.045  -1.167  0.00  0.00    +0.009 A 
ATOM     16  C   UNL     1      -0.022  -2.752   0.035  0.00  0.00    -0.016 A 
ATOM     17  C   UNL     1      -0.036  -2.059   1.244  0.00  0.00    +0.012 A 
ATOM     18  C   UNL     1      -0.055  -0.679   1.246  0.00  0.00    -0.047 A 
ATOM     19  C   UNL     1      -0.065   0.071   2.553  0.00  0.00    +0.044 C 
ENDBRANCH   1  16
BRANCH   9  20
ATOM     20  S   UNL     1      -3.655  -7.770  -3.128  0.00  0.00    -0.075 S 
BRANCH  20  21
ATOM     21  C   UNL     1      -4.762  -6.659  -4.040  0.00  0.00    +0.137 C 
ATOM     22  C   UNL     1      -5.635  -5.884  -3.050  0.00  0.00    +0.029 C 
BRANCH  21  23
ATOM     23  C   UNL     1      -5.641  -7.468  -4.958  0.00  0.00    +0.230 C 
ATOM     24  O   UNL     1      -5.877  -8.630  -4.704  0.00  0.00    -0.274 OA
ATOM     25  N   UNL     1      -6.164  -6.900  -6.063  0.00  0.00    -0.282 N 
ATOM     26  H   UNL     1      -6.029  -5.955  -6.233  0.00  0.00    +0.155 HD
BRANCH  25  27
ATOM     27  C   UNL     1      -6.904  -7.675  -6.966  0.00  0.00    +0.077 A 
ATOM     28  C   UNL     1      -7.700  -8.712  -6.502  0.00  0.00    +0.047 A 
ATOM     29  C   UNL     1      -8.429  -9.476  -7.395  0.00  0.00    +0.043 A 
ATOM     30  C   UNL     1      -8.366  -9.208  -8.752  0.00  0.00    +0.023 A 
ATOM     31  C   UNL     1      -7.574  -8.176  -9.220  0.00  0.00    +0.049 A 
ATOM     32  C   UNL     1      -6.845  -7.403  -8.331  0.00  0.00    +0.138 A 
ATOM     33 CL   UNL     1      -9.426 -10.773  -6.814  0.00  0.00    -0.083 Cl
BRANCH  32  34
ATOM     34  O   UNL     1      -6.071  -6.384  -8.790  0.00  0.00    -0.505 OA
ATOM     35  H   UNL     1      -5.164  -6.645  -9.005  0.00  0.00    +0.292 HD
ENDBRANCH  32  34
ENDBRANCH  25  27
ENDBRANCH  21  23
ENDBRANCH  20  21
ENDBRANCH   9  20
TORSDOF 6
