REMARK  Name = ZINC62834434
REMARK  5 active torsions:
REMARK  status: ('A' for Active; 'I' for Inactive)
REMARK    1  A    between atoms: C_1  and  N_2
REMARK    2  A    between atoms: N_2  and  C_3
REMARK    3  A    between atoms: C_3  and  C_4
REMARK    4  A    between atoms: C_10  and  C_12
REMARK    5  A    between atoms: C_16  and  N_22
REMARK                            x       y       z     vdW  Elec       q    Type
REMARK                         _______ _______ _______ _____ _____    ______ ____
ROOT
ATOM      1  C   UNL     1      -0.124   0.065  -2.435  0.00  0.00    +0.103 A 
ATOM      2  C   UNL     1      -0.326  -0.485  -3.661  0.00  0.00    +0.041 A 
ATOM      3  C   UNL     1      -0.274   0.559  -4.617  0.00  0.00    +0.002 A 
ATOM      4  C   UNL     1      -0.409   0.593  -6.011  0.00  0.00    +0.032 A 
ATOM      5  C   UNL     1      -0.304   1.796  -6.678  0.00  0.00    +0.025 A 
ATOM      6  C   UNL     1      -0.065   2.975  -5.971  0.00  0.00    +0.025 A 
ATOM      7  C   UNL     1       0.071   2.955  -4.602  0.00  0.00    +0.028 A 
ATOM      8  C   UNL     1      -0.032   1.752  -3.909  0.00  0.00    +0.047 A 
ATOM      9  N   UNL     1       0.051   1.428  -2.573  0.00  0.00    -0.351 N 
ATOM     10  H   UNL     1       0.209   2.053  -1.849  0.00  0.00    +0.166 HD
ENDROOT
BRANCH   1  13
ATOM     11  C   UNL     1      -0.179   1.459   0.014  0.00  0.00    +0.132 C 
ATOM     12  N   UNL     1      -0.062  -0.002   0.004  0.00  0.00    -0.295 N 
ATOM     13  C   UNL     1      -0.102  -0.673  -1.163  0.00  0.00    +0.263 C 
ATOM     14  O   UNL     1      -0.119  -1.889  -1.165  0.00  0.00    -0.268 OA
BRANCH  12  15
ATOM     15  C   UNL     1       0.099  -0.732   1.264  0.00  0.00    +0.143 C 
BRANCH  15  16
ATOM     16  C   UNL     1      -1.258  -1.097   1.810  0.00  0.00    -0.022 A 
ATOM     17  C   UNL     1      -1.926  -0.235   2.661  0.00  0.00    +0.028 A 
ATOM     18  C   UNL     1      -3.145  -0.594   3.134  0.00  0.00    +0.055 A 
ATOM     19  S   UNL     1      -3.382  -2.191   2.372  0.00  0.00    -0.090 S 
ATOM     20  C   UNL     1      -1.843  -2.270   1.470  0.00  0.00    +0.051 A 
ATOM     21 BR   UNL     1      -4.296   0.351   4.299  0.00  0.00    -0.043 Br
ENDBRANCH  15  16
ENDBRANCH  12  15
ENDBRANCH   1  13
BRANCH   5  22
ATOM     22  N   UNL     1      -0.439   1.834  -8.071  0.00  0.00    -0.358 N 
ATOM     23  H   UNL     1      -0.605   1.016  -8.565  0.00  0.00    +0.142 HD
ATOM     24  H   UNL     1      -0.365   2.679  -8.542  0.00  0.00    +0.142 HD
ENDBRANCH   5  22
TORSDOF 4
