REMARK  Name = ZINC39420484
REMARK  7 active torsions:
REMARK  status: ('A' for Active; 'I' for Inactive)
REMARK    1  A    between atoms: C_1  and  C_2
REMARK    2  A    between atoms: C_2  and  C_3
REMARK    3  A    between atoms: C_2  and  N_4
REMARK    4  A    between atoms: C_6  and  C_9
REMARK    5  A    between atoms: N_23  and  C_24
REMARK    6  A    between atoms: C_24  and  C_25
REMARK    7  A    between atoms: C_30  and  C_31
REMARK                            x       y       z     vdW  Elec       q    Type
REMARK                         _______ _______ _______ _____ _____    ______ ____
ROOT
ATOM      1  C   UNL     1      -4.505  -1.530   1.576  0.00  0.00    +0.013 C 
ATOM      2  C   UNL     1      -4.550  -3.025   1.784  0.00  0.00    +0.011 A 
ATOM      3  H   UNL     1      -2.569  -3.582   2.109  0.00  0.00    +0.166 HD
ATOM      4  C   UNL     1      -5.698  -3.739   1.744  0.00  0.00    -0.022 A 
ATOM      5  C   UNL     1      -5.351  -5.122   1.981  0.00  0.00    +0.003 A 
ATOM      6  C   UNL     1      -6.110  -6.294   2.052  0.00  0.00    +0.010 A 
ATOM      7  C   UNL     1      -5.429  -7.460   2.301  0.00  0.00    +0.001 A 
ATOM      8  C   UNL     1      -4.055  -7.488   2.475  0.00  0.00    +0.002 A 
ATOM      9  C   UNL     1      -3.280  -6.343   2.410  0.00  0.00    +0.026 A 
ATOM     10  C   UNL     1      -3.943  -5.145   2.158  0.00  0.00    +0.047 A 
ATOM     11  N   UNL     1      -3.495  -3.860   2.033  0.00  0.00    -0.359 N 
ATOM     12  C   UNL     1      -7.049  -3.117   1.495  0.00  0.00    +0.019 C 
ATOM     13  C   UNL     1      -6.912  -1.601   1.695  0.00  0.00    -0.073 C 
ATOM     14  N   UNL     1      -5.758  -1.104   0.933  0.00  0.00    +0.389 N 
ATOM     15  H   UNL     1      -5.795  -1.474  -0.005  0.00  0.00    -0.080 HD
ENDROOT
BRANCH   1  18
ATOM     16  N   UNL     1      -1.372  -0.511   0.012  0.00  0.00    -0.269 N 
ATOM     17  C   UNL     1      -2.142  -0.698   1.105  0.00  0.00    +0.111 A 
ATOM     18  C   UNL     1      -3.337  -1.177   0.691  0.00  0.00    -0.018 A 
ATOM     19  C   UNL     1      -3.298  -1.287  -0.702  0.00  0.00    +0.136 A 
ATOM     20  N   UNL     1      -2.122  -0.882  -1.111  0.00  0.00    -0.179 NA
BRANCH  16  22
ATOM     21  C   UNL     1      -0.019   1.526   0.010  0.00  0.00    +0.032 C 
ATOM     22  C   UNL     1       0.002  -0.004   0.002  0.00  0.00    +0.101 C 
ATOM     23  C   UNL     1       0.742  -0.511   1.242  0.00  0.00    +0.032 C 
ENDBRANCH  16  22
ENDBRANCH   1  18
BRANCH  14  24
ATOM     24  C   UNL     1      -5.802   0.363   0.876  0.00  0.00    -0.062 C 
BRANCH  24  25
ATOM     25  C   UNL     1      -7.043   0.806   0.098  0.00  0.00    +0.062 C 
ATOM     26  C   UNL     1      -6.911   0.445  -1.368  0.00  0.00    +0.115 C 
ATOM     27  N   UNL     1      -6.944   1.565  -2.013  0.00  0.00    -0.161 NA
ATOM     28  N   UNL     1      -7.083   2.660  -1.167  0.00  0.00    -0.158 NA
ATOM     29  C   UNL     1      -7.151   2.318   0.081  0.00  0.00    +0.051 C 
BRANCH  29  30
ATOM     30  C   UNL     1      -7.304   3.232   1.270  0.00  0.00    +0.036 C 
ATOM     31  C   UNL     1      -8.649   2.963   1.948  0.00  0.00    +0.009 C 
ATOM     32  C   UNL     1      -8.805   3.890   3.156  0.00  0.00    +0.001 C 
ATOM     33  C   UNL     1      -8.750   5.347   2.690  0.00  0.00    +0.000 C 
ATOM     34  C   UNL     1      -7.405   5.615   2.012  0.00  0.00    +0.001 C 
ATOM     35  C   UNL     1      -7.249   4.688   0.804  0.00  0.00    +0.009 C 
ENDBRANCH  29  30
ENDBRANCH  24  25
ENDBRANCH  14  24
TORSDOF 5
