REMARK  Name = ZINC36490971
REMARK  8 active torsions:
REMARK  status: ('A' for Active; 'I' for Inactive)
REMARK    1  A    between atoms: C_3  and  C_10
REMARK    2  A    between atoms: C_5  and  N_7
REMARK    3  A    between atoms: N_12  and  C_13
REMARK    4  A    between atoms: N_12  and  C_19
REMARK    5  A    between atoms: C_19  and  C_21
REMARK    6  A    between atoms: C_19  and  C_28
REMARK    7  A    between atoms: C_24  and  O_27
REMARK    8  A    between atoms: N_30  and  C_31
REMARK                            x       y       z     vdW  Elec       q    Type
REMARK                         _______ _______ _______ _____ _____    ______ ____
ROOT
ATOM      1  C   UNL     1       4.904   4.216  -0.485  0.00  0.00    +0.193 C 
ENDROOT
BRANCH   1   2
ATOM      2  C   UNL     1       5.105   5.404   0.420  0.00  0.00    -0.018 A 
ATOM      3  C   UNL     1       5.087   6.683  -0.104  0.00  0.00    +0.009 A 
ATOM      4  C   UNL     1       5.271   7.773   0.724  0.00  0.00    +0.046 A 
ATOM      5  C   UNL     1       5.475   7.584   2.083  0.00  0.00    +0.117 A 
ATOM      6  C   UNL     1       5.493   6.300   2.607  0.00  0.00    +0.046 A 
ATOM      7  C   UNL     1       5.303   5.213   1.775  0.00  0.00    +0.009 A 
BRANCH   5   8
ATOM      8  O   UNL     1       5.658   8.655   2.899  0.00  0.00    -0.507 OA
ATOM      9  H   UNL     1       4.839   9.009   3.273  0.00  0.00    +0.292 HD
ENDBRANCH   5   8
ENDBRANCH   1   2
BRANCH   1  10
ATOM     10  C   UNL     1       4.546   4.695  -1.869  0.00  0.00    +0.238 C 
ATOM     11  O   UNL     1       3.455   4.441  -2.335  0.00  0.00    -0.273 OA
ATOM     12  N   UNL     1       5.437   5.405  -2.588  0.00  0.00    -0.311 N 
ATOM     13  H   UNL     1       6.309   5.608  -2.215  0.00  0.00    +0.149 HD
BRANCH  12  14
ATOM     14  C   UNL     1       5.089   5.870  -3.933  0.00  0.00    +0.073 C 
ATOM     15  C   UNL     1       5.376   4.761  -4.947  0.00  0.00    +0.022 C 
ATOM     16  C   UNL     1       5.012   5.246  -6.351  0.00  0.00    +0.002 C 
ATOM     17  C   UNL     1       5.848   6.481  -6.696  0.00  0.00    +0.000 C 
ATOM     18  C   UNL     1       5.561   7.590  -5.683  0.00  0.00    +0.002 C 
ATOM     19  C   UNL     1       5.924   7.105  -4.278  0.00  0.00    +0.022 C 
ENDBRANCH  12  14
ENDBRANCH   1  10
BRANCH   1  22
ATOM     20  C   UNL     1       4.058   2.095   0.364  0.00  0.00    +0.248 C 
ATOM     21  O   UNL     1       5.196   1.666   0.355  0.00  0.00    -0.270 OA
ATOM     22  N   UNL     1       3.820   3.381   0.038  0.00  0.00    -0.279 N 
BRANCH  20  25
ATOM     23  C   UNL     1       0.605   0.890   1.220  0.00  0.00    +0.003 A 
ATOM     24  C   UNL     1       1.649   1.726   0.878  0.00  0.00    +0.013 A 
ATOM     25  C   UNL     1       2.935   1.206   0.730  0.00  0.00    +0.039 A 
ATOM     26  C   UNL     1       3.158  -0.158   0.930  0.00  0.00    +0.045 A 
ATOM     27  C   UNL     1       2.106  -0.982   1.272  0.00  0.00    +0.127 A 
ATOM     28  C   UNL     1       0.833  -0.460   1.417  0.00  0.00    +0.033 A 
BRANCH  27  29
ATOM     29  N   UNL     1       2.340  -2.428   1.484  0.00  0.00    +0.056 N 
ATOM     30  O   UNL     1       3.452  -2.886   1.359  0.00  0.00    -0.126 OA
ATOM     31  O   UNL     1       1.419  -3.152   1.784  0.00  0.00    -0.126 OA
ENDBRANCH  27  29
ENDBRANCH  20  25
BRANCH  22  32
ATOM     32  C   UNL     1       2.478   3.944   0.208  0.00  0.00    +0.077 C 
ATOM     33  C   UNL     1       1.537   3.343  -0.838  0.00  0.00    +0.022 C 
ATOM     34  C   UNL     1       0.136   3.931  -0.660  0.00  0.00    +0.002 C 
ATOM     35  C   UNL     1       0.193   5.449  -0.837  0.00  0.00    +0.000 C 
ATOM     36  C   UNL     1       1.135   6.050   0.209  0.00  0.00    +0.002 C 
ATOM     37  C   UNL     1       2.536   5.462   0.031  0.00  0.00    +0.022 C 
ENDBRANCH  22  32
ENDBRANCH   1  22
TORSDOF 8
