REMARK  Name = ZINC03521844
REMARK  8 active torsions:
REMARK  status: ('A' for Active; 'I' for Inactive)
REMARK    1  A    between atoms: C_1  and  C_2
REMARK    2  A    between atoms: C_12  and  S_14
REMARK    3  A    between atoms: S_14  and  C_15
REMARK    4  A    between atoms: C_15  and  C_17
REMARK    5  A    between atoms: C_15  and  C_18
REMARK    6  A    between atoms: N_20  and  C_21
REMARK    7  A    between atoms: C_24  and  S_27
REMARK    8  A    between atoms: S_27  and  N_30
REMARK                            x       y       z     vdW  Elec       q    Type
REMARK                         _______ _______ _______ _____ _____    ______ ____
ROOT
ATOM      1  C   UNL     1      -0.007   1.089   0.006  0.00  0.00    +0.136 C 
ATOM      2  C   UNL     1       1.425   1.629  -0.009  0.00  0.00    +0.029 C 
ENDROOT
BRANCH   1   3
ATOM      3  C   UNL     1      -0.743   1.584  -1.212  0.00  0.00    +0.230 C 
ATOM      4  O   UNL     1      -1.427   2.583  -1.144  0.00  0.00    -0.274 OA
ATOM      5  N   UNL     1      -0.641   0.916  -2.378  0.00  0.00    -0.285 N 
ATOM      6  H   UNL     1      -0.042   0.157  -2.451  0.00  0.00    +0.155 HD
BRANCH   5   7
ATOM      7  C   UNL     1      -1.399   1.318  -3.484  0.00  0.00    +0.034 A 
ATOM      8  C   UNL     1      -1.888   0.371  -4.374  0.00  0.00    +0.025 A 
ATOM      9  C   UNL     1      -2.640   0.770  -5.461  0.00  0.00    +0.030 A 
ATOM     10  C   UNL     1      -2.897   2.113  -5.670  0.00  0.00    +0.105 A 
ATOM     11  C   UNL     1      -2.407   3.059  -4.788  0.00  0.00    +0.030 A 
ATOM     12  C   UNL     1      -1.659   2.666  -3.696  0.00  0.00    +0.025 A 
BRANCH  10  13
ATOM     13  S   UNL     1      -3.852   2.619  -7.061  0.00  0.00    +0.056 S 
ATOM     14  O   UNL     1      -4.653   1.505  -7.431  0.00  0.00    -0.153 OA
ATOM     15  O   UNL     1      -4.411   3.884  -6.732  0.00  0.00    -0.153 OA
BRANCH  13  16
ATOM     16  N   UNL     1      -2.797   2.879  -8.311  0.00  0.00    -0.204 NA
ATOM     17  H   UNL     1      -1.845   2.743  -8.178  0.00  0.00    +0.144 HD
ATOM     18  H   UNL     1      -3.130   3.167  -9.175  0.00  0.00    +0.144 HD
ENDBRANCH  13  16
ENDBRANCH  10  13
ENDBRANCH   5   7
ENDBRANCH   1   3
BRANCH   1  19
ATOM     19  S   UNL     1      -0.854   1.667   1.498  0.00  0.00    -0.093 S 
BRANCH  19  31
ATOM     20  C   UNL     1       2.990  -1.438   2.816  0.00  0.00    +0.088 C 
ATOM     21  C   UNL     1       1.850  -0.569   3.281  0.00  0.00    +0.128 A 
ATOM     22  N   UNL     1       1.610  -0.458   4.574  0.00  0.00    -0.225 NA
ATOM     23  C   UNL     1       0.617   0.298   5.003  0.00  0.00    +0.113 A 
ATOM     24  C   UNL     1      -0.209   1.003   4.109  0.00  0.00    +0.043 A 
ATOM     25  C   UNL     1      -1.278   1.809   4.720  0.00  0.00    -0.025 A 
ATOM     26  C   UNL     1      -1.361   1.792   6.060  0.00  0.00    -0.004 A 
ATOM     27  S   UNL     1      -0.043   0.722   6.591  0.00  0.00    -0.073 S 
ATOM     28  C   UNL     1      -2.490   2.646   6.571  0.00  0.00    +0.043 C 
ATOM     29  C   UNL     1      -3.392   2.875   5.338  0.00  0.00    +0.010 C 
ATOM     30  C   UNL     1      -2.385   2.721   4.182  0.00  0.00    +0.037 C 
ATOM     31  C   UNL     1       0.099   0.843   2.729  0.00  0.00    +0.110 A 
ATOM     32  N   UNL     1       1.111   0.060   2.385  0.00  0.00    -0.225 NA
ENDBRANCH  19  31
ENDBRANCH   1  19
TORSDOF 6
