REMARK  Name = ZINC17831821
REMARK  9 active torsions:
REMARK  status: ('A' for Active; 'I' for Inactive)
REMARK    1  A    between atoms: C_4  and  C_7
REMARK    2  A    between atoms: C_18  and  C_20
REMARK    3  A    between atoms: C_20  and  O_21
REMARK    4  A    between atoms: O_21  and  C_22
REMARK    5  A    between atoms: C_22  and  C_24
REMARK    6  A    between atoms: C_24  and  C_25
REMARK    7  A    between atoms: C_25  and  C_26
REMARK    8  A    between atoms: C_29  and  S_32
REMARK    9  A    between atoms: S_32  and  N_35
REMARK                            x       y       z     vdW  Elec       q    Type
REMARK                         _______ _______ _______ _____ _____    ______ ____
ROOT
ATOM      1  C   UNL     1       2.813   1.486  -0.372  0.00  0.00    +0.122 C 
ATOM      2  C   UNL     1       2.775   1.473   1.163  0.00  0.00    +0.102 C 
ATOM      3  S   UNL     1       1.030   1.423   1.671  0.00  0.00    -0.121 S 
ATOM      4  C   UNL     1       0.341   0.175   0.631  0.00  0.00    +0.029 A 
ATOM      5  C   UNL     1      -0.898  -0.366   0.954  0.00  0.00    +0.016 A 
ATOM      6  C   UNL     1      -1.461  -1.341   0.155  0.00  0.00    +0.001 A 
ATOM      7  C   UNL     1      -0.791  -1.779  -0.974  0.00  0.00    +0.002 A 
ATOM      8  C   UNL     1       0.439  -1.248  -1.301  0.00  0.00    +0.024 A 
ATOM      9  C   UNL     1       1.021  -0.268  -0.500  0.00  0.00    +0.050 A 
ATOM     10  N   UNL     1       2.277   0.221  -0.866  0.00  0.00    -0.259 N 
ATOM     11  C   UNL     1       3.029  -0.508  -1.714  0.00  0.00    +0.258 C 
ATOM     12  O   UNL     1       3.972   0.002  -2.281  0.00  0.00    -0.271 OA
ENDROOT
BRANCH   1  16
ATOM     13  C   UNL     1       6.847   1.949  -1.701  0.00  0.00    +0.000 A 
ATOM     14  C   UNL     1       5.856   2.776  -2.197  0.00  0.00    +0.000 A 
ATOM     15  C   UNL     1       4.551   2.626  -1.768  0.00  0.00    +0.005 A 
ATOM     16  C   UNL     1       4.236   1.649  -0.841  0.00  0.00    -0.026 A 
ATOM     17  C   UNL     1       5.227   0.826  -0.340  0.00  0.00    +0.005 A 
ATOM     18  C   UNL     1       6.532   0.973  -0.774  0.00  0.00    +0.000 A 
ENDBRANCH   1  16
BRANCH  11  19
ATOM     19  C   UNL     1       2.697  -1.958  -1.959  0.00  0.00    +0.328 C 
BRANCH  19  20
ATOM     20  O   UNL     1       3.913  -2.686  -2.273  0.00  0.00    -0.455 OA
BRANCH  20  21
ATOM     21  C   UNL     1       3.790  -4.000  -2.520  0.00  0.00    +0.308 C 
ATOM     22  O   UNL     1       2.702  -4.524  -2.474  0.00  0.00    -0.251 OA
BRANCH  21  23
ATOM     23  C   UNL     1       5.008  -4.821  -2.853  0.00  0.00    +0.125 C 
BRANCH  23  24
ATOM     24  C   UNL     1       4.595  -6.276  -3.087  0.00  0.00    +0.046 C 
BRANCH  24  25
ATOM     25  C   UNL     1       5.813  -7.097  -3.421  0.00  0.00    -0.047 A 
ATOM     26  C   UNL     1       6.208  -7.245  -4.737  0.00  0.00    +0.005 A 
ATOM     27  C   UNL     1       7.329  -7.995  -5.042  0.00  0.00    +0.029 A 
ATOM     28  C   UNL     1       8.049  -8.605  -4.032  0.00  0.00    +0.105 A 
ATOM     29  C   UNL     1       7.651  -8.461  -2.716  0.00  0.00    +0.029 A 
ATOM     30  C   UNL     1       6.533  -7.707  -2.410  0.00  0.00    +0.005 A 
BRANCH  28  31
ATOM     31  S   UNL     1       9.473  -9.566  -4.421  0.00  0.00    +0.056 S 
ATOM     32  O   UNL     1       9.950  -9.096  -5.675  0.00  0.00    -0.153 OA
ATOM     33  O   UNL     1      10.284  -9.582  -3.255  0.00  0.00    -0.153 OA
BRANCH  31  34
ATOM     34  N   UNL     1       8.962 -11.123  -4.663  0.00  0.00    -0.204 NA
ATOM     35  H   UNL     1       9.441 -11.701  -5.277  0.00  0.00    +0.144 HD
ATOM     36  H   UNL     1       8.183 -11.457  -4.190  0.00  0.00    +0.144 HD
ENDBRANCH  31  34
ENDBRANCH  28  31
ENDBRANCH  24  25
ENDBRANCH  23  24
ENDBRANCH  21  23
ENDBRANCH  20  21
ENDBRANCH  19  20
ENDBRANCH  11  19
TORSDOF 9
