REMARK  Name = ZINC63375407
REMARK  7 active torsions:
REMARK  status: ('A' for Active; 'I' for Inactive)
REMARK    1  A    between atoms: C_1  and  C_2
REMARK    2  A    between atoms: C_11  and  O_13
REMARK    3  A    between atoms: O_13  and  C_14
REMARK    4  A    between atoms: C_14  and  C_15
REMARK    5  A    between atoms: N_17  and  C_18
REMARK    6  A    between atoms: C_18  and  C_19
REMARK    7  A    between atoms: C_19  and  C_20
REMARK                            x       y       z     vdW  Elec       q    Type
REMARK                         _______ _______ _______ _____ _____    ______ ____
ROOT
ATOM      1  C   UNL     1       0.130  -4.991   6.007  0.00  0.00    +0.251 C 
ATOM      2  O   UNL     1       0.129  -4.282   6.991  0.00  0.00    -0.272 OA
ATOM      3  N   UNL     1       0.150  -6.332   6.143  0.00  0.00    -0.312 N 
ATOM      4  H   UNL     1       0.151  -6.899   5.356  0.00  0.00    +0.149 HD
ENDROOT
BRANCH   1   5
ATOM      5  C   UNL     1       0.108  -4.373   4.632  0.00  0.00    +0.324 C 
BRANCH   5   6
ATOM      6  O   UNL     1       0.088  -2.950   4.751  0.00  0.00    -0.481 OA
BRANCH   6  17
ATOM      7  C   UNL     1      -0.018   1.503   0.010  0.00  0.00    +0.045 C 
ATOM      8  C   UNL     1       0.002  -0.004   0.002  0.00  0.00    -0.033 A 
ATOM      9  C   UNL     1       0.006  -0.695  -1.167  0.00  0.00    +0.096 A 
ATOM     10  C   UNL     1       0.026  -2.105  -1.149  0.00  0.00    +0.337 A 
ATOM     11  O   UNL     1       0.029  -2.712  -2.205  0.00  0.00    -0.245 OA
ATOM     12  O   UNL     1       0.042  -2.795   0.002  0.00  0.00    -0.422 OA
ATOM     13  C   UNL     1       0.038  -2.169   1.199  0.00  0.00    +0.143 A 
ATOM     14  C   UNL     1       0.024  -0.763   1.254  0.00  0.00    +0.022 A 
ATOM     15  C   UNL     1       0.026  -0.110   2.492  0.00  0.00    +0.035 A 
ATOM     16  C   UNL     1       0.047  -0.842   3.645  0.00  0.00    +0.083 A 
ATOM     17  C   UNL     1       0.067  -2.235   3.596  0.00  0.00    +0.143 A 
ATOM     18  C   UNL     1       0.054  -2.897   2.379  0.00  0.00    +0.094 A 
ATOM     19 CL   UNL     1       0.050  -0.033   5.181  0.00  0.00    -0.080 Cl
ENDBRANCH   6  17
ENDBRANCH   5   6
ENDBRANCH   1   5
BRANCH   3  20
ATOM     20  C   UNL     1       0.172  -6.933   7.479  0.00  0.00    +0.108 C 
BRANCH  20  21
ATOM     21  C   UNL     1       0.193  -8.457   7.352  0.00  0.00    +0.052 C 
BRANCH  21  22
ATOM     22  C   UNL     1       0.215  -9.075   8.726  0.00  0.00    -0.040 C 
ATOM     23  C   UNL     1      -0.848  -9.515   9.438  0.00  0.00    -0.001 A 
ATOM     24  C   UNL     1      -2.288  -9.547   9.156  0.00  0.00    +0.010 A 
ATOM     25  C   UNL     1      -3.127 -10.059  10.085  0.00  0.00    +0.001 A 
ATOM     26  C   UNL     1      -2.657 -10.559  11.307  0.00  0.00    +0.002 A 
ATOM     27  C   UNL     1      -1.348 -10.563  11.638  0.00  0.00    +0.026 A 
ATOM     28  C   UNL     1      -0.377 -10.049  10.736  0.00  0.00    +0.043 A 
ATOM     29  N   UNL     1       0.927  -9.943  10.823  0.00  0.00    -0.380 N 
ATOM     30  C   UNL     1       1.431  -9.335   9.587  0.00  0.00    +0.144 C 
ATOM     31  H   UNL     1       1.468 -10.224  11.578  0.00  0.00    +0.160 HD
ENDBRANCH  21  22
ENDBRANCH  20  21
ENDBRANCH   3  20
TORSDOF 6
