REMARK  Name = ZINC38676946
REMARK  10 active torsions:
REMARK  status: ('A' for Active; 'I' for Inactive)
REMARK    1  A    between atoms: C_1  and  C_2
REMARK    2  A    between atoms: C_2  and  C_3
REMARK    3  A    between atoms: C_6  and  C_9
REMARK    4  A    between atoms: C_14  and  O_23
REMARK    5  A    between atoms: C_18  and  N_22
REMARK    6  A    between atoms: C_19  and  C_20
REMARK    7  A    between atoms: O_23  and  C_24
REMARK    8  A    between atoms: C_24  and  C_26
REMARK    9  A    between atoms: C_26  and  O_27
REMARK   10  A    between atoms: O_27  and  C_28
REMARK                            x       y       z     vdW  Elec       q    Type
REMARK                         _______ _______ _______ _____ _____    ______ ____
ROOT
ATOM      1  C   UNL     1      -5.467  -1.984   0.005  0.00  0.00    +0.098 C 
ATOM      2  C   UNL     1      -5.501  -3.319  -0.690  0.00  0.00    +0.008 A 
ATOM      3  C   UNL     1      -4.943  -4.423  -0.070  0.00  0.00    +0.012 A 
ATOM      4  C   UNL     1      -4.965  -5.656  -0.693  0.00  0.00    +0.047 A 
ATOM      5  C   UNL     1      -5.548  -5.790  -1.945  0.00  0.00    +0.135 A 
ATOM      6  C   UNL     1      -6.107  -4.687  -2.568  0.00  0.00    +0.093 A 
ATOM      7  C   UNL     1      -6.084  -3.448  -1.941  0.00  0.00    +0.138 A 
ATOM      8  O   UNL     1      -6.636  -2.378  -2.564  0.00  0.00    -0.441 OA
ATOM      9  C   UNL     1      -6.974  -1.289  -1.854  0.00  0.00    +0.199 C 
ATOM     10  C   UNL     1      -6.454  -1.046  -0.631  0.00  0.00    +0.098 C 
ENDROOT
BRANCH   1  14
ATOM     11  C   UNL     1      -1.540  -0.330  -0.303  0.00  0.00    -0.048 A 
ATOM     12  C   UNL     1      -2.086  -0.589   0.941  0.00  0.00    +0.004 A 
ATOM     13  C   UNL     1      -3.356  -1.124   1.040  0.00  0.00    +0.005 A 
ATOM     14  C   UNL     1      -4.082  -1.399  -0.104  0.00  0.00    -0.035 A 
ATOM     15  C   UNL     1      -3.537  -1.139  -1.347  0.00  0.00    +0.005 A 
ATOM     16  C   UNL     1      -2.268  -0.600  -1.447  0.00  0.00    +0.004 A 
BRANCH  11  18
ATOM     17  C   UNL     1      -0.243   1.781  -0.408  0.00  0.00    +0.009 C 
ATOM     18  C   UNL     1      -0.155   0.254  -0.411  0.00  0.00    +0.032 C 
ENDBRANCH  11  18
ENDBRANCH   1  14
BRANCH   9  19
ATOM     19  N   UNL     1      -7.873  -0.399  -2.386  0.00  0.00    -0.328 N 
ATOM     20  H   UNL     1      -8.253  -0.560  -3.264  0.00  0.00    +0.145 HD
ATOM     21  H   UNL     1      -8.127   0.392  -1.885  0.00  0.00    +0.145 HD
ENDBRANCH   9  19
BRANCH  10  22
ATOM     22  C   UNL     1      -6.856   0.134   0.075  0.00  0.00    +0.101 C 
ATOM     23  N   UNL     1      -7.174   1.069   0.635  0.00  0.00    -0.191 NA
ENDBRANCH  10  22
BRANCH   5  24
ATOM     24  O   UNL     1      -5.570  -7.003  -2.559  0.00  0.00    -0.423 OA
BRANCH  24  25
ATOM     25  C   UNL     1      -4.805  -7.171  -3.650  0.00  0.00    +0.350 C 
ATOM     26  O   UNL     1      -4.048  -6.296  -3.997  0.00  0.00    -0.247 OA
BRANCH  25  27
ATOM     27  C   UNL     1      -4.892  -8.450  -4.441  0.00  0.00    +0.349 C 
BRANCH  27  28
ATOM     28  O   UNL     1      -3.989  -8.389  -5.546  0.00  0.00    -0.479 OA
BRANCH  28  29
ATOM     29  C   UNL     1      -3.944  -9.472  -6.367  0.00  0.00    +0.140 A 
ATOM     30  C   UNL     1      -4.756 -10.568  -6.116  0.00  0.00    +0.048 A 
ATOM     31  C   UNL     1      -4.708 -11.668  -6.951  0.00  0.00    +0.023 A 
ATOM     32  C   UNL     1      -3.851 -11.677  -8.037  0.00  0.00    +0.043 A 
ATOM     33  C   UNL     1      -3.040 -10.585  -8.290  0.00  0.00    +0.043 A 
ATOM     34  C   UNL     1      -3.089  -9.480  -7.460  0.00  0.00    +0.084 A 
ATOM     35 CL   UNL     1      -2.076  -8.107  -7.782  0.00  0.00    -0.080 Cl
ATOM     36 CL   UNL     1      -3.794 -13.060  -9.084  0.00  0.00    -0.083 Cl
ENDBRANCH  28  29
ENDBRANCH  27  28
ENDBRANCH  25  27
ENDBRANCH  24  25
ENDBRANCH   5  24
TORSDOF 9
