REMARK  Name = ZINC36207568
REMARK  16 active torsions:
REMARK  status: ('A' for Active; 'I' for Inactive)
REMARK    1  A    between atoms: C_1  and  C_2
REMARK    2  A    between atoms: C_7  and  O_8
REMARK    3  A    between atoms: O_8  and  C_9
REMARK    4  A    between atoms: C_9  and  C_10
REMARK    5  A    between atoms: C_10  and  C_12
REMARK    6  A    between atoms: C_10  and  O_38
REMARK    7  A    between atoms: C_12  and  N_13
REMARK    8  A    between atoms: N_13  and  C_14
REMARK    9  A    between atoms: N_13  and  C_34
REMARK   10  A    between atoms: C_14  and  C_15
REMARK   11  A    between atoms: C_21  and  C_26
REMARK   12  A    between atoms: C_29  and  C_33
REMARK   13  A    between atoms: C_30  and  C_32
REMARK   14  A    between atoms: C_34  and  C_35
REMARK   15  A    between atoms: C_35  and  C_36
REMARK   16  A    between atoms: C_35  and  C_37
REMARK                            x       y       z     vdW  Elec       q    Type
REMARK                         _______ _______ _______ _____ _____    ______ ____
ROOT
ATOM      1  C   UNL     1       0.717  -0.482   8.277  0.00  0.00    -0.003 C 
ENDROOT
BRANCH   1   2
ATOM      2  C   UNL     1       2.156  -0.896   8.106  0.00  0.00    +0.094 A 
ATOM      3  N   UNL     1       2.731  -1.710   9.029  0.00  0.00    -0.312 N 
ATOM      4  H   UNL     1       2.207  -2.014   9.786  0.00  0.00    +0.170 HD
ATOM      5  C   UNL     1       4.012  -2.103   8.913  0.00  0.00    +0.260 A 
ATOM      6  O   UNL     1       4.513  -2.835   9.749  0.00  0.00    -0.267 OA
ATOM      7  C   UNL     1       4.779  -1.649   7.792  0.00  0.00    +0.080 A 
ATOM      8  C   UNL     1       6.167  -1.933   7.448  0.00  0.00    +0.004 A 
ATOM      9  C   UNL     1       6.684  -1.385   6.322  0.00  0.00    +0.056 A 
ATOM     10  S   UNL     1       5.321  -0.449   5.655  0.00  0.00    -0.076 S 
ATOM     11  C   UNL     1       4.101  -0.811   6.891  0.00  0.00    +0.116 A 
ATOM     12  N   UNL     1       2.828  -0.470   7.070  0.00  0.00    -0.229 NA
BRANCH   8  13
ATOM     13  C   UNL     1       6.997  -2.803   8.314  0.00  0.00    -0.016 A 
ATOM     14  C   UNL     1       7.054  -2.573   9.688  0.00  0.00    +0.009 A 
ATOM     15  C   UNL     1       7.829  -3.387  10.489  0.00  0.00    +0.004 A 
ATOM     16  C   UNL     1       8.547  -4.430   9.932  0.00  0.00    -0.048 A 
ATOM     17  C   UNL     1       8.494  -4.663   8.569  0.00  0.00    -0.047 A 
ATOM     18  C   UNL     1       7.719  -3.858   7.759  0.00  0.00    +0.012 A 
ATOM     19  C   UNL     1       9.279  -5.801   7.970  0.00  0.00    +0.044 C 
ATOM     20  C   UNL     1       9.391  -5.315  10.812  0.00  0.00    +0.044 C 
ENDBRANCH   8  13
ENDBRANCH   1   2
BRANCH   1  21
ATOM     21  N   UNL     1       0.280   0.270   7.093  0.00  0.00    +0.386 N 
ATOM     22  H   UNL     1       0.919   1.032   6.924  0.00  0.00    -0.081 HD
BRANCH  21  23
ATOM     23  C   UNL     1       0.260  -0.623   5.927  0.00  0.00    -0.043 C 
BRANCH  23  24
ATOM     24  C   UNL     1      -0.011   0.196   4.663  0.00  0.00    +0.135 C 
BRANCH  24  25
ATOM     25  O   UNL     1      -1.350   0.693   4.695  0.00  0.00    -0.390 OA
ATOM     26  H   UNL     1      -2.025   0.002   4.738  0.00  0.00    +0.210 HD
ENDBRANCH  24  25
BRANCH  24  27
ATOM     27  C   UNL     1       0.174  -0.691   3.431  0.00  0.00    +0.258 C 
BRANCH  27  28
ATOM     28  O   UNL     1       0.036   0.100   2.249  0.00  0.00    -0.489 OA
BRANCH  28  35
ATOM     29  C   UNL     1      -0.235   1.645  -0.100  0.00  0.00    +0.047 C 
ATOM     30  C   UNL     1       0.050   0.166  -0.129  0.00  0.00    -0.009 A 
ATOM     31  C   UNL     1       0.196  -0.487  -1.339  0.00  0.00    +0.007 A 
ATOM     32  C   UNL     1       0.458  -1.844  -1.366  0.00  0.00    +0.000 A 
ATOM     33  C   UNL     1       0.575  -2.552  -0.184  0.00  0.00    +0.004 A 
ATOM     34  C   UNL     1       0.430  -1.904   1.028  0.00  0.00    +0.046 A 
ATOM     35  C   UNL     1       0.173  -0.541   1.058  0.00  0.00    +0.124 A 
ENDBRANCH  28  35
ENDBRANCH  27  28
ENDBRANCH  24  27
ENDBRANCH  23  24
ENDBRANCH  21  23
BRANCH  21  36
ATOM     36  C   UNL     1      -1.069   0.804   7.324  0.00  0.00    -0.075 C 
BRANCH  36  37
ATOM     37  C   UNL     1      -1.036   1.781   8.501  0.00  0.00    -0.034 C 
ATOM     38  C   UNL     1      -0.158   2.982   8.143  0.00  0.00    +0.005 C 
ATOM     39  C   UNL     1      -2.457   2.261   8.805  0.00  0.00    +0.005 C 
ENDBRANCH  36  37
ENDBRANCH  21  36
ENDBRANCH   1  21
TORSDOF 11
