REMARK  Name = ZINC38683164
REMARK  12 active torsions:
REMARK  status: ('A' for Active; 'I' for Inactive)
REMARK    1  A    between atoms: C_1  and  C_2
REMARK    2  A    between atoms: C_2  and  C_3
REMARK    3  A    between atoms: C_3  and  C_4
REMARK    4  A    between atoms: C_4  and  O_5
REMARK    5  A    between atoms: O_5  and  C_6
REMARK    6  A    between atoms: C_11  and  C_12
REMARK    7  A    between atoms: C_17  and  O_26
REMARK    8  A    between atoms: C_21  and  N_25
REMARK    9  A    between atoms: C_22  and  C_23
REMARK   10  A    between atoms: O_26  and  C_27
REMARK   11  A    between atoms: C_27  and  C_29
REMARK   12  A    between atoms: C_33  and  N_35
REMARK                            x       y       z     vdW  Elec       q    Type
REMARK                         _______ _______ _______ _____ _____    ______ ____
ROOT
ATOM      1  C   UNL     1       2.668  -3.416  -4.729  0.00  0.00    +0.101 C 
ATOM      2  C   UNL     1       2.018  -3.673  -6.063  0.00  0.00    +0.008 A 
ATOM      3  C   UNL     1       0.707  -3.281  -6.268  0.00  0.00    +0.012 A 
ATOM      4  C   UNL     1       0.095  -3.509  -7.485  0.00  0.00    +0.047 A 
ATOM      5  C   UNL     1       0.796  -4.133  -8.508  0.00  0.00    +0.135 A 
ATOM      6  C   UNL     1       2.108  -4.526  -8.306  0.00  0.00    +0.093 A 
ATOM      7  C   UNL     1       2.723  -4.297  -7.081  0.00  0.00    +0.138 A 
ATOM      8  O   UNL     1       4.008  -4.689  -6.899  0.00  0.00    -0.441 OA
ATOM      9  C   UNL     1       4.737  -4.154  -5.906  0.00  0.00    +0.199 C 
ATOM     10  C   UNL     1       4.161  -3.538  -4.850  0.00  0.00    +0.098 C 
ENDROOT
BRANCH   1  16
ATOM     11  C   UNL     1       1.496  -3.995  -2.590  0.00  0.00    +0.125 A 
ATOM     12  C   UNL     1       1.029  -4.924  -1.671  0.00  0.00    +0.046 A 
ATOM     13  C   UNL     1       1.237  -6.272  -1.889  0.00  0.00    +0.004 A 
ATOM     14  C   UNL     1       1.909  -6.696  -3.020  0.00  0.00    +0.001 A 
ATOM     15  C   UNL     1       2.375  -5.772  -3.937  0.00  0.00    +0.008 A 
ATOM     16  C   UNL     1       2.165  -4.423  -3.727  0.00  0.00    +0.007 A 
BRANCH  11  17
ATOM     17  O   UNL     1       1.292  -2.668  -2.379  0.00  0.00    -0.492 OA
BRANCH  17  18
ATOM     18  C   UNL     1       0.595  -2.300  -1.187  0.00  0.00    +0.229 C 
BRANCH  18  19
ATOM     19  C   UNL     1       0.463  -0.777  -1.123  0.00  0.00    +0.041 C 
BRANCH  19  21
ATOM     20  C   UNL     1      -0.416   1.140   0.217  0.00  0.00    +0.004 C 
ATOM     21  C   UNL     1      -0.283  -0.383   0.154  0.00  0.00    -0.000 C 
ENDBRANCH  19  21
ENDBRANCH  18  19
ENDBRANCH  17  18
ENDBRANCH  11  17
ENDBRANCH   1  16
BRANCH   9  22
ATOM     22  N   UNL     1       6.106  -4.237  -5.966  0.00  0.00    -0.328 N 
ATOM     23  H   UNL     1       6.533  -4.677  -6.717  0.00  0.00    +0.145 HD
ATOM     24  H   UNL     1       6.646  -3.855  -5.256  0.00  0.00    +0.145 HD
ENDBRANCH   9  22
BRANCH  10  25
ATOM     25  C   UNL     1       4.995  -2.989  -3.824  0.00  0.00    +0.101 C 
ATOM     26  N   UNL     1       5.657  -2.553  -3.010  0.00  0.00    -0.191 NA
ENDBRANCH  10  25
BRANCH   5  27
ATOM     27  O   UNL     1       0.194  -4.357  -9.706  0.00  0.00    -0.422 OA
BRANCH  27  28
ATOM     28  C   UNL     1      -0.086  -3.293 -10.482  0.00  0.00    +0.345 C 
ATOM     29  O   UNL     1       0.291  -2.186 -10.154  0.00  0.00    -0.245 OA
BRANCH  28  30
ATOM     30  C   UNL     1      -0.852  -3.472 -11.733  0.00  0.00    +0.062 A 
ATOM     31  C   UNL     1      -1.291  -4.743 -12.110  0.00  0.00    +0.015 A 
ATOM     32  C   UNL     1      -2.006  -4.903 -13.279  0.00  0.00    +0.003 A 
ATOM     33  C   UNL     1      -2.287  -3.808 -14.078  0.00  0.00    +0.033 A 
ATOM     34  C   UNL     1      -1.854  -2.547 -13.710  0.00  0.00    +0.127 A 
ATOM     35  C   UNL     1      -1.144  -2.371 -12.540  0.00  0.00    +0.047 A 
BRANCH  34  36
ATOM     36  N   UNL     1      -2.160  -1.382 -14.570  0.00  0.00    +0.056 N 
ATOM     37  O   UNL     1      -2.786  -1.533 -15.593  0.00  0.00    -0.126 OA
ATOM     38  O   UNL     1      -1.782  -0.278 -14.250  0.00  0.00    -0.126 OA
ENDBRANCH  34  36
ENDBRANCH  28  30
ENDBRANCH  27  28
ENDBRANCH   5  27
TORSDOF 11
