REMARK  Name = ZINC49241528
REMARK  4 active torsions:
REMARK  status: ('A' for Active; 'I' for Inactive)
REMARK    1  A    between atoms: C_5  and  C_6
REMARK    2  A    between atoms: C_6  and  N_7
REMARK    3  A    between atoms: N_10  and  N_11
REMARK    4  A    between atoms: C_12  and  C_14
REMARK                            x       y       z     vdW  Elec       q    Type
REMARK                         _______ _______ _______ _____ _____    ______ ____
ROOT
ATOM      1  N   UNL     1      -1.545  -1.274  -1.370  0.00  0.00    -0.294 N 
ATOM      2  C   UNL     1      -2.565  -2.121  -1.611  0.00  0.00    +0.316 C 
ATOM      3  O   UNL     1      -3.163  -2.632  -0.683  0.00  0.00    -0.251 OA
ATOM      4  N   UNL     1      -2.923  -2.402  -2.880  0.00  0.00    -0.218 N 
ATOM      5  H   UNL     1      -1.068  -0.867  -2.110  0.00  0.00    +0.151 HD
ATOM      6  H   UNL     1      -3.658  -3.011  -3.053  0.00  0.00    +0.174 HD
ENDROOT
BRANCH   4   7
ATOM      7  N   UNL     1      -2.235  -1.813  -3.948  0.00  0.00    -0.228 N 
ATOM      8  C   UNL     1      -2.593  -2.094  -5.217  0.00  0.00    +0.276 C 
ATOM      9  O   UNL     1      -3.514  -2.859  -5.434  0.00  0.00    -0.267 OA
ATOM     10  H   UNL     1      -1.500  -1.204  -3.775  0.00  0.00    +0.173 HD
BRANCH   8  11
ATOM     11  C   UNL     1      -1.872  -1.478  -6.336  0.00  0.00    +0.104 A 
ATOM     12  C   UNL     1      -2.132  -1.668  -7.676  0.00  0.00    +0.047 A 
ATOM     13  C   UNL     1      -1.211  -0.893  -8.388  0.00  0.00    +0.036 A 
ATOM     14  C   UNL     1      -0.421  -0.257  -7.489  0.00  0.00    +0.098 A 
ATOM     15  N   UNL     1      -0.816  -0.600  -6.239  0.00  0.00    -0.356 N 
ATOM     16  H   UNL     1      -0.420  -0.281  -5.413  0.00  0.00    +0.166 HD
ATOM     17 BR   UNL     1      -1.088  -0.758 -10.270  0.00  0.00    -0.049 Br
ENDBRANCH   8  11
ENDBRANCH   4   7
BRANCH   1  18
ATOM     18  C   UNL     1      -1.156  -0.969   0.009  0.00  0.00    +0.148 C 
BRANCH  18  23
ATOM     19  C   UNL     1      -0.016   1.351   0.009  0.00  0.00    +0.014 A 
ATOM     20  C   UNL     1       1.183   2.038   0.002  0.00  0.00    +0.023 A 
ATOM     21  C   UNL     1       2.343   1.335  -0.013  0.00  0.00    +0.055 A 
ATOM     22  S   UNL     1       1.753  -0.350  -0.017  0.00  0.00    -0.085 S 
ATOM     23  C   UNL     1       0.002  -0.004   0.002  0.00  0.00    +0.008 A 
ATOM     24 BR   UNL     1       4.123   1.974  -0.027  0.00  0.00    -0.043 Br
ENDBRANCH  18  23
ENDBRANCH   1  18
TORSDOF 4
