REMARK  Name = ZINC01752425
REMARK  6 active torsions:
REMARK  status: ('A' for Active; 'I' for Inactive)
REMARK    1  A    between atoms: C_1  and  C_2
REMARK    2  A    between atoms: C_2  and  C_3
REMARK    3  A    between atoms: C_3  and  C_4
REMARK    4  A    between atoms: C_4  and  C_5
REMARK    5  A    between atoms: N_8  and  C_20
REMARK    6  A    between atoms: N_11  and  C_14
REMARK                            x       y       z     vdW  Elec       q    Type
REMARK                         _______ _______ _______ _____ _____    ______ ____
ROOT
ATOM      1  C   UNL     1      -0.650   3.382   1.180  0.00  0.00    +0.162 C 
ATOM      2  C   UNL     1      -0.998   2.036   0.611  0.00  0.00    +0.238 C 
ATOM      3  O   UNL     1      -1.835   1.357   1.168  0.00  0.00    -0.274 OA
ATOM      4  N   UNL     1      -0.404   1.565  -0.497  0.00  0.00    -0.211 N 
ATOM      5  C   UNL     1       0.565   2.306  -1.147  0.00  0.00    +0.200 C 
ATOM      6  N   UNL     1       0.894   2.015  -2.370  0.00  0.00    -0.271 NA
ATOM      7  N   UNL     1       1.184   3.355  -0.496  0.00  0.00    -0.211 N 
ATOM      8  C   UNL     1       0.647   3.885   0.615  0.00  0.00    +0.238 C 
ATOM      9  O   UNL     1       1.223   4.793   1.176  0.00  0.00    -0.274 OA
ATOM     10  H   UNL     1       1.595   2.515  -2.816  0.00  0.00    +0.189 HD
ENDROOT
BRANCH   7  11
ATOM     11  C   UNL     1       2.385   3.872  -1.000  0.00  0.00    +0.044 A 
ATOM     12  C   UNL     1       3.596   3.291  -0.647  0.00  0.00    +0.024 A 
ATOM     13  C   UNL     1       4.777   3.800  -1.150  0.00  0.00    +0.002 A 
ATOM     14  C   UNL     1       4.756   4.894  -1.996  0.00  0.00    +0.000 A 
ATOM     15  C   UNL     1       3.552   5.478  -2.345  0.00  0.00    +0.002 A 
ATOM     16  C   UNL     1       2.367   4.970  -1.850  0.00  0.00    +0.024 A 
ENDBRANCH   7  11
BRANCH   4  17
ATOM     17  C   UNL     1      -0.773   0.311  -1.002  0.00  0.00    +0.044 A 
ATOM     18  C   UNL     1      -0.082  -0.828  -0.611  0.00  0.00    +0.024 A 
ATOM     19  C   UNL     1      -0.452  -2.063  -1.107  0.00  0.00    +0.002 A 
ATOM     20  C   UNL     1      -1.502  -2.164  -2.001  0.00  0.00    +0.000 A 
ATOM     21  C   UNL     1      -2.188  -1.031  -2.397  0.00  0.00    +0.002 A 
ATOM     22  C   UNL     1      -1.827   0.206  -1.900  0.00  0.00    +0.024 A 
ENDBRANCH   4  17
BRANCH   1  23
ATOM     23  C   UNL     1      -1.766   4.371   0.835  0.00  0.00    +0.022 C 
BRANCH  23  24
ATOM     24  C   UNL     1      -3.065   3.930   1.512  0.00  0.00    +0.001 C 
BRANCH  24  26
ATOM     25  C   UNL     1      -5.480   4.477   1.844  0.00  0.00    +0.004 C 
ATOM     26  C   UNL     1      -4.181   4.919   1.167  0.00  0.00    -0.003 C 
ENDBRANCH  24  26
ENDBRANCH  23  24
ENDBRANCH   1  23
TORSDOF 5
