REMARK  Name = ZINC40527371
REMARK  13 active torsions:
REMARK  status: ('A' for Active; 'I' for Inactive)
REMARK    1  A    between atoms: C_1  and  C_2
REMARK    2  A    between atoms: C_2  and  C_3
REMARK    3  A    between atoms: C_3  and  C_4
REMARK    4  A    between atoms: C_4  and  C_5
REMARK    5  A    between atoms: C_5  and  O_6
REMARK    6  A    between atoms: O_6  and  C_7
REMARK    7  A    between atoms: C_10  and  C_13
REMARK    8  A    between atoms: C_13  and  O_15
REMARK    9  A    between atoms: O_15  and  C_16
REMARK   10  A    between atoms: C_23  and  N_38
REMARK   11  A    between atoms: C_24  and  C_36
REMARK   12  A    between atoms: C_25  and  C_27
REMARK   13  A    between atoms: C_31  and  N_33
REMARK                            x       y       z     vdW  Elec       q    Type
REMARK                         _______ _______ _______ _____ _____    ______ ____
ROOT
ATOM      1  C   UNL     1       4.671  -8.249  -8.056  0.00  0.00    +0.135 A 
ATOM      2  C   UNL     1       5.260  -7.361  -8.945  0.00  0.00    +0.047 A 
ATOM      3  C   UNL     1       5.931  -7.838 -10.054  0.00  0.00    +0.012 A 
ATOM      4  C   UNL     1       6.020  -9.200 -10.282  0.00  0.00    +0.008 A 
ATOM      5  C   UNL     1       5.434 -10.091  -9.397  0.00  0.00    +0.138 A 
ATOM      6  C   UNL     1       4.763  -9.613  -8.279  0.00  0.00    +0.093 A 
ATOM      7  O   UNL     1       5.510 -11.429  -9.604  0.00  0.00    -0.441 OA
ATOM      8  C   UNL     1       6.451 -11.928 -10.423  0.00  0.00    +0.199 C 
ATOM      9  C   UNL     1       7.081 -11.160 -11.344  0.00  0.00    +0.098 C 
ATOM     10  C   UNL     1       6.756  -9.700 -11.497  0.00  0.00    +0.098 C 
ENDROOT
BRANCH  10  11
ATOM     11  C   UNL     1       5.895  -9.506 -12.718  0.00  0.00    -0.033 A 
ATOM     12  C   UNL     1       4.657 -10.117 -12.794  0.00  0.00    +0.005 A 
ATOM     13  C   UNL     1       3.866  -9.940 -13.914  0.00  0.00    +0.003 A 
ATOM     14  C   UNL     1       4.314  -9.150 -14.958  0.00  0.00    +0.033 A 
ATOM     15  C   UNL     1       5.551  -8.539 -14.881  0.00  0.00    +0.126 A 
ATOM     16  C   UNL     1       6.340  -8.713 -13.759  0.00  0.00    +0.037 A 
BRANCH  15  17
ATOM     17  N   UNL     1       6.030  -7.695 -15.998  0.00  0.00    +0.056 N 
ATOM     18  O   UNL     1       5.339  -7.540 -16.978  0.00  0.00    -0.126 OA
ATOM     19  O   UNL     1       7.112  -7.160 -15.931  0.00  0.00    -0.126 OA
ENDBRANCH  15  17
ENDBRANCH  10  11
BRANCH   8  20
ATOM     20  N   UNL     1       6.784 -13.256 -10.324  0.00  0.00    -0.328 N 
ATOM     21  H   UNL     1       6.342 -13.819  -9.670  0.00  0.00    +0.145 HD
ATOM     22  H   UNL     1       7.461 -13.631 -10.908  0.00  0.00    +0.145 HD
ENDBRANCH   8  20
BRANCH   9  23
ATOM     23  C   UNL     1       8.075 -11.750 -12.188  0.00  0.00    +0.101 C 
ATOM     24  N   UNL     1       8.865 -12.218 -12.857  0.00  0.00    -0.191 NA
ENDBRANCH   9  23
BRANCH   1  25
ATOM     25  O   UNL     1       4.011  -7.780  -6.964  0.00  0.00    -0.422 OA
BRANCH  25  26
ATOM     26  C   UNL     1       4.633  -7.849  -5.771  0.00  0.00    +0.344 C 
ATOM     27  O   UNL     1       5.713  -8.399  -5.679  0.00  0.00    -0.245 OA
BRANCH  26  31
ATOM     28  C   UNL     1       2.822  -6.142  -2.331  0.00  0.00    +0.121 A 
ATOM     29  C   UNL     1       4.057  -6.771  -2.224  0.00  0.00    +0.046 A 
ATOM     30  C   UNL     1       4.648  -7.326  -3.337  0.00  0.00    +0.018 A 
ATOM     31  C   UNL     1       4.004  -7.256  -4.576  0.00  0.00    +0.060 A 
ATOM     32  C   UNL     1       2.762  -6.623  -4.679  0.00  0.00    +0.018 A 
ATOM     33  C   UNL     1       2.175  -6.075  -3.560  0.00  0.00    +0.046 A 
BRANCH  28  34
ATOM     34  O   UNL     1       2.243  -5.596  -1.232  0.00  0.00    -0.492 OA
BRANCH  34  35
ATOM     35  C   UNL     1       2.961  -5.700  -0.001  0.00  0.00    +0.229 C 
BRANCH  35  36
ATOM     36  C   UNL     1       2.157  -5.032   1.116  0.00  0.00    +0.041 C 
BRANCH  36  37
ATOM     37  C   UNL     1       2.926  -5.144   2.434  0.00  0.00    +0.003 C 
BRANCH  37  39
ATOM     38  C   UNL     1       2.892  -4.588   4.870  0.00  0.00    +0.004 C 
ATOM     39  C   UNL     1       2.123  -4.476   3.552  0.00  0.00    -0.003 C 
ENDBRANCH  37  39
ENDBRANCH  36  37
ENDBRANCH  35  36
ENDBRANCH  34  35
ENDBRANCH  28  34
ENDBRANCH  26  31
ENDBRANCH  25  26
ENDBRANCH   1  25
TORSDOF 12
