REMARK  Name = ZINC15866400
REMARK  4 active torsions:
REMARK  status: ('A' for Active; 'I' for Inactive)
REMARK    1  A    between atoms: C_1  and  C_2
REMARK    2  A    between atoms: C_2  and  C_3
REMARK    3  A    between atoms: C_6  and  C_9
REMARK    4  A    between atoms: C_12  and  C_20
REMARK                            x       y       z     vdW  Elec       q    Type
REMARK                         _______ _______ _______ _____ _____    ______ ____
ROOT
ATOM      1  C   UNL     1       3.503   0.588  -0.023  0.00  0.00    +0.144 C 
ATOM      2  C   UNL     1       3.942  -0.808   0.436  0.00  0.00    +0.059 C 
ATOM      3  C   UNL     1       3.163  -1.878  -0.338  0.00  0.00    +0.106 C 
ATOM      4  N   UNL     1       1.727  -1.734  -0.028  0.00  0.00    -0.305 N 
ATOM      5  C   UNL     1       1.231  -0.438  -0.013  0.00  0.00    +0.236 A 
ATOM      6  N   UNL     1       2.044   0.648  -0.013  0.00  0.00    -0.206 N 
ATOM      7  N   UNL     1       1.191   1.752   0.000  0.00  0.00    -0.042 NA
ATOM      8  N   UNL     1      -0.015   1.285   0.009  0.00  0.00    -0.021 NA
ATOM      9  N   UNL     1       0.002  -0.004   0.002  0.00  0.00    -0.092 NA
ATOM     10  H   UNL     1       1.163  -2.502   0.156  0.00  0.00    +0.150 HD
ENDROOT
BRANCH   3  11
ATOM     11  C   UNL     1       3.382  -1.691  -1.818  0.00  0.00    -0.027 A 
ATOM     12  C   UNL     1       2.677  -0.718  -2.502  0.00  0.00    +0.006 A 
ATOM     13  C   UNL     1       2.880  -0.543  -3.858  0.00  0.00    +0.015 A 
ATOM     14  C   UNL     1       3.781  -1.348  -4.532  0.00  0.00    +0.018 A 
ATOM     15  C   UNL     1       4.482  -2.324  -3.847  0.00  0.00    +0.015 A 
ATOM     16  C   UNL     1       4.282  -2.495  -2.490  0.00  0.00    +0.006 A 
ATOM     17 BR   UNL     1       4.054  -1.114  -6.389  0.00  0.00    -0.050 Br
ENDBRANCH   3  11
BRANCH   1  21
ATOM     18  C   UNL     1       5.084   3.533   2.637  0.00  0.00    -0.048 A 
ATOM     19  C   UNL     1       5.418   3.562   1.296  0.00  0.00    +0.004 A 
ATOM     20  C   UNL     1       4.906   2.609   0.435  0.00  0.00    +0.006 A 
ATOM     21  C   UNL     1       4.061   1.627   0.916  0.00  0.00    -0.023 A 
ATOM     22  C   UNL     1       3.723   1.601   2.256  0.00  0.00    +0.006 A 
ATOM     23  C   UNL     1       4.238   2.550   3.117  0.00  0.00    +0.004 A 
BRANCH  18  25
ATOM     24  C   UNL     1       4.694   5.772   3.629  0.00  0.00    +0.009 C 
ATOM     25  C   UNL     1       5.642   4.572   3.576  0.00  0.00    +0.032 C 
ENDBRANCH  18  25
ENDBRANCH   1  21
TORSDOF 3
