REMARK  Name = ZINC37928294
REMARK  4 active torsions:
REMARK  status: ('A' for Active; 'I' for Inactive)
REMARK    1  A    between atoms: C_2  and  N_21
REMARK    2  A    between atoms: C_5  and  S_8
REMARK    3  A    between atoms: S_8  and  N_11
REMARK    4  A    between atoms: N_11  and  C_12
REMARK                            x       y       z     vdW  Elec       q    Type
REMARK                         _______ _______ _______ _____ _____    ______ ____
ROOT
ATOM      1  S   UNL     1       1.231  -2.443  -0.024  0.00  0.00    +0.097 S 
ATOM      2  O   UNL     1      -0.015  -2.861  -0.565  0.00  0.00    -0.148 OA
ATOM      3  O   UNL     1       2.476  -2.831  -0.589  0.00  0.00    -0.148 OA
ENDROOT
BRANCH   1   8
ATOM      4  C   UNL     1      -0.017   1.379   0.010  0.00  0.00    +0.063 A 
ATOM      5  C   UNL     1       1.177   2.089   0.002  0.00  0.00    +0.030 A 
ATOM      6  C   UNL     1       2.387   1.408  -0.013  0.00  0.00    +0.063 A 
ATOM      7  C   UNL     1       2.401   0.025  -0.021  0.00  0.00    +0.155 A 
ATOM      8  C   UNL     1       1.210  -0.681  -0.014  0.00  0.00    +0.180 A 
ATOM      9  C   UNL     1       0.002  -0.004   0.002  0.00  0.00    +0.155 A 
ATOM     10  F   UNL     1      -1.159  -0.695   0.010  0.00  0.00    -0.203 F 
ATOM     11  F   UNL     1       3.579  -0.638  -0.035  0.00  0.00    -0.203 F 
BRANCH   5  12
ATOM     12  N   UNL     1       1.161   3.485   0.009  0.00  0.00    -0.358 N 
ATOM     13  H   UNL     1       0.315   3.960   0.019  0.00  0.00    +0.142 HD
ATOM     14  H   UNL     1       1.995   3.980   0.004  0.00  0.00    +0.142 HD
ENDBRANCH   5  12
ENDBRANCH   1   8
BRANCH   1  15
ATOM     15  N   UNL     1       1.252  -2.942   1.555  0.00  0.00    -0.098 NA
BRANCH  15  16
ATOM     16  C   UNL     1       1.270  -4.305   1.857  0.00  0.00    +0.080 A 
ATOM     17  C   UNL     1       1.278  -5.244   0.833  0.00  0.00    +0.065 A 
ATOM     18  C   UNL     1       1.297  -6.594   1.134  0.00  0.00    +0.128 A 
ATOM     19  C   UNL     1       1.308  -7.010   2.455  0.00  0.00    +0.076 A 
ATOM     20  C   UNL     1       1.300  -6.076   3.477  0.00  0.00    +0.128 A 
ATOM     21  C   UNL     1       1.288  -4.724   3.181  0.00  0.00    +0.065 A 
ATOM     22  F   UNL     1       1.310  -6.484   4.765  0.00  0.00    -0.205 F 
ATOM     23  F   UNL     1       1.304  -7.507   0.139  0.00  0.00    -0.205 F 
ENDBRANCH  15  16
ENDBRANCH   1  15
TORSDOF 4
