REMARK  Name = ZINC15183702
REMARK  8 active torsions:
REMARK  status: ('A' for Active; 'I' for Inactive)
REMARK    1  A    between atoms: C_1  and  C_2
REMARK    2  A    between atoms: C_2  and  C_3
REMARK    3  A    between atoms: C_6  and  N_9
REMARK    4  A    between atoms: C_10  and  C_12
REMARK    5  A    between atoms: C_12  and  C_14
REMARK    6  A    between atoms: C_12  and  S_15
REMARK    7  A    between atoms: S_15  and  C_16
REMARK    8  A    between atoms: N_20  and  C_31
REMARK                            x       y       z     vdW  Elec       q    Type
REMARK                         _______ _______ _______ _____ _____    ______ ____
ROOT
ATOM      1  C   UNL     1       0.107   2.179   2.172  0.00  0.00    +0.172 A 
ATOM      2  N   UNL     1      -0.331   2.604   3.328  0.00  0.00    -0.202 NA
ATOM      3  C   UNL     1      -1.639   2.453   3.655  0.00  0.00    +0.190 A 
ATOM      4  N   UNL     1      -2.373   2.741   4.699  0.00  0.00    -0.143 NA
ATOM      5  N   UNL     1      -3.704   2.369   4.494  0.00  0.00    -0.194 N 
ATOM      6  C   UNL     1      -3.854   1.815   3.272  0.00  0.00    +0.284 A 
ATOM      7  O   UNL     1      -4.888   1.390   2.780  0.00  0.00    -0.265 OA
ATOM      8  C   UNL     1      -2.528   1.827   2.659  0.00  0.00    +0.106 A 
ATOM      9  C   UNL     1      -2.004   1.409   1.453  0.00  0.00    +0.037 A 
ATOM     10  N   UNL     1      -0.690   1.563   1.233  0.00  0.00    -0.323 N 
ATOM     11  C   UNL     1      -0.024   1.089   0.017  0.00  0.00    +0.124 C 
ATOM     12  C   UNL     1      -0.742   1.585  -1.239  0.00  0.00    +0.022 C 
ATOM     13  C   UNL     1      -1.725   0.498  -1.676  0.00  0.00    +0.002 C 
ATOM     14  C   UNL     1      -2.254  -0.225  -0.434  0.00  0.00    +0.006 C 
ATOM     15  C   UNL     1      -2.954   0.804   0.452  0.00  0.00    +0.054 C 
ENDROOT
BRANCH   5  16
ATOM     16  C   UNL     1      -4.734   2.546   5.424  0.00  0.00    +0.069 A 
ATOM     17  C   UNL     1      -6.017   2.856   4.990  0.00  0.00    +0.028 A 
ATOM     18  C   UNL     1      -7.033   3.025   5.910  0.00  0.00    +0.002 A 
ATOM     19  C   UNL     1      -6.773   2.896   7.262  0.00  0.00    +0.000 A 
ATOM     20  C   UNL     1      -5.495   2.593   7.697  0.00  0.00    +0.002 A 
ATOM     21  C   UNL     1      -4.476   2.418   6.783  0.00  0.00    +0.028 A 
ENDBRANCH   5  16
BRANCH   1  22
ATOM     22  S   UNL     1       1.813   2.408   1.794  0.00  0.00    -0.075 S 
BRANCH  22  23
ATOM     23  C   UNL     1       2.364   3.230   3.310  0.00  0.00    +0.137 C 
ATOM     24  C   UNL     1       1.679   4.593   3.428  0.00  0.00    +0.029 C 
BRANCH  23  26
ATOM     25  N   UNL     1       4.559   3.529   4.409  0.00  0.00    -0.285 N 
ATOM     26  C   UNL     1       3.858   3.421   3.263  0.00  0.00    +0.230 C 
ATOM     27  O   UNL     1       4.429   3.477   2.195  0.00  0.00    -0.274 OA
ATOM     28  H   UNL     1       4.096   3.551   5.261  0.00  0.00    +0.155 HD
BRANCH  25  32
ATOM     29  C   UNL     1       8.717   3.767   4.291  0.00  0.00    -0.048 A 
ATOM     30  C   UNL     1       7.964   4.356   3.292  0.00  0.00    +0.005 A 
ATOM     31  C   UNL     1       6.585   4.278   3.328  0.00  0.00    +0.023 A 
ATOM     32  C   UNL     1       5.956   3.609   4.369  0.00  0.00    +0.033 A 
ATOM     33  C   UNL     1       6.715   3.024   5.374  0.00  0.00    +0.023 A 
ATOM     34  C   UNL     1       8.093   3.100   5.329  0.00  0.00    +0.005 A 
BRANCH  29  36
ATOM     35  C   UNL     1      10.682   5.108   4.992  0.00  0.00    +0.009 C 
ATOM     36  C   UNL     1      10.221   3.853   4.248  0.00  0.00    +0.032 C 
ENDBRANCH  29  36
ENDBRANCH  25  32
ENDBRANCH  23  26
ENDBRANCH  22  23
ENDBRANCH   1  22
TORSDOF 6
