REMARK  Name = ZINC03239497
REMARK  7 active torsions:
REMARK  status: ('A' for Active; 'I' for Inactive)
REMARK    1  A    between atoms: C_4  and  C_7
REMARK    2  A    between atoms: C_9  and  C_17
REMARK    3  A    between atoms: C_17  and  O_19
REMARK    4  A    between atoms: O_19  and  C_20
REMARK    5  A    between atoms: C_20  and  C_21
REMARK    6  A    between atoms: N_23  and  C_24
REMARK    7  A    between atoms: C_26  and  N_31
REMARK                            x       y       z     vdW  Elec       q    Type
REMARK                         _______ _______ _______ _____ _____    ______ ____
ROOT
ATOM      1  C   UNL     1      -0.149   1.080  -0.099  0.00  0.00    +0.340 C 
ATOM      2  O   UNL     1       0.855   1.763  -0.098  0.00  0.00    -0.245 OA
ENDROOT
BRANCH   1   5
ATOM      3  C   UNL     1      -3.884   1.625  -0.254  0.00  0.00    +0.072 A 
ATOM      4  C   UNL     1      -2.642   0.972  -0.236  0.00  0.00    +0.044 A 
ATOM      5  C   UNL     1      -1.480   1.722  -0.122  0.00  0.00    +0.070 A 
ATOM      6  C   UNL     1      -1.626   3.175  -0.021  0.00  0.00    +0.014 A 
ATOM      7  C   UNL     1      -0.513   4.015   0.103  0.00  0.00    +0.011 A 
ATOM      8  C   UNL     1      -0.695   5.363   0.196  0.00  0.00    +0.001 A 
ATOM      9  C   UNL     1      -1.974   5.915   0.168  0.00  0.00    +0.002 A 
ATOM     10  C   UNL     1      -3.076   5.128   0.038  0.00  0.00    +0.028 A 
ATOM     11  C   UNL     1      -2.929   3.731  -0.054  0.00  0.00    +0.072 A 
ATOM     12  N   UNL     1      -3.992   2.933  -0.167  0.00  0.00    -0.247 NA
BRANCH   3  16
ATOM     13  C   UNL     1      -7.421  -0.708  -0.604  0.00  0.00    +0.000 A 
ATOM     14  C   UNL     1      -7.511   0.670  -0.510  0.00  0.00    +0.001 A 
ATOM     15  C   UNL     1      -6.366   1.432  -0.397  0.00  0.00    +0.010 A 
ATOM     16  C   UNL     1      -5.118   0.811  -0.376  0.00  0.00    +0.000 A 
ATOM     17  C   UNL     1      -5.034  -0.577  -0.476  0.00  0.00    +0.010 A 
ATOM     18  C   UNL     1      -6.186  -1.329  -0.584  0.00  0.00    +0.001 A 
ENDBRANCH   3  16
ENDBRANCH   1   5
BRANCH   1  19
ATOM     19  O   UNL     1      -0.050  -0.263  -0.084  0.00  0.00    -0.452 OA
BRANCH  19  20
ATOM     20  C   UNL     1       1.289  -0.825  -0.067  0.00  0.00    +0.328 C 
BRANCH  20  21
ATOM     21  C   UNL     1       1.202  -2.330  -0.051  0.00  0.00    +0.255 C 
ATOM     22  O   UNL     1       0.119  -2.875  -0.055  0.00  0.00    -0.272 OA
ATOM     23  N   UNL     1       2.329  -3.070  -0.035  0.00  0.00    -0.280 N 
ATOM     24  H   UNL     1       3.192  -2.636   0.051  0.00  0.00    +0.155 HD
BRANCH  23  25
ATOM     25  C   UNL     1       2.252  -4.464  -0.141  0.00  0.00    +0.071 A 
ATOM     26  C   UNL     1       1.263  -5.049  -0.919  0.00  0.00    +0.059 A 
ATOM     27  C   UNL     1       1.194  -6.425  -1.027  0.00  0.00    +0.128 A 
ATOM     28  C   UNL     1       2.101  -7.220  -0.351  0.00  0.00    +0.035 A 
ATOM     29  C   UNL     1       3.085  -6.642   0.430  0.00  0.00    +0.042 A 
ATOM     30  C   UNL     1       3.164  -5.266   0.538  0.00  0.00    +0.145 A 
ATOM     31  F   UNL     1       4.125  -4.701   1.300  0.00  0.00    -0.204 F 
BRANCH  27  32
ATOM     32  N   UNL     1       0.142  -7.048  -1.861  0.00  0.00    +0.056 N 
ATOM     33  O   UNL     1       0.077  -8.261  -1.952  0.00  0.00    -0.126 OA
ATOM     34  O   UNL     1      -0.657  -6.349  -2.457  0.00  0.00    -0.126 OA
ENDBRANCH  27  32
ENDBRANCH  23  25
ENDBRANCH  20  21
ENDBRANCH  19  20
ENDBRANCH   1  19
TORSDOF 7
