REMARK  Name = ZINC62998401
REMARK  6 active torsions:
REMARK  status: ('A' for Active; 'I' for Inactive)
REMARK    1  A    between atoms: C_1  and  C_2
REMARK    2  A    between atoms: C_4  and  N_19
REMARK    3  A    between atoms: C_5  and  C_18
REMARK    4  A    between atoms: C_7  and  O_8
REMARK    5  A    between atoms: O_8  and  C_9
REMARK    6  A    between atoms: C_15  and  O_17
REMARK                            x       y       z     vdW  Elec       q    Type
REMARK                         _______ _______ _______ _____ _____    ______ ____
ROOT
ATOM      1  C   UNL     1      -0.235   0.995  -0.986  0.00  0.00    +0.047 C 
ATOM      2  C   UNL     1      -0.080  -0.366  -0.359  0.00  0.00    -0.007 A 
ATOM      3  C   UNL     1       0.189  -1.466  -1.151  0.00  0.00    +0.040 A 
ATOM      4  C   UNL     1       0.332  -2.715  -0.577  0.00  0.00    +0.130 A 
ATOM      5  C   UNL     1       0.206  -2.867   0.792  0.00  0.00    -0.017 A 
ATOM      6  C   UNL     1      -0.063  -1.771   1.588  0.00  0.00    +0.051 A 
ATOM      7  C   UNL     1      -0.201  -0.515   1.015  0.00  0.00    +0.124 A 
ATOM      8  C   UNL     1       0.362  -4.231   1.415  0.00  0.00    +0.046 C 
ENDROOT
BRANCH   4   9
ATOM      9  N   UNL     1       0.620  -3.891  -1.427  0.00  0.00    +0.057 N 
ATOM     10  O   UNL     1       1.387  -4.742  -1.043  0.00  0.00    -0.126 OA
ATOM     11  O   UNL     1       0.087  -4.001  -2.507  0.00  0.00    -0.126 OA
ENDBRANCH   4   9
BRANCH   7  12
ATOM     12  O   UNL     1      -0.461   0.565   1.796  0.00  0.00    -0.486 OA
BRANCH  12  13
ATOM     13  C   UNL     1      -0.693   0.321   3.185  0.00  0.00    +0.202 C 
ATOM     14  C   UNL     1       0.643   0.300   3.930  0.00  0.00    +0.047 C 
ATOM     15  C   UNL     1       0.395   0.039   5.417  0.00  0.00    +0.004 C 
ATOM     16  C   UNL     1      -0.491   1.147   5.989  0.00  0.00    +0.003 C 
ATOM     17  C   UNL     1      -1.827   1.167   5.244  0.00  0.00    +0.035 C 
ATOM     18  C   UNL     1      -1.579   1.429   3.757  0.00  0.00    +0.155 C 
BRANCH  18  19
ATOM     19  O   UNL     1      -2.827   1.448   3.062  0.00  0.00    -0.388 OA
ATOM     20  H   UNL     1      -3.440   2.128   3.372  0.00  0.00    +0.210 HD
ENDBRANCH  18  19
ENDBRANCH  12  13
ENDBRANCH   7  12
TORSDOF 4
