REMARK  Name = ZINC39535134
REMARK  8 active torsions:
REMARK  status: ('A' for Active; 'I' for Inactive)
REMARK    1  A    between atoms: C_1  and  C_2
REMARK    2  A    between atoms: C_2  and  C_4
REMARK    3  A    between atoms: C_2  and  N_12
REMARK    4  A    between atoms: C_13  and  C_15
REMARK    5  A    between atoms: C_15  and  S_16
REMARK    6  A    between atoms: S_16  and  C_17
REMARK    7  A    between atoms: C_20  and  C_23
REMARK    8  A    between atoms: N_21  and  N_22
REMARK                            x       y       z     vdW  Elec       q    Type
REMARK                         _______ _______ _______ _____ _____    ______ ____
ROOT
ATOM      1  C   UNL     1       0.526  -1.222   3.593  0.00  0.00    +0.173 C 
ENDROOT
BRANCH   1   3
ATOM      2  N   UNL     1       0.629  -0.500   1.230  0.00  0.00    -0.308 N 
ATOM      3  C   UNL     1      -0.119  -0.712   2.330  0.00  0.00    +0.224 C 
ATOM      4  O   UNL     1      -1.311  -0.491   2.305  0.00  0.00    -0.275 OA
ATOM      5  H   UNL     1       1.583  -0.677   1.250  0.00  0.00    +0.149 HD
BRANCH   2   7
ATOM      6  C   UNL     1      -0.037   1.525   0.032  0.00  0.00    +0.033 C 
ATOM      7  C   UNL     1       0.002  -0.004   0.002  0.00  0.00    +0.102 C 
BRANCH   7   8
ATOM      8  C   UNL     1       0.800  -0.463  -1.191  0.00  0.00    -0.009 A 
ATOM      9  C   UNL     1       2.154  -0.715  -1.061  0.00  0.00    +0.008 A 
ATOM     10  C   UNL     1       2.886  -1.136  -2.155  0.00  0.00    +0.020 A 
ATOM     11  C   UNL     1       2.266  -1.305  -3.380  0.00  0.00    +0.042 A 
ATOM     12  C   UNL     1       0.912  -1.053  -3.510  0.00  0.00    +0.040 A 
ATOM     13  C   UNL     1       0.178  -0.637  -2.414  0.00  0.00    +0.047 A 
ATOM     14 CL   UNL     1      -1.522  -0.326  -2.575  0.00  0.00    -0.083 Cl
ATOM     15 CL   UNL     1       3.187  -1.833  -4.754  0.00  0.00    -0.083 Cl
ENDBRANCH   7   8
ENDBRANCH   2   7
ENDBRANCH   1   3
BRANCH   1  16
ATOM     16  S   UNL     1      -0.734  -1.403   4.886  0.00  0.00    -0.075 S 
BRANCH  16  17
ATOM     17  C   UNL     1       0.167  -1.999   6.278  0.00  0.00    +0.209 A 
ATOM     18  N   UNL     1       1.457  -2.238   6.327  0.00  0.00    -0.121 NA
ATOM     19  N   UNL     1       1.785  -2.664   7.494  0.00  0.00    -0.126 NA
ATOM     20  C   UNL     1       0.721  -2.724   8.265  0.00  0.00    +0.188 A 
ATOM     21  N   UNL     1      -0.348  -2.294   7.510  0.00  0.00    -0.223 N 
BRANCH  20  22
ATOM     22  C   UNL     1       0.681  -3.161   9.669  0.00  0.00    +0.058 A 
ATOM     23  C   UNL     1       1.717  -3.322  10.555  0.00  0.00    +0.019 A 
ATOM     24  C   UNL     1       1.434  -3.746  11.834  0.00  0.00    +0.008 A 
ATOM     25  C   UNL     1       0.143  -3.992  12.179  0.00  0.00    +0.046 A 
ATOM     26  S   UNL     1      -0.728  -3.614  10.668  0.00  0.00    -0.093 S 
ENDBRANCH  20  22
BRANCH  21  27
ATOM     27  N   UNL     1      -1.650  -2.186   7.909  0.00  0.00    -0.295 N 
ATOM     28  H   UNL     1      -2.153  -3.043   7.737  0.00  0.00    +0.163 HD
ATOM     29  H   UNL     1      -1.710  -1.920   8.880  0.00  0.00    +0.163 HD
ENDBRANCH  21  27
ENDBRANCH  16  17
ENDBRANCH   1  16
TORSDOF 7
