REMARK  Name = ZINC06239122
REMARK  8 active torsions:
REMARK  status: ('A' for Active; 'I' for Inactive)
REMARK    1  A    between atoms: C_1  and  O_2
REMARK    2  A    between atoms: O_2  and  C_3
REMARK    3  A    between atoms: C_3  and  C_4
REMARK    4  A    between atoms: C_4  and  N_5
REMARK    5  A    between atoms: C_6  and  C_10
REMARK    6  A    between atoms: C_10  and  C_12
REMARK    7  A    between atoms: C_10  and  N_62
REMARK    8  A    between atoms: C_29  and  C_32
REMARK                            x       y       z     vdW  Elec       q    Type
REMARK                         _______ _______ _______ _____ _____    ______ ____
ROOT
ATOM      1  C   UNL     1       3.510   0.737  -0.027  0.00  0.00    +0.039 C 
ENDROOT
BRANCH   1   2
ATOM      2  C   UNL     1       3.826   1.181  -1.432  0.00  0.00    +0.011 A 
ATOM      3  C   UNL     1       4.485   0.345  -2.273  0.00  0.00    +0.017 A 
ATOM      4  C   UNL     1       4.777   0.805  -3.631  0.00  0.00    +0.002 A 
ATOM      5  C   UNL     1       5.453  -0.016  -4.542  0.00  0.00    +0.059 A 
ATOM      6  C   UNL     1       5.712   0.445  -5.814  0.00  0.00    +0.167 A 
ATOM      7  C   UNL     1       5.303   1.729  -6.197  0.00  0.00    +0.168 A 
ATOM      8  C   UNL     1       4.636   2.546  -5.303  0.00  0.00    +0.075 A 
ATOM      9  C   UNL     1       4.366   2.095  -4.017  0.00  0.00    +0.053 A 
ATOM     10  N   UNL     1       3.699   2.897  -3.112  0.00  0.00    -0.322 N 
ATOM     11  H   UNL     1       3.412   3.815  -3.385  0.00  0.00    +0.169 HD
ATOM     12  C   UNL     1       3.431   2.462  -1.869  0.00  0.00    +0.251 A 
ATOM     13  O   UNL     1       2.835   3.195  -1.098  0.00  0.00    -0.268 OA
ATOM     14  O   UNL     1       5.680   1.934  -7.492  0.00  0.00    -0.453 OA
ATOM     15  C   UNL     1       5.953   0.626  -8.027  0.00  0.00    +0.466 C 
ATOM     16  O   UNL     1       6.341  -0.144  -6.874  0.00  0.00    -0.453 OA
ENDBRANCH   1   2
BRANCH   1  22
ATOM     17  C   UNL     1       5.484   1.862   0.816  0.00  0.00    -0.072 C 
ATOM     18  C   UNL     1       5.919   3.112   1.587  0.00  0.00    +0.017 C 
ATOM     19  C   UNL     1       5.304   3.101   2.958  0.00  0.00    -0.048 C 
ATOM     20  C   UNL     1       4.287   2.329   3.274  0.00  0.00    -0.041 C 
ATOM     21  C   UNL     1       3.647   1.379   2.303  0.00  0.00    -0.049 C 
ATOM     22  N   UNL     1       4.015   1.752   0.925  0.00  0.00    +0.392 N 
ATOM     23  H   UNL     1       3.594   2.661   0.699  0.00  0.00    -0.080 HD
BRANCH  19  24
ATOM     24  C   UNL     1       5.863   3.995   3.993  0.00  0.00    -0.022 A 
ATOM     25  C   UNL     1       5.783   5.380   3.840  0.00  0.00    +0.011 A 
ATOM     26  C   UNL     1       6.301   6.210   4.812  0.00  0.00    +0.039 A 
ATOM     27  C   UNL     1       6.912   5.671   5.934  0.00  0.00    +0.123 A 
ATOM     28  C   UNL     1       7.000   4.296   6.087  0.00  0.00    +0.039 A 
ATOM     29  C   UNL     1       6.479   3.458   5.124  0.00  0.00    +0.011 A 
ATOM     30  F   UNL     1       7.423   6.488   6.880  0.00  0.00    -0.205 F 
ENDBRANCH  19  24
ENDBRANCH   1  22
BRANCH   1  32
ATOM     31  N   UNL     1       1.309  -0.536   0.167  0.00  0.00    -0.228 N 
ATOM     32  C   UNL     1       2.018   0.608   0.135  0.00  0.00    +0.143 A 
ATOM     33  N   UNL     1       1.158   1.587   0.274  0.00  0.00    -0.115 NA
ATOM     34  N   UNL     1      -0.018   1.072   0.384  0.00  0.00    -0.023 NA
ATOM     35  N   UNL     1       0.070  -0.211   0.321  0.00  0.00    -0.044 NA
BRANCH  31  36
ATOM     36  C   UNL     1       1.843  -1.895   0.049  0.00  0.00    +0.175 C 
BRANCH  36  37
ATOM     37  C   UNL     1       1.868  -2.307  -1.424  0.00  0.00    +0.183 C 
BRANCH  37  39
ATOM     38  C   UNL     1       2.455  -4.117  -2.882  0.00  0.00    +0.194 C 
ATOM     39  O   UNL     1       2.389  -3.633  -1.539  0.00  0.00    -0.381 OA
ENDBRANCH  37  39
ENDBRANCH  36  37
ENDBRANCH  31  36
ENDBRANCH   1  32
TORSDOF 7
