REMARK  Name = ZINC59181197
REMARK  4 active torsions:
REMARK  status: ('A' for Active; 'I' for Inactive)
REMARK    1  A    between atoms: C_1  and  C_2
REMARK    2  A    between atoms: C_5  and  O_34
REMARK    3  A    between atoms: C_18  and  C_33
REMARK    4  A    between atoms: C_23  and  C_24
REMARK                            x       y       z     vdW  Elec       q    Type
REMARK                         _______ _______ _______ _____ _____    ______ ____
ROOT
ATOM      1  C   UNL     1       0.577   0.482  -1.982  0.00  0.00    +0.012 C 
ATOM      2  C   UNL     1       0.424  -0.830  -1.197  0.00  0.00    -0.026 C 
ATOM      3  C   UNL     1       1.207  -1.939  -1.889  0.00  0.00    +0.010 C 
ATOM      4  C   UNL     1       2.691  -1.579  -1.957  0.00  0.00    +0.032 C 
ATOM      5  C   UNL     1       3.251  -1.352  -0.557  0.00  0.00    +0.115 C 
ATOM      6  C   UNL     1       2.447  -0.315   0.212  0.00  0.00    +0.035 C 
ATOM      7  C   UNL     1       0.952  -0.615   0.222  0.00  0.00    -0.002 C 
ATOM      8  C   UNL     1       0.657  -1.790   1.147  0.00  0.00    +0.004 C 
ATOM      9  C   UNL     1      -0.849  -2.098   1.166  0.00  0.00    +0.004 C 
ATOM     10  C   UNL     1      -1.238  -2.434  -0.267  0.00  0.00    -0.003 C 
ATOM     11  C   UNL     1      -1.063  -1.178  -1.129  0.00  0.00    -0.001 C 
ATOM     12  C   UNL     1      -1.708  -1.411  -2.486  0.00  0.00    +0.005 C 
ATOM     13  C   UNL     1      -3.239  -1.495  -2.348  0.00  0.00    +0.015 C 
ATOM     14  C   UNL     1      -3.626  -2.028  -0.994  0.00  0.00    +0.034 C 
ATOM     15  C   UNL     1      -2.582  -3.039  -0.472  0.00  0.00    +0.010 C 
ATOM     16  C   UNL     1      -3.343  -3.582   0.748  0.00  0.00    +0.043 C 
ATOM     17  C   UNL     1      -4.747  -3.755   0.161  0.00  0.00    -0.004 C 
ATOM     18  C   UNL     1      -5.696  -4.601   0.624  0.00  0.00    +0.016 C 
ATOM     19  C   UNL     1      -4.883  -2.874  -0.951  0.00  0.00    +0.165 C 
ATOM     20  O   UNL     1      -5.812  -2.802  -1.721  0.00  0.00    -0.292 OA
ATOM     21  C   UNL     1      -3.860  -0.875  -0.013  0.00  0.00    +0.020 C 
ENDROOT
BRANCH  18  22
ATOM     22  C   UNL     1      -7.057  -4.552   0.072  0.00  0.00    -0.006 A 
ATOM     23  C   UNL     1      -7.668  -3.320  -0.186  0.00  0.00    +0.009 A 
ATOM     24  C   UNL     1      -8.944  -3.282  -0.704  0.00  0.00    +0.001 A 
ATOM     25  C   UNL     1      -9.624  -4.459  -0.968  0.00  0.00    +0.001 A 
ATOM     26  C   UNL     1      -9.029  -5.683  -0.716  0.00  0.00    +0.020 A 
ATOM     27  C   UNL     1      -7.748  -5.739  -0.204  0.00  0.00    +0.048 A 
ATOM     28 CL   UNL     1      -7.000  -7.274   0.105  0.00  0.00    -0.083 Cl
ENDBRANCH  18  22
BRANCH   5  29
ATOM     29  O   UNL     1       3.300  -2.587   0.158  0.00  0.00    -0.392 OA
ATOM     30  H   UNL     1       3.853  -3.261  -0.259  0.00  0.00    +0.210 HD
ENDBRANCH   5  29
TORSDOF 2
