REMARK  Name = ZINC43298149
REMARK  7 active torsions:
REMARK  status: ('A' for Active; 'I' for Inactive)
REMARK    1  A    between atoms: C_1  and  C_2
REMARK    2  A    between atoms: C_2  and  C_3
REMARK    3  A    between atoms: C_3  and  C_5
REMARK    4  A    between atoms: C_3  and  N_23
REMARK    5  A    between atoms: C_5  and  C_7
REMARK    6  A    between atoms: C_5  and  N_14
REMARK    7  A    between atoms: C_17  and  C_19
REMARK                            x       y       z     vdW  Elec       q    Type
REMARK                         _______ _______ _______ _____ _____    ______ ____
ROOT
ATOM      1  C   UNL     1       0.550  -2.024   1.367  0.00  0.00    +0.123 C 
ENDROOT
BRANCH   1   2
ATOM      2  C   UNL     1      -0.887  -2.473   1.425  0.00  0.00    -0.025 A 
ATOM      3  C   UNL     1      -1.220  -3.769   1.081  0.00  0.00    +0.007 A 
ATOM      4  C   UNL     1      -2.538  -4.182   1.135  0.00  0.00    +0.015 A 
ATOM      5  C   UNL     1      -3.524  -3.297   1.534  0.00  0.00    +0.018 A 
ATOM      6  C   UNL     1      -3.190  -2.000   1.879  0.00  0.00    +0.015 A 
ATOM      7  C   UNL     1      -1.871  -1.590   1.829  0.00  0.00    +0.007 A 
ATOM      8 BR   UNL     1      -5.327  -3.861   1.608  0.00  0.00    -0.050 Br
ENDBRANCH   1   2
BRANCH   1   9
ATOM      9  N   UNL     1       1.231  -2.707   0.264  0.00  0.00    -0.265 N 
ATOM     10  C   UNL     1       0.685  -3.027  -0.928  0.00  0.00    +0.109 A 
ATOM     11  C   UNL     1       1.638  -3.645  -1.665  0.00  0.00    +0.053 A 
ATOM     12  C   UNL     1       2.805  -3.704  -0.896  0.00  0.00    +0.165 A 
ATOM     13  N   UNL     1       2.564  -3.136   0.257  0.00  0.00    -0.167 NA
BRANCH  12  14
ATOM     14  C   UNL     1       4.116  -4.310  -1.326  0.00  0.00    +0.436 C 
ATOM     15  F   UNL     1       4.901  -3.332  -1.946  0.00  0.00    -0.164 F 
ATOM     16  F   UNL     1       4.790  -4.807  -0.205  0.00  0.00    -0.164 F 
ATOM     17  F   UNL     1       3.875  -5.354  -2.226  0.00  0.00    -0.164 F 
ENDBRANCH  12  14
ENDBRANCH   1   9
BRANCH   1  18
ATOM     18  C   UNL     1       0.603  -0.511   1.141  0.00  0.00    -0.046 C 
BRANCH  18  19
ATOM     19  N   UNL     1       2.001  -0.061   1.169  0.00  0.00    +0.382 N 
ATOM     20  H   UNL     1       2.408  -0.281   2.066  0.00  0.00    -0.090 HD
ATOM     21  H   UNL     1       2.520  -0.528   0.441  0.00  0.00    -0.090 HD
ATOM     22  H   UNL     1       2.036   0.937   1.020  0.00  0.00    -0.090 HD
ENDBRANCH  18  19
BRANCH  18  24
ATOM     23  C   UNL     1      -0.094   1.342  -0.383  0.00  0.00    +0.002 C 
ATOM     24  C   UNL     1      -0.013  -0.177  -0.219  0.00  0.00    -0.017 C 
ENDBRANCH  18  24
ENDBRANCH   1  18
TORSDOF 6
