REMARK  Name = ZINC01875309
REMARK  11 active torsions:
REMARK  status: ('A' for Active; 'I' for Inactive)
REMARK    1  A    between atoms: C_1  and  C_2
REMARK    2  A    between atoms: C_2  and  C_4
REMARK    3  A    between atoms: C_2  and  N_10
REMARK    4  A    between atoms: N_10  and  S_11
REMARK    5  A    between atoms: S_11  and  C_14
REMARK    6  A    between atoms: N_21  and  O_22
REMARK    7  A    between atoms: C_27  and  S_29
REMARK    8  A    between atoms: S_29  and  N_32
REMARK    9  A    between atoms: N_32  and  C_33
REMARK   10  A    between atoms: C_33  and  C_35
REMARK   11  A    between atoms: C_33  and  C_36
REMARK                            x       y       z     vdW  Elec       q    Type
REMARK                         _______ _______ _______ _____ _____    ______ ____
ROOT
ATOM      1  C   UNL     1       0.002  -0.004   0.002  0.00  0.00    +0.106 A 
ATOM      2  C   UNL     1      -1.091  -0.705  -0.477  0.00  0.00    +0.029 A 
ATOM      3  C   UNL     1      -1.086  -2.086  -0.491  0.00  0.00    +0.011 A 
ATOM      4  C   UNL     1       0.025  -2.783  -0.021  0.00  0.00    -0.008 A 
ATOM      5  C   UNL     1       1.132  -2.070   0.465  0.00  0.00    +0.014 A 
ATOM      6  C   UNL     1       1.114  -0.679   0.467  0.00  0.00    +0.039 A 
ATOM      7  C   UNL     1       2.154  -3.055   0.892  0.00  0.00    +0.118 C 
ATOM      8  N   UNL     1       3.322  -2.789   1.399  0.00  0.00    -0.086 NA
ATOM      9  C   UNL     1       1.591  -4.402   0.634  0.00  0.00    +0.014 A 
ATOM     10  C   UNL     1       0.309  -4.233   0.084  0.00  0.00    -0.008 A 
ATOM     11  C   UNL     1      -0.444  -5.355  -0.254  0.00  0.00    +0.011 A 
ATOM     12  C   UNL     1       0.071  -6.620  -0.048  0.00  0.00    +0.029 A 
ATOM     13  C   UNL     1       1.334  -6.784   0.494  0.00  0.00    +0.106 A 
ATOM     14  C   UNL     1       2.095  -5.682   0.835  0.00  0.00    +0.039 A 
ENDROOT
BRANCH   1  15
ATOM     15  S   UNL     1      -0.022   1.758   0.012  0.00  0.00    +0.059 S 
ATOM     16  O   UNL     1       1.334   2.182   0.001  0.00  0.00    -0.153 OA
ATOM     17  O   UNL     1      -0.953   2.157  -0.985  0.00  0.00    -0.153 OA
BRANCH  15  18
ATOM     18  N   UNL     1      -0.654   2.231   1.467  0.00  0.00    -0.183 NA
ATOM     19  H   UNL     1      -1.502   2.702   1.498  0.00  0.00    +0.149 HD
BRANCH  18  21
ATOM     20  C   UNL     1      -0.468   0.638   3.313  0.00  0.00    +0.031 C 
ATOM     21  C   UNL     1       0.066   1.938   2.709  0.00  0.00    +0.103 C 
BRANCH  21  22
ATOM     22  C   UNL     1      -0.138   3.067   3.686  0.00  0.00    -0.029 A 
ATOM     23  C   UNL     1      -1.376   3.672   3.794  0.00  0.00    +0.005 A 
ATOM     24  C   UNL     1      -1.564   4.705   4.694  0.00  0.00    +0.000 A 
ATOM     25  C   UNL     1      -0.511   5.139   5.478  0.00  0.00    +0.000 A 
ATOM     26  C   UNL     1       0.728   4.537   5.366  0.00  0.00    +0.000 A 
ATOM     27  C   UNL     1       0.915   3.502   4.470  0.00  0.00    +0.005 A 
ENDBRANCH  21  22
ENDBRANCH  18  21
ENDBRANCH  15  18
ENDBRANCH   1  15
BRANCH  13  28
ATOM     28  S   UNL     1       1.975  -8.405   0.749  0.00  0.00    +0.059 S 
ATOM     29  O   UNL     1       1.290  -9.260  -0.156  0.00  0.00    -0.153 OA
ATOM     30  O   UNL     1       3.391  -8.286   0.761  0.00  0.00    -0.153 OA
BRANCH  28  31
ATOM     31  N   UNL     1       1.528  -8.874   2.273  0.00  0.00    -0.183 NA
ATOM     32  H   UNL     1       2.203  -9.024   2.953  0.00  0.00    +0.149 HD
BRANCH  31  33
ATOM     33  C   UNL     1       0.111  -9.062   2.596  0.00  0.00    +0.103 C 
ATOM     34  C   UNL     1      -0.444  -7.781   3.222  0.00  0.00    +0.031 C 
BRANCH  33  35
ATOM     35  C   UNL     1      -0.036 -10.202   3.570  0.00  0.00    -0.029 A 
ATOM     36  C   UNL     1       0.877 -10.356   4.596  0.00  0.00    +0.005 A 
ATOM     37  C   UNL     1       0.740 -11.399   5.493  0.00  0.00    +0.000 A 
ATOM     38  C   UNL     1      -0.305 -12.294   5.357  0.00  0.00    +0.000 A 
ATOM     39  C   UNL     1      -1.215 -12.143   4.328  0.00  0.00    +0.000 A 
ATOM     40  C   UNL     1      -1.081 -11.097   3.434  0.00  0.00    +0.005 A 
ENDBRANCH  33  35
ENDBRANCH  31  33
ENDBRANCH  28  31
ENDBRANCH  13  28
BRANCH   8  41
ATOM     41  O   UNL     1       4.194  -3.844   1.762  0.00  0.00    -0.409 OA
ATOM     42  H   UNL     1       5.038  -3.549   2.130  0.00  0.00    +0.328 HD
ENDBRANCH   8  41
TORSDOF 9
