REMARK  Name = ZINC41586494
REMARK  8 active torsions:
REMARK  status: ('A' for Active; 'I' for Inactive)
REMARK    1  A    between atoms: C_1  and  C_2
REMARK    2  A    between atoms: C_2  and  O_3
REMARK    3  A    between atoms: O_3  and  C_4
REMARK    4  A    between atoms: C_4  and  C_6
REMARK    5  A    between atoms: N_11  and  C_13
REMARK    6  A    between atoms: C_13  and  C_14
REMARK    7  A    between atoms: C_15  and  O_32
REMARK    8  A    between atoms: C_22  and  C_23
REMARK                            x       y       z     vdW  Elec       q    Type
REMARK                         _______ _______ _______ _____ _____    ______ ____
ROOT
ATOM      1  C   UNL     1      -5.673  -6.120   0.199  0.00  0.00    +0.020 A 
ATOM      2  C   UNL     1      -6.173  -6.397   1.461  0.00  0.00    +0.122 A 
ATOM      3  C   UNL     1      -7.294  -7.208   1.616  0.00  0.00    +0.046 A 
ATOM      4  C   UNL     1      -7.912  -7.741   0.520  0.00  0.00    +0.019 A 
ATOM      5  C   UNL     1      -7.420  -7.471  -0.756  0.00  0.00    +0.068 A 
ATOM      6  C   UNL     1      -6.293  -6.649  -0.926  0.00  0.00    +0.144 A 
ATOM      7  O   UNL     1      -6.010  -6.529  -2.241  0.00  0.00    -0.451 OA
ATOM      8  C   UNL     1      -6.884  -7.221  -3.010  0.00  0.00    +0.176 C 
ATOM      9  C   UNL     1      -6.871  -7.302  -4.363  0.00  0.00    +0.058 C 
ATOM     10  C   UNL     1      -7.843  -7.880  -2.108  0.00  0.00    +0.231 C 
ATOM     11  O   UNL     1      -8.784  -8.593  -2.411  0.00  0.00    -0.283 OA
ENDROOT
BRANCH   9  12
ATOM     12  C   UNL     1      -5.759  -6.714  -5.124  0.00  0.00    -0.020 A 
ATOM     13  C   UNL     1      -4.632  -6.222  -4.456  0.00  0.00    +0.008 A 
ATOM     14  C   UNL     1      -3.593  -5.673  -5.176  0.00  0.00    +0.002 A 
ATOM     15  C   UNL     1      -3.662  -5.607  -6.557  0.00  0.00    +0.015 A 
ATOM     16  C   UNL     1      -4.773  -6.091  -7.227  0.00  0.00    +0.018 A 
ATOM     17  C   UNL     1      -5.819  -6.649  -6.521  0.00  0.00    +0.023 A 
ATOM     18 BR   UNL     1      -4.855  -5.994  -9.113  0.00  0.00    -0.050 Br
ENDBRANCH   9  12
BRANCH   2  19
ATOM     19  O   UNL     1      -5.565  -5.873   2.555  0.00  0.00    -0.506 OA
ATOM     20  H   UNL     1      -5.911  -5.010   2.822  0.00  0.00    +0.292 HD
ENDBRANCH   2  19
BRANCH   1  21
ATOM     21  C   UNL     1      -4.459  -5.240   0.046  0.00  0.00    -0.036 C 
BRANCH  21  26
ATOM     22  C   UNL     1      -4.137  -1.506  -0.144  0.00  0.00    +0.081 C 
ATOM     23  C   UNL     1      -4.968  -1.267  -1.408  0.00  0.00    +0.011 C 
ATOM     24  C   UNL     1      -6.160  -2.229  -1.413  0.00  0.00    -0.018 C 
ATOM     25  C   UNL     1      -5.647  -3.668  -1.319  0.00  0.00    -0.078 C 
ATOM     26  N   UNL     1      -4.883  -3.839  -0.078  0.00  0.00    +0.383 N 
ATOM     27  C   UNL     1      -3.699  -2.971  -0.096  0.00  0.00    -0.064 C 
ATOM     28  H   UNL     1      -5.465  -3.595   0.710  0.00  0.00    -0.081 HD
BRANCH  22  29
ATOM     29  C   UNL     1      -2.920  -0.617  -0.166  0.00  0.00    +0.308 C 
ATOM     30  O   UNL     1      -1.815  -1.106  -0.145  0.00  0.00    -0.251 OA
BRANCH  29  31
ATOM     31  O   UNL     1      -3.063   0.716  -0.210  0.00  0.00    -0.465 OA
BRANCH  31  33
ATOM     32  C   UNL     1      -2.228   2.983  -0.280  0.00  0.00    +0.048 C 
ATOM     33  C   UNL     1      -1.867   1.497  -0.230  0.00  0.00    +0.229 C 
ENDBRANCH  31  33
ENDBRANCH  29  31
ENDBRANCH  22  29
ENDBRANCH  21  26
ENDBRANCH   1  21
TORSDOF 7
