REMARK  Name = ZINC63651950
REMARK  7 active torsions:
REMARK  status: ('A' for Active; 'I' for Inactive)
REMARK    1  A    between atoms: C_1  and  C_2
REMARK    2  A    between atoms: C_4  and  S_18
REMARK    3  A    between atoms: C_6  and  C_11
REMARK    4  A    between atoms: C_8  and  C_10
REMARK    5  A    between atoms: S_18  and  N_21
REMARK    6  A    between atoms: N_21  and  C_22
REMARK    7  A    between atoms: C_25  and  C_28
REMARK                            x       y       z     vdW  Elec       q    Type
REMARK                         _______ _______ _______ _____ _____    ______ ____
ROOT
ATOM      1  S   UNL     1       2.134  -1.302   1.149  0.00  0.00    +0.071 S 
ATOM      2  O   UNL     1       1.878  -2.547   0.512  0.00  0.00    -0.153 OA
ATOM      3  O   UNL     1       3.113  -0.411   0.632  0.00  0.00    -0.153 OA
ENDROOT
BRANCH   1   6
ATOM      4  C   UNL     1      -0.256   1.543   0.089  0.00  0.00    +0.030 C 
ATOM      5  C   UNL     1      -0.052   0.027   0.106  0.00  0.00    +0.098 C 
ATOM      6  C   UNL     1       0.577  -0.418   1.441  0.00  0.00    +0.209 C 
ATOM      7  C   UNL     1      -0.462  -1.345   2.035  0.00  0.00    +0.058 C 
ATOM      8  H   UNL     1      -1.993  -0.599  -0.656  0.00  0.00    +0.146 HD
ATOM      9  C   UNL     1      -1.501  -1.417   1.189  0.00  0.00    +0.011 C 
ATOM     10  N   UNL     1      -1.347  -0.667   0.065  0.00  0.00    -0.342 N 
ATOM     11  C   UNL     1      -2.725  -2.254   1.458  0.00  0.00    +0.061 C 
BRANCH   7  12
ATOM     12  C   UNL     1      -0.355  -2.021   3.273  0.00  0.00    +0.246 C 
ATOM     13  O   UNL     1       0.297  -3.046   3.352  0.00  0.00    -0.270 OA
ATOM     14  N   UNL     1      -0.975  -1.530   4.364  0.00  0.00    -0.298 N 
ATOM     15  C   UNL     1      -1.882  -0.373   4.387  0.00  0.00    +0.108 C 
ATOM     16  C   UNL     1      -2.327  -0.169   5.850  0.00  0.00    +0.020 C 
ATOM     17  C   UNL     1      -1.203  -0.871   6.657  0.00  0.00    +0.020 C 
ATOM     18  C   UNL     1      -0.862  -2.069   5.732  0.00  0.00    +0.108 C 
ENDBRANCH   7  12
ENDBRANCH   1   6
BRANCH   1  19
ATOM     19  N   UNL     1       2.684  -1.704   2.658  0.00  0.00    -0.102 NA
BRANCH  19  20
ATOM     20  C   UNL     1       3.835  -2.483   2.797  0.00  0.00    +0.074 A 
ATOM     21  C   UNL     1       4.596  -2.805   1.681  0.00  0.00    +0.027 A 
ATOM     22  C   UNL     1       5.734  -3.575   1.823  0.00  0.00    +0.009 A 
ATOM     23  C   UNL     1       6.116  -4.025   3.073  0.00  0.00    -0.005 A 
ATOM     24  C   UNL     1       5.360  -3.706   4.186  0.00  0.00    +0.009 A 
ATOM     25  C   UNL     1       4.224  -2.932   4.053  0.00  0.00    +0.027 A 
BRANCH  23  26
ATOM     26  C   UNL     1       7.358  -4.865   3.223  0.00  0.00    +0.206 C 
ATOM     27  N   UNL     1       7.544  -5.706   2.034  0.00  0.00    -0.360 N 
ATOM     28  C   UNL     1       7.510  -6.948   2.425  0.00  0.00    +0.060 A 
ATOM     29  C   UNL     1       7.637  -8.224   1.708  0.00  0.00    +0.027 A 
ATOM     30  C   UNL     1       7.559  -9.382   2.394  0.00  0.00    +0.002 A 
ATOM     31  C   UNL     1       7.360  -9.428   3.785  0.00  0.00    +0.002 A 
ATOM     32  C   UNL     1       7.231  -8.317   4.537  0.00  0.00    +0.027 A 
ATOM     33  C   UNL     1       7.300  -6.996   3.898  0.00  0.00    +0.060 A 
ATOM     34  N   UNL     1       7.211  -5.782   4.361  0.00  0.00    -0.360 N 
ATOM     35  H   UNL     1       7.668  -5.394   1.124  0.00  0.00    +0.162 HD
ATOM     36  H   UNL     1       7.074  -5.530   5.287  0.00  0.00    +0.162 HD
ENDBRANCH  23  26
ENDBRANCH  19  20
ENDBRANCH   1  19
TORSDOF 5
