REMARK  Name = ZINC23706135
REMARK  10 active torsions:
REMARK  status: ('A' for Active; 'I' for Inactive)
REMARK    1  A    between atoms: C_1  and  C_2
REMARK    2  A    between atoms: C_2  and  C_23
REMARK    3  A    between atoms: N_5  and  N_9
REMARK    4  A    between atoms: C_10  and  C_12
REMARK    5  A    between atoms: C_12  and  N_13
REMARK    6  A    between atoms: N_13  and  C_14
REMARK    7  A    between atoms: N_13  and  C_15
REMARK    8  A    between atoms: C_15  and  C_16
REMARK    9  A    between atoms: C_23  and  C_24
REMARK   10  A    between atoms: C_24  and  C_25
REMARK                            x       y       z     vdW  Elec       q    Type
REMARK                         _______ _______ _______ _____ _____    ______ ____
ROOT
ATOM      1  C   UNL     1       5.622  -0.869   0.261  0.00  0.00    +0.041 C 
ATOM      2  C   UNL     1       5.542   0.446  -0.517  0.00  0.00    +0.112 C 
ATOM      3  C   UNL     1       5.881   0.224  -1.977  0.00  0.00    +0.263 C 
ATOM      4  O   UNL     1       5.291  -0.483  -2.766  0.00  0.00    -0.271 OA
ATOM      5  N   UNL     1       6.974   0.976  -2.217  0.00  0.00    -0.137 N 
ATOM      6  C   UNL     1       7.369   1.635  -1.122  0.00  0.00    +0.326 C 
ATOM      7  O   UNL     1       8.331   2.376  -1.090  0.00  0.00    -0.251 OA
ATOM      8  N   UNL     1       6.581   1.384  -0.056  0.00  0.00    -0.284 N 
ATOM      9  H   UNL     1       6.587   1.728   0.989  0.00  0.00    +0.151 HD
ENDROOT
BRANCH   5  10
ATOM     10  N   UNL     1       7.617   1.056  -3.458  0.00  0.00    -0.225 N 
ATOM     11  C   UNL     1       7.469   2.155  -4.225  0.00  0.00    +0.213 C 
ATOM     12  O   UNL     1       6.778   3.074  -3.839  0.00  0.00    -0.276 OA
ATOM     13  H   UNL     1       8.243   0.222  -3.808  0.00  0.00    +0.173 HD
BRANCH  11  14
ATOM     14  C   UNL     1       8.161   2.241  -5.561  0.00  0.00    +0.020 C 
BRANCH  14  15
ATOM     15  N   UNL     1       7.843   3.527  -6.195  0.00  0.00    +0.386 N 
ATOM     16  C   UNL     1       6.416   3.607  -6.535  0.00  0.00    -0.095 C 
ATOM     17  H   UNL     1       8.063   4.325  -5.471  0.00  0.00    -0.081 HD
BRANCH  15  18
ATOM     18  C   UNL     1       8.680   3.750  -7.381  0.00  0.00    -0.042 C 
BRANCH  18  19
ATOM     19  C   UNL     1       8.617   5.204  -7.774  0.00  0.00    -0.050 A 
ATOM     20  C   UNL     1       7.879   5.591  -8.877  0.00  0.00    +0.003 A 
ATOM     21  C   UNL     1       7.821   6.924  -9.237  0.00  0.00    +0.000 A 
ATOM     22  C   UNL     1       8.500   7.871  -8.493  0.00  0.00    +0.001 A 
ATOM     23  C   UNL     1       9.238   7.486  -7.391  0.00  0.00    +0.015 A 
ATOM     24  C   UNL     1       9.293   6.152  -7.027  0.00  0.00    +0.019 A 
ATOM     25 BR   UNL     1      10.297   5.624  -5.514  0.00  0.00    -0.050 Br
ENDBRANCH  18  19
ENDBRANCH  15  18
ENDBRANCH  14  15
ENDBRANCH  11  14
ENDBRANCH   5  10
BRANCH   2  26
ATOM     26  C   UNL     1       4.153   1.071  -0.375  0.00  0.00    +0.040 C 
BRANCH  26  27
ATOM     27  C   UNL     1       3.909   1.447   1.088  0.00  0.00    +0.038 C 
BRANCH  27  28
ATOM     28  C   UNL     1       2.540   2.062   1.227  0.00  0.00    -0.047 A 
ATOM     29  C   UNL     1       1.446   1.260   1.493  0.00  0.00    +0.003 A 
ATOM     30  C   UNL     1       0.190   1.823   1.615  0.00  0.00    +0.000 A 
ATOM     31  C   UNL     1       0.029   3.190   1.483  0.00  0.00    +0.000 A 
ATOM     32  C   UNL     1       1.123   3.992   1.218  0.00  0.00    +0.000 A 
ATOM     33  C   UNL     1       2.379   3.428   1.090  0.00  0.00    +0.003 A 
ENDBRANCH  27  28
ENDBRANCH  26  27
ENDBRANCH   2  26
TORSDOF 8
