REMARK  Name = ZINC12660677
REMARK  12 active torsions:
REMARK  status: ('A' for Active; 'I' for Inactive)
REMARK    1  A    between atoms: C_1  and  C_2
REMARK    2  A    between atoms: C_2  and  C_3
REMARK    3  A    between atoms: C_3  and  C_27
REMARK    4  A    between atoms: N_4  and  N_5
REMARK    5  A    between atoms: N_5  and  C_6
REMARK    6  A    between atoms: C_9  and  S_15
REMARK    7  A    between atoms: C_11  and  N_12
REMARK    8  A    between atoms: S_15  and  N_18
REMARK    9  A    between atoms: N_18  and  C_19
REMARK   10  A    between atoms: C_22  and  O_25
REMARK   11  A    between atoms: O_25  and  C_26
REMARK   12  A    between atoms: C_27  and  C_28
REMARK                            x       y       z     vdW  Elec       q    Type
REMARK                         _______ _______ _______ _____ _____    ______ ____
ROOT
ATOM      1  C   UNL     1       6.847  -0.497  -3.663  0.00  0.00    +0.079 A 
ATOM      2  C   UNL     1       7.516   0.376  -2.812  0.00  0.00    +0.029 A 
ATOM      3  C   UNL     1       8.571   1.128  -3.288  0.00  0.00    +0.031 A 
ATOM      4  C   UNL     1       8.963   1.014  -4.610  0.00  0.00    +0.111 A 
ATOM      5  C   UNL     1       8.300   0.147  -5.459  0.00  0.00    +0.063 A 
ATOM      6  C   UNL     1       7.247  -0.613  -4.988  0.00  0.00    +0.150 A 
ENDROOT
BRANCH   6   7
ATOM      7  N   UNL     1       6.542  -1.545  -5.896  0.00  0.00    +0.058 N 
ATOM      8  O   UNL     1       6.964  -1.733  -7.023  0.00  0.00    -0.126 OA
ATOM      9  O   UNL     1       5.540  -2.124  -5.516  0.00  0.00    -0.126 OA
ENDBRANCH   6   7
BRANCH   4  10
ATOM     10  S   UNL     1      10.310   1.976  -5.213  0.00  0.00    +0.072 S 
ATOM     11  O   UNL     1      10.092   2.153  -6.605  0.00  0.00    -0.150 OA
ATOM     12  O   UNL     1      10.459   3.072  -4.319  0.00  0.00    -0.150 OA
BRANCH  10  13
ATOM     13  N   UNL     1      11.677   1.054  -5.061  0.00  0.00    -0.216 N 
ATOM     14  H   UNL     1      12.394   1.341  -4.475  0.00  0.00    +0.174 HD
BRANCH  13  15
ATOM     15  C   UNL     1      11.797  -0.141  -5.780  0.00  0.00    +0.048 A 
ATOM     16  C   UNL     1      11.627  -1.360  -5.135  0.00  0.00    +0.028 A 
ATOM     17  C   UNL     1      11.741  -2.538  -5.846  0.00  0.00    +0.047 A 
ATOM     18  C   UNL     1      12.036  -2.506  -7.201  0.00  0.00    +0.120 A 
ATOM     19  C   UNL     1      12.211  -1.290  -7.845  0.00  0.00    +0.047 A 
ATOM     20  C   UNL     1      12.092  -0.110  -7.136  0.00  0.00    +0.028 A 
BRANCH  18  21
ATOM     21  O   UNL     1      12.153  -3.667  -7.899  0.00  0.00    -0.495 OA
ATOM     22  C   UNL     1      11.960  -4.883  -7.173  0.00  0.00    +0.277 C 
ENDBRANCH  18  21
ENDBRANCH  13  15
ENDBRANCH  10  13
ENDBRANCH   4  10
BRANCH   1  23
ATOM     23  N   UNL     1       5.780  -1.260  -3.184  0.00  0.00    -0.236 N 
ATOM     24  H   UNL     1       5.367  -1.927  -3.755  0.00  0.00    +0.174 HD
BRANCH  23  26
ATOM     25  C   UNL     1       4.328  -1.762  -1.443  0.00  0.00    +0.041 C 
ATOM     26  N   UNL     1       5.306  -1.062  -1.881  0.00  0.00    -0.191 NA
BRANCH  25  28
ATOM     27  C   UNL     1       2.624  -2.131  -3.207  0.00  0.00    +0.010 C 
ATOM     28  C   UNL     1       3.686  -2.798  -2.329  0.00  0.00    +0.049 C 
ENDBRANCH  25  28
BRANCH  25  29
ATOM     29  C   UNL     1       3.818  -1.550  -0.040  0.00  0.00    +0.087 C 
BRANCH  29  30
ATOM     30  C   UNL     1       2.408  -1.021  -0.093  0.00  0.00    -0.042 A 
ATOM     31  C   UNL     1       1.340  -1.900  -0.100  0.00  0.00    +0.004 A 
ATOM     32  C   UNL     1       0.047  -1.415  -0.149  0.00  0.00    +0.000 A 
ATOM     33  C   UNL     1      -0.180  -0.052  -0.190  0.00  0.00    +0.000 A 
ATOM     34  C   UNL     1       0.888   0.827  -0.182  0.00  0.00    +0.000 A 
ATOM     35  C   UNL     1       2.181   0.342  -0.134  0.00  0.00    +0.004 A 
ENDBRANCH  29  30
ENDBRANCH  25  29
ENDBRANCH  23  26
ENDBRANCH   1  23
TORSDOF 10
