REMARK  Name = ZINC07749588
REMARK  7 active torsions:
REMARK  status: ('A' for Active; 'I' for Inactive)
REMARK    1  A    between atoms: C_1  and  C_2
REMARK    2  A    between atoms: C_7  and  N_8
REMARK    3  A    between atoms: C_9  and  C_11
REMARK    4  A    between atoms: C_11  and  N_12
REMARK    5  A    between atoms: C_17  and  C_24
REMARK    6  A    between atoms: C_20  and  C_22
REMARK    7  A    between atoms: C_20  and  C_23
REMARK                            x       y       z     vdW  Elec       q    Type
REMARK                         _______ _______ _______ _____ _____    ______ ____
ROOT
ATOM      1  N   UNL     1      -0.012  -0.004  -0.007  0.00  0.00    -0.215 N 
ATOM      2  C   UNL     1      -0.980  -0.771  -0.553  0.00  0.00    +0.247 C 
ATOM      3  O   UNL     1      -2.012  -0.368  -1.047  0.00  0.00    -0.273 OA
ATOM      4  C   UNL     1      -0.518  -2.199  -0.392  0.00  0.00    +0.113 C 
ATOM      5  C   UNL     1      -1.519  -2.998   0.431  0.00  0.00    +0.038 C 
ATOM      6  C   UNL     1      -2.766  -3.285  -0.406  0.00  0.00    -0.011 C 
ATOM      7  C   UNL     1      -2.361  -4.145  -1.601  0.00  0.00    +0.009 C 
ATOM      8  C   UNL     1      -1.369  -3.409  -2.493  0.00  0.00    -0.032 C 
ATOM      9  C   UNL     1      -0.189  -2.844  -1.722  0.00  0.00    +0.041 C 
ATOM     10  C   UNL     1      -0.824  -4.422  -3.524  0.00  0.00    +0.011 C 
ATOM     11  C   UNL     1      -2.086  -2.304  -3.275  0.00  0.00    +0.011 C 
ATOM     12  C   UNL     1      -3.785  -4.047   0.447  0.00  0.00    +0.007 C 
ATOM     13  N   UNL     1       0.734  -2.065   0.387  0.00  0.00    -0.285 N 
ATOM     14  C   UNL     1       0.959  -0.749   0.533  0.00  0.00    +0.310 C 
ATOM     15  O   UNL     1       1.934  -0.285   1.093  0.00  0.00    -0.252 OA
ATOM     16  H   UNL     1       1.276  -2.796   0.720  0.00  0.00    +0.151 HD
ENDROOT
BRANCH   1  17
ATOM     17  C   UNL     1      -0.031   1.461   0.002  0.00  0.00    +0.214 C 
BRANCH  17  19
ATOM     18  N   UNL     1      -0.862   3.269   1.472  0.00  0.00    -0.284 N 
ATOM     19  C   UNL     1      -0.726   1.947   1.248  0.00  0.00    +0.235 C 
ATOM     20  O   UNL     1      -1.163   1.148   2.050  0.00  0.00    -0.274 OA
ATOM     21  H   UNL     1      -0.444   3.908   0.873  0.00  0.00    +0.155 HD
BRANCH  18  28
ATOM     22  C   UNL     1      -0.267   5.840   2.534  0.00  0.00    +0.046 C 
ATOM     23  C   UNL     1      -1.349   4.969   3.117  0.00  0.00    -0.027 A 
ATOM     24  C   UNL     1      -2.089   5.415   4.195  0.00  0.00    +0.043 A 
ATOM     25  C   UNL     1      -3.080   4.613   4.735  0.00  0.00    +0.124 A 
ATOM     26  C   UNL     1      -3.336   3.364   4.192  0.00  0.00    +0.040 A 
ATOM     27  C   UNL     1      -2.602   2.917   3.111  0.00  0.00    +0.026 A 
ATOM     28  C   UNL     1      -1.607   3.720   2.568  0.00  0.00    +0.037 A 
ATOM     29  F   UNL     1      -3.799   5.048   5.792  0.00  0.00    -0.205 F 
ENDBRANCH  18  28
ENDBRANCH  17  19
ENDBRANCH   1  17
TORSDOF 3
