REMARK  Name = ZINC65259992
REMARK  2 active torsions:
REMARK  status: ('A' for Active; 'I' for Inactive)
REMARK    1  A    between atoms: C_14  and  C_16
REMARK    2  A    between atoms: N_27  and  C_28
REMARK                            x       y       z     vdW  Elec       q    Type
REMARK                         _______ _______ _______ _____ _____    ______ ____
ROOT
ATOM      1  C   UNL     1       1.842   1.256  -0.162  0.00  0.00    +0.002 A 
ATOM      2  C   UNL     1       3.173   1.631  -0.190  0.00  0.00    +0.002 A 
ATOM      3  C   UNL     1       4.167   0.669  -0.194  0.00  0.00    +0.025 A 
ATOM      4  C   UNL     1       3.829  -0.675  -0.169  0.00  0.00    +0.053 A 
ATOM      5  C   UNL     1       2.488  -1.053  -0.136  0.00  0.00    +0.049 A 
ATOM      6  C   UNL     1       1.497  -0.083  -0.136  0.00  0.00    +0.025 A 
ATOM      7  N   UNL     1       2.134  -2.410  -0.096  0.00  0.00    -0.329 N 
ATOM      8  C   UNL     1       3.141  -3.412  -0.472  0.00  0.00    +0.102 C 
ATOM      9  C   UNL     1       3.230  -3.512  -1.993  0.00  0.00    +0.036 C 
ATOM     10  C   UNL     1       1.874  -3.941  -2.560  0.00  0.00    +0.021 C 
ATOM     11  C   UNL     1       1.502  -5.316  -1.997  0.00  0.00    +0.108 C 
ATOM     12  N   UNL     1       1.545  -5.254  -0.529  0.00  0.00    -0.295 N 
ATOM     13  C   UNL     1       2.771  -4.770   0.121  0.00  0.00    +0.141 C 
ATOM     14  C   UNL     1       0.481  -5.634   0.205  0.00  0.00    +0.252 C 
ATOM     15  O   UNL     1      -0.561  -5.938  -0.344  0.00  0.00    -0.270 OA
ATOM     16  C   UNL     1       4.473  -2.958   0.086  0.00  0.00    +0.098 C 
ATOM     17  N   UNL     1       4.840  -1.651  -0.182  0.00  0.00    -0.301 N 
ATOM     18  N   UNL     1       5.229  -3.749   0.777  0.00  0.00    -0.372 N 
ATOM     19  H   UNL     1       1.244  -2.682   0.175  0.00  0.00    +0.147 HD
ATOM     20  H   UNL     1       4.946  -4.661   0.949  0.00  0.00    +0.161 HD
ATOM     21  H   UNL     1       5.761  -1.417  -0.373  0.00  0.00    +0.153 HD
ENDROOT
BRANCH  14  22
ATOM     22  C   UNL     1       0.579  -5.681   1.667  0.00  0.00    +0.101 A 
ATOM     23  C   UNL     1       1.682  -6.123   2.419  0.00  0.00    +0.150 A 
ATOM     24  N   UNL     1       1.395  -6.016   3.689  0.00  0.00    -0.173 NA
ATOM     25  N   UNL     1       0.102  -5.503   3.834  0.00  0.00    -0.221 N 
ATOM     26  C   UNL     1      -0.411  -5.286   2.587  0.00  0.00    +0.168 A 
ATOM     27  N   UNL     1      -1.640  -4.790   2.430  0.00  0.00    -0.235 NA
ATOM     28  C   UNL     1      -2.386  -4.495   3.472  0.00  0.00    +0.114 A 
ATOM     29  C   UNL     1      -1.896  -4.699   4.767  0.00  0.00    +0.039 A 
ATOM     30  C   UNL     1      -0.649  -5.210   4.934  0.00  0.00    +0.116 A 
ENDBRANCH  14  22
BRANCH  18  31
ATOM     31  C   UNL     1       6.510  -3.268   1.298  0.00  0.00    +0.080 C 
ATOM     32  C   UNL     1       7.621  -3.479   0.249  0.00  0.00    +0.024 C 
ATOM     33  C   UNL     1       8.864  -3.875   1.084  0.00  0.00    +0.002 C 
ATOM     34  C   UNL     1       8.258  -4.766   2.197  0.00  0.00    +0.002 C 
ATOM     35  C   UNL     1       6.915  -4.086   2.537  0.00  0.00    +0.024 C 
ENDBRANCH  18  31
TORSDOF 2
