REMARK  Name = ZINC02268321
REMARK  8 active torsions:
REMARK  status: ('A' for Active; 'I' for Inactive)
REMARK    1  A    between atoms: C_13  and  C_26
REMARK    2  A    between atoms: C_14  and  C_17
REMARK    3  A    between atoms: C_17  and  S_18
REMARK    4  A    between atoms: S_18  and  C_19
REMARK    5  A    between atoms: N_27  and  C_28
REMARK    6  A    between atoms: C_28  and  C_29
REMARK    7  A    between atoms: C_29  and  C_30
REMARK    8  A    between atoms: C_30  and  O_31
REMARK                            x       y       z     vdW  Elec       q    Type
REMARK                         _______ _______ _______ _____ _____    ______ ____
ROOT
ATOM      1  C   UNL     1      -0.017   1.366   0.010  0.00  0.00    +0.002 A 
ATOM      2  C   UNL     1       1.156   2.107   0.002  0.00  0.00    +0.001 A 
ATOM      3  C   UNL     1       2.373   1.450  -0.013  0.00  0.00    +0.017 A 
ATOM      4  C   UNL     1       2.401   0.077  -0.021  0.00  0.00    +0.041 A 
ATOM      5  C   UNL     1       1.227  -0.710  -0.013  0.00  0.00    +0.081 A 
ATOM      6  C   UNL     1       0.002  -0.004   0.002  0.00  0.00    +0.029 A 
ATOM      7  N   UNL     1       1.420  -2.047  -0.023  0.00  0.00    -0.221 NA
ATOM      8  C   UNL     1       2.616  -2.588  -0.037  0.00  0.00    +0.196 A 
ATOM      9  S   UNL     1       3.682  -1.153  -0.039  0.00  0.00    -0.048 S 
ATOM     10  N   UNL     1       2.963  -3.928  -0.047  0.00  0.00    -0.194 N 
ATOM     11  C   UNL     1       2.100  -4.965  -0.050  0.00  0.00    +0.282 A 
ATOM     12  O   UNL     1       0.885  -4.900  -0.044  0.00  0.00    -0.265 OA
ATOM     13  C   UNL     1       2.916  -6.189  -0.061  0.00  0.00    +0.078 A 
ATOM     14  C   UNL     1       4.235  -5.782  -0.065  0.00  0.00    +0.057 A 
ATOM     15  N   UNL     1       4.266  -4.433  -0.062  0.00  0.00    -0.291 N 
ATOM     16  H   UNL     1       5.073  -3.894  -0.067  0.00  0.00    +0.187 HD
ENDROOT
BRANCH  13  17
ATOM     17  C   UNL     1       2.424  -7.572  -0.068  0.00  0.00    +0.093 C 
ATOM     18  N   UNL     1       1.148  -7.807  -0.063  0.00  0.00    -0.389 N 
ATOM     19  H   UNL     1       0.519  -7.068  -0.056  0.00  0.00    +0.159 HD
BRANCH  18  20
ATOM     20  C   UNL     1       0.657  -9.187  -0.069  0.00  0.00    +0.114 C 
BRANCH  20  21
ATOM     21  C   UNL     1      -0.082  -9.471   1.240  0.00  0.00    +0.049 C 
BRANCH  21  22
ATOM     22  C   UNL     1      -0.595 -10.913   1.233  0.00  0.00    +0.157 C 
BRANCH  22  23
ATOM     23  O   UNL     1      -1.285 -11.178   2.456  0.00  0.00    -0.395 OA
ATOM     24  H   UNL     1      -1.639 -12.076   2.521  0.00  0.00    +0.209 HD
ENDBRANCH  22  23
ENDBRANCH  21  22
ENDBRANCH  20  21
ENDBRANCH  18  20
ENDBRANCH  13  17
BRANCH  14  25
ATOM     25  C   UNL     1       5.437  -6.690  -0.076  0.00  0.00    +0.129 C 
BRANCH  25  26
ATOM     26  S   UNL     1       6.179  -6.691  -1.731  0.00  0.00    -0.119 S 
BRANCH  26  27
ATOM     27  C   UNL     1       7.552  -7.785  -1.582  0.00  0.00    +0.008 A 
ATOM     28  C   UNL     1       7.818  -8.407  -0.368  0.00  0.00    +0.016 A 
ATOM     29  C   UNL     1       8.896  -9.263  -0.255  0.00  0.00    +0.021 A 
ATOM     30  C   UNL     1       9.710  -9.503  -1.348  0.00  0.00    +0.041 A 
ATOM     31  C   UNL     1       9.447  -8.885  -2.558  0.00  0.00    +0.021 A 
ATOM     32  C   UNL     1       8.368  -8.032  -2.680  0.00  0.00    +0.016 A 
ATOM     33 CL   UNL     1      11.063 -10.579  -1.201  0.00  0.00    -0.084 Cl
ENDBRANCH  26  27
ENDBRANCH  25  26
ENDBRANCH  14  25
TORSDOF 8
