REMARK  Name = ZINC63209471
REMARK  5 active torsions:
REMARK  status: ('A' for Active; 'I' for Inactive)
REMARK    1  A    between atoms: C_1  and  C_2
REMARK    2  A    between atoms: C_15  and  C_17
REMARK    3  A    between atoms: C_17  and  N_18
REMARK    4  A    between atoms: C_21  and  C_26
REMARK    5  A    between atoms: C_26  and  C_27
REMARK                            x       y       z     vdW  Elec       q    Type
REMARK                         _______ _______ _______ _____ _____    ______ ____
ROOT
ATOM      1  N   UNL     1       4.056  -1.852   1.955  0.00  0.00    -0.216 N 
ATOM      2  C   UNL     1       4.378  -3.101   1.566  0.00  0.00    +0.244 C 
ATOM      3  O   UNL     1       3.631  -4.050   1.457  0.00  0.00    -0.273 OA
ATOM      4  C   UNL     1       5.869  -3.074   1.294  0.00  0.00    +0.165 C 
ATOM      5  N   UNL     1       6.249  -1.681   1.588  0.00  0.00    -0.287 N 
ATOM      6  C   UNL     1       5.123  -1.046   1.961  0.00  0.00    +0.310 C 
ATOM      7  O   UNL     1       5.082   0.129   2.272  0.00  0.00    -0.252 OA
ATOM      8  H   UNL     1       7.137  -1.297   1.523  0.00  0.00    +0.151 HD
ENDROOT
BRANCH   1   9
ATOM      9  C   UNL     1       2.702  -1.427   2.320  0.00  0.00    +0.214 C 
BRANCH   9  23
ATOM     10  C   UNL     1      -0.019   1.526   0.010  0.00  0.00    +0.029 C 
ATOM     11  C   UNL     1       0.002  -0.004   0.002  0.00  0.00    +0.087 C 
ATOM     12  C   UNL     1      -1.433  -0.532   0.009  0.00  0.00    +0.118 C 
ATOM     13  C   UNL     1      -1.448  -1.987   0.396  0.00  0.00    +0.219 C 
ATOM     14  O   UNL     1      -1.623  -2.835  -0.454  0.00  0.00    -0.275 OA
ATOM     15  N   UNL     1      -1.268  -2.354   1.683  0.00  0.00    -0.284 N 
ATOM     16  C   UNL     1      -0.970  -1.397   2.659  0.00  0.00    +0.055 A 
ATOM     17  C   UNL     1      -1.673  -1.354   3.851  0.00  0.00    +0.025 A 
ATOM     18  C   UNL     1      -1.345  -0.414   4.811  0.00  0.00    +0.002 A 
ATOM     19  C   UNL     1      -0.316   0.482   4.584  0.00  0.00    +0.002 A 
ATOM     20  C   UNL     1       0.385   0.452   3.393  0.00  0.00    +0.025 A 
ATOM     21  C   UNL     1       0.054  -0.479   2.422  0.00  0.00    +0.058 A 
ATOM     22  N   UNL     1       0.714  -0.487   1.187  0.00  0.00    -0.265 N 
ATOM     23  C   UNL     1       1.982  -0.932   1.091  0.00  0.00    +0.238 C 
ATOM     24  O   UNL     1       2.545  -0.934   0.017  0.00  0.00    -0.273 OA
ATOM     25  H   UNL     1      -1.347  -3.288   1.933  0.00  0.00    +0.155 HD
ENDBRANCH   9  23
ENDBRANCH   1   9
BRANCH   4  26
ATOM     26  C   UNL     1       6.155  -3.416  -0.170  0.00  0.00    +0.065 C 
BRANCH  26  27
ATOM     27  C   UNL     1       7.644  -3.502  -0.384  0.00  0.00    -0.039 C 
ATOM     28  C   UNL     1       8.406  -4.618  -0.356  0.00  0.00    -0.001 A 
ATOM     29  C   UNL     1       8.090  -6.033  -0.125  0.00  0.00    +0.010 A 
ATOM     30  C   UNL     1       9.090  -6.943  -0.159  0.00  0.00    +0.001 A 
ATOM     31  C   UNL     1      10.418  -6.570  -0.407  0.00  0.00    +0.002 A 
ATOM     32  C   UNL     1      10.787  -5.290  -0.629  0.00  0.00    +0.026 A 
ATOM     33  C   UNL     1       9.816  -4.250  -0.617  0.00  0.00    +0.043 A 
ATOM     34  N   UNL     1       9.922  -2.956  -0.799  0.00  0.00    -0.380 N 
ATOM     35  C   UNL     1       8.588  -2.357  -0.680  0.00  0.00    +0.144 C 
ATOM     36  H   UNL     1      10.743  -2.476  -0.986  0.00  0.00    +0.160 HD
ENDBRANCH  26  27
ENDBRANCH   4  26
TORSDOF 4
