REMARK  Name = ZINC46140964
REMARK  9 active torsions:
REMARK  status: ('A' for Active; 'I' for Inactive)
REMARK    1  A    between atoms: C_1  and  C_2
REMARK    2  A    between atoms: C_2  and  N_3
REMARK    3  A    between atoms: C_7  and  C_9
REMARK    4  A    between atoms: C_9  and  N_10
REMARK    5  A    between atoms: N_10  and  C_11
REMARK    6  A    between atoms: C_11  and  C_12
REMARK    7  A    between atoms: C_12  and  S_13
REMARK    8  A    between atoms: S_13  and  N_16
REMARK    9  A    between atoms: C_22  and  C_24
REMARK                            x       y       z     vdW  Elec       q    Type
REMARK                         _______ _______ _______ _____ _____    ______ ____
ROOT
ATOM      1  N   UNL     1      -1.154  -1.613   2.367  0.00  0.00    -0.297 N 
ATOM      2  C   UNL     1      -0.542  -2.469   3.210  0.00  0.00    +0.247 C 
ATOM      3  O   UNL     1      -0.381  -2.164   4.375  0.00  0.00    -0.270 OA
ENDROOT
BRANCH   2   4
ATOM      4  C   UNL     1      -0.068  -3.779   2.717  0.00  0.00    +0.037 A 
ATOM      5  C   UNL     1       1.244  -4.188   2.965  0.00  0.00    +0.014 A 
ATOM      6  C   UNL     1       1.681  -5.411   2.503  0.00  0.00    +0.021 A 
ATOM      7  C   UNL     1       0.822  -6.234   1.793  0.00  0.00    +0.041 A 
ATOM      8  C   UNL     1      -0.480  -5.833   1.543  0.00  0.00    +0.021 A 
ATOM      9  C   UNL     1      -0.931  -4.615   2.006  0.00  0.00    +0.014 A 
ATOM     10 CL   UNL     1       1.380  -7.772   1.213  0.00  0.00    -0.084 Cl
ENDBRANCH   2   4
BRANCH   1  11
ATOM     11  C   UNL     1      -1.333  -1.974   0.959  0.00  0.00    +0.093 C 
BRANCH  11  16
ATOM     12  N   UNL     1       0.860  -0.963   0.492  0.00  0.00    +0.382 N 
ATOM     13  C   UNL     1       1.186  -0.405  -0.838  0.00  0.00    -0.078 C 
ATOM     14  C   UNL     1       1.075  -1.607  -1.809  0.00  0.00    -0.020 C 
ATOM     15  C   UNL     1      -0.132  -2.380  -1.214  0.00  0.00    -0.016 C 
ATOM     16  C   UNL     1       0.036  -2.171   0.305  0.00  0.00    -0.051 C 
ATOM     17  H   UNL     1       0.345  -0.280   1.027  0.00  0.00    -0.081 HD
BRANCH  12  19
ATOM     18  C   UNL     1       2.893  -0.040   1.499  0.00  0.00    -0.017 C 
ATOM     19  C   UNL     1       2.100  -1.313   1.198  0.00  0.00    -0.082 C 
ENDBRANCH  12  19
ENDBRANCH  11  16
ENDBRANCH   1  11
BRANCH   1  20
ATOM     20  C   UNL     1      -1.641  -0.322   2.860  0.00  0.00    +0.132 C 
BRANCH  20  21
ATOM     21  C   UNL     1      -3.039  -0.498   3.456  0.00  0.00    +0.204 C 
BRANCH  21  22
ATOM     22  S   UNL     1      -3.641   1.100   4.067  0.00  0.00    +0.033 S 
ATOM     23  O   UNL     1      -2.873   1.517   5.187  0.00  0.00    -0.158 OA
ATOM     24  O   UNL     1      -3.873   1.984   2.978  0.00  0.00    -0.158 OA
BRANCH  22  25
ATOM     25  N   UNL     1      -5.146   0.782   4.681  0.00  0.00    -0.185 NA
ATOM     26  C   UNL     1      -6.344   0.869   3.831  0.00  0.00    +0.090 C 
ATOM     27  C   UNL     1      -7.151  -0.423   3.997  0.00  0.00    -0.065 C 
ATOM     28  N   UNL     1      -7.433  -0.644   5.420  0.00  0.00    +0.381 N 
ATOM     29  C   UNL     1      -6.178  -0.866   6.150  0.00  0.00    -0.065 C 
ATOM     30  C   UNL     1      -5.322   0.398   6.090  0.00  0.00    +0.090 C 
ATOM     31  H   UNL     1      -7.902   0.166   5.799  0.00  0.00    -0.086 HD
ATOM     32  H   UNL     1      -8.028  -1.452   5.523  0.00  0.00    -0.086 HD
ENDBRANCH  22  25
ENDBRANCH  21  22
ENDBRANCH  20  21
ENDBRANCH   1  20
TORSDOF 8
