REMARK  Name = ZINC10395968
REMARK  12 active torsions:
REMARK  status: ('A' for Active; 'I' for Inactive)
REMARK    1  A    between atoms: C_1  and  C_2
REMARK    2  A    between atoms: C_2  and  O_3
REMARK    3  A    between atoms: O_3  and  C_4
REMARK    4  A    between atoms: C_7  and  C_13
REMARK    5  A    between atoms: C_9  and  O_10
REMARK    6  A    between atoms: O_10  and  C_11
REMARK    7  A    between atoms: C_11  and  C_12
REMARK    8  A    between atoms: N_15  and  C_16
REMARK    9  A    between atoms: C_16  and  C_17
REMARK   10  A    between atoms: C_17  and  O_19
REMARK   11  A    between atoms: O_19  and  C_20
REMARK   12  A    between atoms: C_20  and  C_21
REMARK                            x       y       z     vdW  Elec       q    Type
REMARK                         _______ _______ _______ _____ _____    ______ ____
ROOT
ATOM      1  C   UNL     1       4.639  -2.199   6.971  0.00  0.00    +0.325 C 
ATOM      2  O   UNL     1       4.107  -1.751   7.958  0.00  0.00    -0.249 OA
ENDROOT
BRANCH   1   3
ATOM      3  C   UNL     1       4.062  -1.915   5.608  0.00  0.00    +0.225 C 
BRANCH   3   6
ATOM      4  C   UNL     1       2.179  -0.698   4.655  0.00  0.00    +0.245 C 
ATOM      5  O   UNL     1       2.550  -1.046   3.551  0.00  0.00    -0.270 OA
ATOM      6  N   UNL     1       2.866  -1.080   5.749  0.00  0.00    -0.301 N 
ATOM      7  H   UNL     1       2.570  -0.803   6.630  0.00  0.00    +0.150 HD
BRANCH   4  11
ATOM      8  C   UNL     1      -1.285   1.729   5.069  0.00  0.00    +0.162 A 
ATOM      9  C   UNL     1      -0.579   1.330   6.195  0.00  0.00    +0.050 A 
ATOM     10  C   UNL     1       0.546   0.544   6.064  0.00  0.00    +0.017 A 
ATOM     11  C   UNL     1       0.974   0.143   4.797  0.00  0.00    +0.040 A 
ATOM     12  C   UNL     1       0.260   0.541   3.663  0.00  0.00    +0.062 A 
ATOM     13  C   UNL     1      -0.867   1.328   3.801  0.00  0.00    +0.163 A 
BRANCH   8  14
ATOM     14  O   UNL     1      -2.390   2.508   5.203  0.00  0.00    -0.489 OA
BRANCH  14  16
ATOM     15  C   UNL     1      -4.021   3.751   6.481  0.00  0.00    +0.048 C 
ATOM     16  C   UNL     1      -2.763   2.882   6.530  0.00  0.00    +0.226 C 
ENDBRANCH  14  16
ENDBRANCH   8  14
BRANCH  13  17
ATOM     17  O   UNL     1      -1.564   1.717   2.700  0.00  0.00    -0.489 OA
BRANCH  17  18
ATOM     18  C   UNL     1      -1.074   1.274   1.433  0.00  0.00    +0.226 C 
ATOM     19  C   UNL     1      -1.981   1.807   0.321  0.00  0.00    +0.048 C 
ENDBRANCH  17  18
ENDBRANCH  13  17
ENDBRANCH   4  11
ENDBRANCH   3   6
ENDBRANCH   1   3
BRANCH   1  20
ATOM     20  O   UNL     1       5.745  -2.951   7.087  0.00  0.00    -0.456 OA
BRANCH  20  21
ATOM     21  C   UNL     1       6.246  -3.184   8.430  0.00  0.00    +0.308 C 
BRANCH  21  22
ATOM     22  C   UNL     1       7.483  -4.041   8.364  0.00  0.00    +0.170 A 
ATOM     23  N   UNL     1       7.362  -5.356   8.420  0.00  0.00    -0.214 NA
ATOM     24  C   UNL     1       8.408  -6.163   8.362  0.00  0.00    +0.128 A 
ATOM     25  C   UNL     1       9.710  -5.600   8.245  0.00  0.00    +0.051 A 
ATOM     26  C   UNL     1      11.001  -6.293   8.166  0.00  0.00    -0.025 A 
ATOM     27  C   UNL     1      12.099  -5.518   8.064  0.00  0.00    -0.004 A 
ATOM     28  S   UNL     1      11.493  -3.850   8.059  0.00  0.00    -0.073 S 
ATOM     29  C   UNL     1       9.760  -4.194   8.197  0.00  0.00    +0.114 A 
ATOM     30  N   UNL     1       8.663  -3.463   8.257  0.00  0.00    -0.221 NA
ATOM     31  C   UNL     1      13.528  -5.958   7.987  0.00  0.00    +0.043 C 
ATOM     32  C   UNL     1      13.665  -7.058   6.926  0.00  0.00    +0.005 C 
ATOM     33  C   UNL     1      13.443  -8.407   7.603  0.00  0.00    +0.001 C 
ATOM     34  C   UNL     1      12.431  -8.262   8.737  0.00  0.00    +0.005 C 
ATOM     35  C   UNL     1      11.080  -7.817   8.192  0.00  0.00    +0.037 C 
ATOM     36  N   UNL     1       8.240  -7.535   8.418  0.00  0.00    -0.343 N 
ATOM     37  H   UNL     1       7.466  -7.911   8.867  0.00  0.00    +0.144 HD
ATOM     38  H   UNL     1       8.895  -8.121   8.008  0.00  0.00    +0.144 HD
ENDBRANCH  21  22
ENDBRANCH  20  21
ENDBRANCH   1  20
TORSDOF 10
