REMARK  Name = ZINC13033897
REMARK  8 active torsions:
REMARK  status: ('A' for Active; 'I' for Inactive)
REMARK    1  A    between atoms: C_6  and  C_7
REMARK    2  A    between atoms: C_7  and  N_8
REMARK    3  A    between atoms: C_9  and  C_13
REMARK    4  A    between atoms: C_13  and  N_64
REMARK    5  A    between atoms: C_14  and  C_15
REMARK    6  A    between atoms: C_14  and  N_64
REMARK    7  A    between atoms: C_31  and  C_32
REMARK    8  A    between atoms: C_31  and  N_64
REMARK                            x       y       z     vdW  Elec       q    Type
REMARK                         _______ _______ _______ _____ _____    ______ ____
ROOT
ATOM      1  N   UNL     1      -1.907   2.138  -1.357  0.00  0.00    +0.389 N 
ATOM      2  H   UNL     1      -2.035   1.206  -1.768  0.00  0.00    -0.081 HD
ENDROOT
BRANCH   1   3
ATOM      3  C   UNL     1      -3.227   2.788  -1.217  0.00  0.00    +0.001 C 
BRANCH   3   5
ATOM      4  N   UNL     1      -4.686   1.913  -3.117  0.00  0.00    -0.227 N 
ATOM      5  C   UNL     1      -3.888   2.848  -2.570  0.00  0.00    +0.135 A 
ATOM      6  N   UNL     1      -3.800   3.825  -3.440  0.00  0.00    -0.115 NA
ATOM      7  N   UNL     1      -4.502   3.502  -4.471  0.00  0.00    -0.023 NA
ATOM      8  N   UNL     1      -5.041   2.349  -4.278  0.00  0.00    -0.044 NA
BRANCH   4   9
ATOM      9  C   UNL     1      -5.079   0.640  -2.508  0.00  0.00    +0.182 C 
BRANCH   9  15
ATOM     10  C   UNL     1      -6.283   1.179  -0.381  0.00  0.00    +0.008 A 
ATOM     11  C   UNL     1      -7.446   1.360   0.343  0.00  0.00    +0.038 A 
ATOM     12  C   UNL     1      -8.676   1.182  -0.267  0.00  0.00    +0.123 A 
ATOM     13  C   UNL     1      -8.740   0.829  -1.604  0.00  0.00    +0.038 A 
ATOM     14  C   UNL     1      -7.576   0.654  -2.328  0.00  0.00    +0.008 A 
ATOM     15  C   UNL     1      -6.348   0.832  -1.718  0.00  0.00    -0.026 A 
ATOM     16  F   UNL     1      -9.813   1.354   0.442  0.00  0.00    -0.205 F 
ENDBRANCH   9  15
ENDBRANCH   4   9
ENDBRANCH   3   5
ENDBRANCH   1   3
BRANCH   1  17
ATOM     17  C   UNL     1      -1.271   1.994  -0.030  0.00  0.00    -0.037 C 
BRANCH  17  18
ATOM     18  C   UNL     1      -0.038   1.139  -0.172  0.00  0.00    +0.001 A 
ATOM     19  C   UNL     1       1.176   1.725  -0.326  0.00  0.00    +0.017 A 
ATOM     20  C   UNL     1       2.353   0.868  -0.468  0.00  0.00    +0.002 A 
ATOM     21  C   UNL     1       3.631   1.417  -0.631  0.00  0.00    +0.059 A 
ATOM     22  C   UNL     1       4.722   0.584  -0.761  0.00  0.00    +0.163 A 
ATOM     23  C   UNL     1       4.556  -0.804  -0.731  0.00  0.00    +0.164 A 
ATOM     24  C   UNL     1       3.296  -1.355  -0.570  0.00  0.00    +0.075 A 
ATOM     25  C   UNL     1       2.187  -0.530  -0.439  0.00  0.00    +0.053 A 
ATOM     26  N   UNL     1       0.923  -1.062  -0.279  0.00  0.00    -0.322 N 
ATOM     27  H   UNL     1       0.809  -2.025  -0.260  0.00  0.00    +0.169 HD
ATOM     28  C   UNL     1      -0.152  -0.265  -0.150  0.00  0.00    +0.251 A 
ATOM     29  O   UNL     1      -1.253  -0.770  -0.011  0.00  0.00    -0.268 OA
ATOM     30  O   UNL     1       5.628  -1.633  -0.854  0.00  0.00    -0.485 OA
ATOM     31  C   UNL     1       6.827  -1.060  -1.387  0.00  0.00    +0.270 C 
ATOM     32  C   UNL     1       7.079   0.276  -0.677  0.00  0.00    +0.270 C 
ATOM     33  O   UNL     1       5.958   1.133  -0.922  0.00  0.00    -0.485 OA
ENDBRANCH  17  18
ENDBRANCH   1  17
BRANCH   1  34
ATOM     34  C   UNL     1      -1.042   2.941  -2.247  0.00  0.00    -0.046 C 
BRANCH  34  35
ATOM     35  C   UNL     1      -0.705   4.285  -1.599  0.00  0.00    +0.102 C 
ATOM     36  C   UNL     1       0.338   5.032  -2.453  0.00  0.00    +0.032 C 
ATOM     37  C   UNL     1      -0.356   6.367  -2.817  0.00  0.00    +0.030 C 
ATOM     38  C   UNL     1      -1.448   6.475  -1.722  0.00  0.00    +0.160 C 
ATOM     39  O   UNL     1      -1.881   5.109  -1.543  0.00  0.00    -0.378 OA
ENDBRANCH  34  35
ENDBRANCH   1  34
TORSDOF 8
