REMARK  Name = ZINC00274819
REMARK  3 active torsions:
REMARK  status: ('A' for Active; 'I' for Inactive)
REMARK    1  A    between atoms: C_4  and  C_6
REMARK    2  A    between atoms: N_8  and  N_9
REMARK    3  A    between atoms: C_10  and  C_11
REMARK                            x       y       z     vdW  Elec       q    Type
REMARK                         _______ _______ _______ _____ _____    ______ ____
ROOT
ATOM      1  C   UNL     1      -0.291   4.599  -6.409  0.00  0.00    +0.010 A 
ATOM      2  C   UNL     1       1.116   4.679  -6.430  0.00  0.00    -0.009 A 
ATOM      3  C   UNL     1       1.887   4.181  -5.365  0.00  0.00    +0.009 A 
ATOM      4  C   UNL     1       3.243   4.268  -5.418  0.00  0.00    +0.001 A 
ATOM      5  C   UNL     1       3.897   4.837  -6.511  0.00  0.00    +0.001 A 
ATOM      6  C   UNL     1       3.211   5.331  -7.574  0.00  0.00    +0.008 A 
ATOM      7  C   UNL     1       1.801   5.272  -7.581  0.00  0.00    -0.017 A 
ATOM      8  C   UNL     1       1.067   5.770  -8.657  0.00  0.00    +0.017 A 
ATOM      9  C   UNL     1      -0.327   5.700  -8.643  0.00  0.00    -0.017 A 
ATOM     10  C   UNL     1      -1.026   5.106  -7.502  0.00  0.00    -0.009 A 
ATOM     11  C   UNL     1      -2.430   5.051  -7.520  0.00  0.00    +0.009 A 
ATOM     12  C   UNL     1      -3.108   5.548  -8.589  0.00  0.00    +0.001 A 
ATOM     13  C   UNL     1      -2.445   6.114  -9.677  0.00  0.00    +0.001 A 
ATOM     14  C   UNL     1      -1.090   6.198  -9.721  0.00  0.00    +0.008 A 
ENDROOT
BRANCH   1  16
ATOM     15  N   UNL     1      -2.283   4.039  -5.197  0.00  0.00    -0.188 NA
ATOM     16  C   UNL     1      -0.984   4.003  -5.263  0.00  0.00    +0.139 C 
BRANCH  15  19
ATOM     17  C   UNL     1      -4.290   3.506  -4.033  0.00  0.00    +0.236 C 
ATOM     18  O   UNL     1      -4.928   4.032  -4.921  0.00  0.00    -0.274 OA
ATOM     19  N   UNL     1      -2.945   3.469  -4.102  0.00  0.00    -0.207 N 
ATOM     20  H   UNL     1      -2.434   3.048  -3.392  0.00  0.00    +0.177 HD
BRANCH  17  24
ATOM     21  C   UNL     1      -7.457   0.877  -1.732  0.00  0.00    +0.007 C 
ATOM     22  C   UNL     1      -6.590   1.597  -2.399  0.00  0.00    -0.075 C 
ATOM     23  C   UNL     1      -6.534   3.017  -2.926  0.00  0.00    +0.043 C 
ATOM     24  C   UNL     1      -5.002   2.893  -2.855  0.00  0.00    +0.085 C 
ATOM     25  C   UNL     1      -5.206   1.373  -2.979  0.00  0.00    +0.043 C 
ENDBRANCH  17  24
ENDBRANCH  15  19
ENDBRANCH   1  16
TORSDOF 3
