REMARK  Name = ZINC12186206
REMARK  6 active torsions:
REMARK  status: ('A' for Active; 'I' for Inactive)
REMARK    1  A    between atoms: C_1  and  C_2
REMARK    2  A    between atoms: C_5  and  C_20
REMARK    3  A    between atoms: N_11  and  C_13
REMARK    4  A    between atoms: C_20  and  N_51
REMARK    5  A    between atoms: C_21  and  C_22
REMARK    6  A    between atoms: C_21  and  N_51
REMARK                            x       y       z     vdW  Elec       q    Type
REMARK                         _______ _______ _______ _____ _____    ______ ____
ROOT
ATOM      1  C   UNL     1       1.831   4.598   0.007  0.00  0.00    +0.068 C 
ATOM      2  C   UNL     1       0.852   3.453   0.012  0.00  0.00    +0.070 A 
ATOM      3  C   UNL     1       1.185   2.078   0.002  0.00  0.00    +0.040 A 
ATOM      4  C   UNL     1       2.412   1.376  -0.014  0.00  0.00    +0.020 A 
ATOM      5  C   UNL     1       2.396   0.017  -0.021  0.00  0.00    +0.001 A 
ATOM      6  C   UNL     1       1.170  -0.673  -0.013  0.00  0.00    +0.252 A 
ATOM      7  O   UNL     1       1.165  -1.893  -0.021  0.00  0.00    -0.268 OA
ATOM      8  N   UNL     1       0.002  -0.004   0.002  0.00  0.00    -0.307 N 
ATOM      9  H   UNL     1      -0.834  -0.496   0.007  0.00  0.00    +0.170 HD
ATOM     10  C   UNL     1      -0.017   1.364   0.009  0.00  0.00    +0.145 A 
ATOM     11  N   UNL     1      -1.019   2.281   0.019  0.00  0.00    -0.216 N 
ATOM     12  N   UNL     1      -0.447   3.559   0.024  0.00  0.00    -0.169 NA
ENDROOT
BRANCH  11  13
ATOM     13  C   UNL     1      -2.392   1.996   0.023  0.00  0.00    +0.068 A 
ATOM     14  C   UNL     1      -2.876   0.898  -0.675  0.00  0.00    +0.030 A 
ATOM     15  C   UNL     1      -4.228   0.616  -0.666  0.00  0.00    +0.040 A 
ATOM     16  C   UNL     1      -5.102   1.435   0.030  0.00  0.00    +0.124 A 
ATOM     17  C   UNL     1      -4.622   2.533   0.723  0.00  0.00    +0.040 A 
ATOM     18  C   UNL     1      -3.270   2.815   0.720  0.00  0.00    +0.030 A 
ATOM     19  F   UNL     1      -6.425   1.161   0.034  0.00  0.00    -0.205 F 
ENDBRANCH  11  13
BRANCH   5  20
ATOM     20  C   UNL     1       3.693  -0.751  -0.038  0.00  0.00    -0.041 C 
BRANCH  20  21
ATOM     21  N   UNL     1       4.060  -1.110   1.345  0.00  0.00    +0.384 N 
ATOM     22  H   UNL     1       3.317  -1.689   1.754  0.00  0.00    -0.085 HD
ATOM     23  H   UNL     1       4.170  -0.252   1.899  0.00  0.00    -0.085 HD
BRANCH  21  24
ATOM     24  C   UNL     1       5.328  -1.864   1.359  0.00  0.00    -0.034 C 
BRANCH  24  25
ATOM     25  C   UNL     1       5.683  -2.221   2.804  0.00  0.00    +0.194 C 
ATOM     26  C   UNL     1       7.047  -2.923   2.844  0.00  0.00    +0.271 C 
ATOM     27  O   UNL     1       7.341  -3.254   4.205  0.00  0.00    -0.485 OA
ATOM     28  C   UNL     1       6.339  -3.831   4.924  0.00  0.00    +0.162 A 
ATOM     29  C   UNL     1       6.644  -4.496   6.103  0.00  0.00    +0.049 A 
ATOM     30  C   UNL     1       5.638  -5.085   6.845  0.00  0.00    +0.004 A 
ATOM     31  C   UNL     1       4.325  -5.013   6.416  0.00  0.00    +0.004 A 
ATOM     32  C   UNL     1       4.016  -4.353   5.242  0.00  0.00    +0.049 A 
ATOM     33  C   UNL     1       5.021  -3.761   4.491  0.00  0.00    +0.162 A 
ATOM     34  O   UNL     1       4.701  -3.118   3.335  0.00  0.00    -0.484 OA
ENDBRANCH  24  25
ENDBRANCH  21  24
ENDBRANCH  20  21
ENDBRANCH   5  20
TORSDOF 5
