REMARK  Name = ZINC63221848
REMARK  10 active torsions:
REMARK  status: ('A' for Active; 'I' for Inactive)
REMARK    1  A    between atoms: C_1  and  C_2
REMARK    2  A    between atoms: C_2  and  O_3
REMARK    3  A    between atoms: O_3  and  C_4
REMARK    4  A    between atoms: C_7  and  N_10
REMARK    5  A    between atoms: C_11  and  C_32
REMARK    6  A    between atoms: C_14  and  S_15
REMARK    7  A    between atoms: S_15  and  C_16
REMARK    8  A    between atoms: C_16  and  C_18
REMARK    9  A    between atoms: C_16  and  C_19
REMARK   10  A    between atoms: C_29  and  C_31
REMARK                            x       y       z     vdW  Elec       q    Type
REMARK                         _______ _______ _______ _____ _____    ______ ____
ROOT
ATOM      1  N   UNL     1       1.530  -6.646  -1.858  0.00  0.00    -0.270 N 
ATOM      2  C   UNL     1       2.601  -7.522  -1.930  0.00  0.00    +0.168 A 
ATOM      3  N   UNL     1       2.104  -8.716  -2.222  0.00  0.00    -0.128 NA
ATOM      4  N   UNL     1       0.826  -8.639  -2.333  0.00  0.00    -0.122 NA
ATOM      5  C   UNL     1       0.422  -7.396  -2.115  0.00  0.00    +0.197 A 
ENDROOT
BRANCH   2   6
ATOM      6  C   UNL     1       3.954  -7.206  -1.733  0.00  0.00    +0.025 C 
ATOM      7  C   UNL     1       5.042  -8.075  -1.807  0.00  0.00    +0.006 A 
ATOM      8  C   UNL     1       5.143  -9.455  -2.086  0.00  0.00    +0.010 A 
ATOM      9  C   UNL     1       6.362 -10.053  -2.092  0.00  0.00    +0.001 A 
ATOM     10  C   UNL     1       7.531  -9.335  -1.828  0.00  0.00    +0.002 A 
ATOM     11  C   UNL     1       7.508  -8.008  -1.553  0.00  0.00    +0.026 A 
ATOM     12  C   UNL     1       6.271  -7.313  -1.529  0.00  0.00    +0.043 A 
ATOM     13  N   UNL     1       5.986  -6.048  -1.293  0.00  0.00    -0.380 N 
ATOM     14  C   UNL     1       4.537  -5.850  -1.400  0.00  0.00    +0.152 C 
ATOM     15  H   UNL     1       6.633  -5.356  -1.086  0.00  0.00    +0.160 HD
ENDBRANCH   2   6
BRANCH   1  19
ATOM     16  C   UNL     1       1.669  -2.564  -1.014  0.00  0.00    +0.121 A 
ATOM     17  C   UNL     1       1.040  -3.433  -0.134  0.00  0.00    +0.047 A 
ATOM     18  C   UNL     1       0.994  -4.784  -0.413  0.00  0.00    +0.030 A 
ATOM     19  C   UNL     1       1.576  -5.273  -1.575  0.00  0.00    +0.051 A 
ATOM     20  C   UNL     1       2.205  -4.403  -2.455  0.00  0.00    +0.030 A 
ATOM     21  C   UNL     1       2.247  -3.051  -2.177  0.00  0.00    +0.047 A 
BRANCH  16  22
ATOM     22  O   UNL     1       1.714  -1.233  -0.739  0.00  0.00    -0.492 OA
BRANCH  22  24
ATOM     23  C   UNL     1       1.250   0.716   0.613  0.00  0.00    +0.048 C 
ATOM     24  C   UNL     1       1.099  -0.801   0.477  0.00  0.00    +0.225 C 
ENDBRANCH  22  24
ENDBRANCH  16  22
ENDBRANCH   1  19
BRANCH   5  25
ATOM     25  S   UNL     1      -1.243  -6.819  -2.152  0.00  0.00    -0.073 S 
BRANCH  25  26
ATOM     26  C   UNL     1      -2.212  -8.301  -2.544  0.00  0.00    +0.137 C 
ATOM     27  C   UNL     1      -1.854  -8.788  -3.950  0.00  0.00    +0.029 C 
BRANCH  26  28
ATOM     28  C   UNL     1      -3.682  -7.970  -2.487  0.00  0.00    +0.233 C 
ATOM     29  O   UNL     1      -4.056  -6.837  -2.703  0.00  0.00    -0.274 OA
ATOM     30  N   UNL     1      -4.579  -8.933  -2.197  0.00  0.00    -0.267 N 
ATOM     31  C   UNL     1      -5.967  -8.780  -2.257  0.00  0.00    +0.040 A 
ATOM     32  C   UNL     1      -6.719  -7.657  -2.611  0.00  0.00    +0.024 A 
ATOM     33  C   UNL     1      -8.096  -7.714  -2.607  0.00  0.00    +0.002 A 
ATOM     34  C   UNL     1      -8.744  -8.883  -2.250  0.00  0.00    +0.000 A 
ATOM     35  C   UNL     1      -8.006  -9.998  -1.898  0.00  0.00    +0.005 A 
ATOM     36  C   UNL     1      -6.625  -9.946  -1.902  0.00  0.00    -0.024 A 
ATOM     37  C   UNL     1      -5.593 -10.998  -1.567  0.00  0.00    +0.059 C 
ATOM     38  C   UNL     1      -4.242 -10.296  -1.777  0.00  0.00    +0.083 C 
ATOM     39  C   UNL     1      -3.451 -10.268  -0.468  0.00  0.00    +0.029 C 
ENDBRANCH  26  28
ENDBRANCH  25  26
ENDBRANCH   5  25
TORSDOF 7
