REMARK  Name = ZINC59982510
REMARK  11 active torsions:
REMARK  status: ('A' for Active; 'I' for Inactive)
REMARK    1  A    between atoms: C_1  and  C_2
REMARK    2  A    between atoms: C_5  and  C_32
REMARK    3  A    between atoms: N_8  and  C_10
REMARK    4  A    between atoms: C_10  and  C_11
REMARK    5  A    between atoms: C_10  and  C_12
REMARK    6  A    between atoms: C_10  and  C_13
REMARK    7  A    between atoms: C_13  and  N_14
REMARK    8  A    between atoms: C_15  and  C_17
REMARK    9  A    between atoms: C_17  and  C_18
REMARK   10  A    between atoms: C_21  and  S_23
REMARK   11  A    between atoms: S_23  and  N_26
REMARK                            x       y       z     vdW  Elec       q    Type
REMARK                         _______ _______ _______ _____ _____    ______ ____
ROOT
ATOM      1  N   UNL     1       0.625  -0.480   3.560  0.00  0.00    -0.316 N 
ATOM      2  C   UNL     1      -0.331  -0.065   4.415  0.00  0.00    +0.218 C 
ATOM      3  O   UNL     1      -0.087   0.809   5.220  0.00  0.00    -0.275 OA
ATOM      4  H   UNL     1       0.430  -1.178   2.916  0.00  0.00    +0.149 HD
ENDROOT
BRANCH   1   5
ATOM      5  C   UNL     1       1.959   0.125   3.603  0.00  0.00    +0.092 C 
BRANCH   5   6
ATOM      6  C   UNL     1       2.882  -0.607   2.627  0.00  0.00    -0.055 C 
ATOM      7  C   UNL     1       4.296  -0.032   2.734  0.00  0.00    -0.008 C 
ATOM      8  C   UNL     1       2.363  -0.424   1.199  0.00  0.00    -0.008 C 
BRANCH   6  14
ATOM      9  C   UNL     1       1.893  -4.204   4.599  0.00  0.00    +0.005 C 
ATOM     10  C   UNL     1       3.330  -3.692   4.717  0.00  0.00    -0.031 C 
ATOM     11  C   UNL     1       4.235  -4.483   3.768  0.00  0.00    +0.003 C 
ATOM     12  C   UNL     1       3.784  -4.237   2.325  0.00  0.00    -0.031 C 
ATOM     13  C   UNL     1       3.814  -2.735   2.036  0.00  0.00    -0.075 C 
ATOM     14  N   UNL     1       2.909  -2.038   2.958  0.00  0.00    +0.384 N 
ATOM     15  C   UNL     1       3.377  -2.209   4.340  0.00  0.00    -0.075 C 
ATOM     16  C   UNL     1       4.729  -4.962   1.364  0.00  0.00    +0.005 C 
ATOM     17  H   UNL     1       1.980  -2.420   2.869  0.00  0.00    -0.081 HD
ENDBRANCH   6  14
ENDBRANCH   5   6
ENDBRANCH   1   5
BRANCH   2  18
ATOM     18  C   UNL     1      -1.703  -0.687   4.370  0.00  0.00    +0.138 C 
BRANCH  18  19
ATOM     19  C   UNL     1      -2.577  -0.051   5.420  0.00  0.00    +0.000 A 
ATOM     20  C   UNL     1      -3.384   1.034   5.317  0.00  0.00    +0.013 A 
ATOM     21  C   UNL     1      -4.102   1.443   6.425  0.00  0.00    +0.036 A 
ATOM     22  C   UNL     1      -3.980   0.747   7.581  0.00  0.00    +0.143 A 
ATOM     23  S   UNL     1      -2.825  -0.534   7.121  0.00  0.00    -0.073 S 
BRANCH  22  24
ATOM     24  S   UNL     1      -4.762   1.030   9.135  0.00  0.00    +0.067 S 
ATOM     25  O   UNL     1      -3.931   0.435  10.122  0.00  0.00    -0.152 OA
ATOM     26  O   UNL     1      -5.117   2.405   9.166  0.00  0.00    -0.152 OA
BRANCH  24  27
ATOM     27  N   UNL     1      -6.180   0.174   9.132  0.00  0.00    -0.176 NA
ATOM     28  C   UNL     1      -7.422   0.785   8.640  0.00  0.00    +0.109 C 
ATOM     29  C   UNL     1      -8.028  -0.126   7.568  0.00  0.00    +0.017 C 
ATOM     30  C   UNL     1      -8.205  -1.534   8.141  0.00  0.00    +0.003 C 
ATOM     31  C   UNL     1      -6.839  -2.099   8.539  0.00  0.00    +0.017 C 
ATOM     32  C   UNL     1      -6.218  -1.212   9.616  0.00  0.00    +0.109 C 
ENDBRANCH  24  27
ENDBRANCH  22  24
ENDBRANCH  18  19
ENDBRANCH   2  18
TORSDOF 7
