REMARK  Name = ZINC54036821
REMARK  7 active torsions:
REMARK  status: ('A' for Active; 'I' for Inactive)
REMARK    1  A    between atoms: C_1  and  C_2
REMARK    2  A    between atoms: C_5  and  N_8
REMARK    3  A    between atoms: N_11  and  N_12
REMARK    4  A    between atoms: C_13  and  C_15
REMARK    5  A    between atoms: C_15  and  C_17
REMARK    6  A    between atoms: C_15  and  O_18
REMARK    7  A    between atoms: O_18  and  C_19
REMARK                            x       y       z     vdW  Elec       q    Type
REMARK                         _______ _______ _______ _____ _____    ______ ____
ROOT
ATOM      1  N   UNL     1      -2.884  -1.345   4.626  0.00  0.00    -0.230 N 
ATOM      2  C   UNL     1      -3.491  -0.873   5.733  0.00  0.00    +0.270 C 
ATOM      3  O   UNL     1      -3.534  -1.552   6.737  0.00  0.00    -0.270 OA
ATOM      4  H   UNL     1      -2.850  -0.801   3.823  0.00  0.00    +0.173 HD
ENDROOT
BRANCH   1   8
ATOM      5  N   UNL     1      -1.649  -2.336   2.412  0.00  0.00    -0.295 N 
ATOM      6  C   UNL     1      -1.696  -3.091   3.527  0.00  0.00    +0.316 C 
ATOM      7  O   UNL     1      -1.192  -4.197   3.535  0.00  0.00    -0.251 OA
ATOM      8  N   UNL     1      -2.303  -2.619   4.635  0.00  0.00    -0.218 N 
ATOM      9  H   UNL     1      -2.051  -1.454   2.406  0.00  0.00    +0.151 HD
ATOM     10  H   UNL     1      -2.337  -3.163   5.438  0.00  0.00    +0.174 HD
BRANCH   5  15
ATOM     11  C   UNL     1       0.384   1.144   0.260  0.00  0.00    +0.007 C 
ATOM     12  C   UNL     1       0.155  -0.365   0.157  0.00  0.00    -0.014 C 
ATOM     13  C   UNL     1      -1.346  -0.650   0.076  0.00  0.00    +0.005 C 
ATOM     14  C   UNL     1      -1.573  -2.160  -0.026  0.00  0.00    +0.022 C 
ATOM     15  C   UNL     1      -0.989  -2.849   1.208  0.00  0.00    +0.074 C 
ATOM     16  C   UNL     1       0.512  -2.564   1.289  0.00  0.00    +0.022 C 
ATOM     17  C   UNL     1       0.740  -1.055   1.391  0.00  0.00    +0.005 C 
ENDBRANCH   5  15
ENDBRANCH   1   8
BRANCH   2  18
ATOM     18  C   UNL     1      -4.116   0.498   5.724  0.00  0.00    +0.257 C 
ATOM     19  C   UNL     1      -5.288   0.518   4.741  0.00  0.00    +0.062 C 
BRANCH  18  20
ATOM     20  O   UNL     1      -4.588   0.815   7.035  0.00  0.00    -0.480 OA
BRANCH  20  21
ATOM     21  C   UNL     1      -4.696   2.134   7.350  0.00  0.00    +0.122 A 
ATOM     22  C   UNL     1      -5.035   2.513   8.640  0.00  0.00    +0.048 A 
ATOM     23  C   UNL     1      -5.145   3.853   8.958  0.00  0.00    +0.042 A 
ATOM     24  C   UNL     1      -4.918   4.816   7.990  0.00  0.00    +0.124 A 
ATOM     25  C   UNL     1      -4.580   4.439   6.702  0.00  0.00    +0.042 A 
ATOM     26  C   UNL     1      -4.463   3.100   6.382  0.00  0.00    +0.048 A 
ATOM     27  F   UNL     1      -5.026   6.126   8.303  0.00  0.00    -0.205 F 
ENDBRANCH  20  21
ENDBRANCH  18  20
ENDBRANCH   2  18
TORSDOF 5
