REMARK  Name = ZINC39774556
REMARK  11 active torsions:
REMARK  status: ('A' for Active; 'I' for Inactive)
REMARK    1  A    between atoms: C_1  and  C_2
REMARK    2  A    between atoms: C_2  and  C_3
REMARK    3  A    between atoms: C_2  and  C_4
REMARK    4  A    between atoms: C_4  and  C_5
REMARK    5  A    between atoms: C_4  and  C_6
REMARK    6  A    between atoms: C_4  and  N_8
REMARK    7  A    between atoms: C_9  and  C_11
REMARK    8  A    between atoms: C_11  and  S_12
REMARK    9  A    between atoms: S_12  and  C_13
REMARK   10  A    between atoms: C_17  and  C_22
REMARK   11  A    between atoms: N_18  and  C_19
REMARK                            x       y       z     vdW  Elec       q    Type
REMARK                         _______ _______ _______ _____ _____    ______ ____
ROOT
ATOM      1  C   UNL     1      -0.466  -0.151   7.675  0.00  0.00    +0.237 C 
ATOM      2  N   UNL     1      -1.804  -0.677   7.357  0.00  0.00    -0.237 N 
ATOM      3  N   UNL     1      -2.688   0.404   7.444  0.00  0.00    -0.169 NA
ATOM      4  C   UNL     1      -2.062   1.504   7.771  0.00  0.00    +0.147 C 
ATOM      5  N   UNL     1      -0.690   1.280   7.940  0.00  0.00    -0.282 N 
ATOM      6  H   UNL     1      -2.028  -1.593   7.130  0.00  0.00    +0.171 HD
ENDROOT
BRANCH   4   7
ATOM      7  C   UNL     1      -2.684   2.751   7.934  0.00  0.00    +0.022 C 
ATOM      8  C   UNL     1      -4.052   3.024   7.879  0.00  0.00    +0.006 A 
ATOM      9  C   UNL     1      -5.179   2.205   7.661  0.00  0.00    +0.010 A 
ATOM     10  C   UNL     1      -6.421   2.754   7.662  0.00  0.00    +0.001 A 
ATOM     11  C   UNL     1      -6.617   4.120   7.875  0.00  0.00    +0.002 A 
ATOM     12  C   UNL     1      -5.579   4.966   8.092  0.00  0.00    +0.026 A 
ATOM     13  C   UNL     1      -4.252   4.465   8.105  0.00  0.00    +0.043 A 
ATOM     14  N   UNL     1      -3.094   5.068   8.290  0.00  0.00    -0.380 N 
ATOM     15  C   UNL     1      -2.015   4.079   8.211  0.00  0.00    +0.152 C 
ATOM     16  H   UNL     1      -2.975   6.016   8.457  0.00  0.00    +0.160 HD
ENDBRANCH   4   7
BRANCH   5  17
ATOM     17  C   UNL     1       0.324   2.271   8.308  0.00  0.00    +0.078 C 
ATOM     18  C   UNL     1       1.782   1.809   8.348  0.00  0.00    +0.024 C 
ATOM     19  C   UNL     1       1.033   2.092   9.652  0.00  0.00    +0.024 C 
ENDBRANCH   5  17
BRANCH   1  20
ATOM     20  S   UNL     1       0.653  -0.367   6.264  0.00  0.00    -0.109 S 
BRANCH  20  21
ATOM     21  C   UNL     1      -0.185   0.490   4.903  0.00  0.00    +0.168 C 
BRANCH  21  23
ATOM     22  N   UNL     1       0.223   0.953   2.508  0.00  0.00    -0.297 N 
ATOM     23  C   UNL     1       0.650   0.386   3.653  0.00  0.00    +0.224 C 
ATOM     24  O   UNL     1       1.707  -0.209   3.678  0.00  0.00    -0.275 OA
ATOM     25  H   UNL     1      -0.623   1.429   2.488  0.00  0.00    +0.150 HD
BRANCH  22  26
ATOM     26  C   UNL     1       1.034   0.851   1.293  0.00  0.00    +0.121 C 
ATOM     27  C   UNL     1       1.223  -0.622   0.927  0.00  0.00    +0.048 C 
BRANCH  26  29
ATOM     28  C   UNL     1       0.250   3.071   0.456  0.00  0.00    +0.010 C 
ATOM     29  C   UNL     1       0.327   1.575   0.145  0.00  0.00    +0.020 C 
ATOM     30  C   UNL     1       1.112   1.363  -1.152  0.00  0.00    +0.010 C 
ENDBRANCH  26  29
BRANCH  26  31
ATOM     31  C   UNL     1       2.349   1.471   1.527  0.00  0.00    +0.088 C 
ATOM     32  N   UNL     1       3.363   1.949   1.709  0.00  0.00    -0.194 NA
ENDBRANCH  26  31
ENDBRANCH  22  26
ENDBRANCH  21  23
ENDBRANCH  20  21
ENDBRANCH   1  20
TORSDOF 8
