REMARK  Name = ZINC35225889
REMARK  10 active torsions:
REMARK  status: ('A' for Active; 'I' for Inactive)
REMARK    1  A    between atoms: C_1  and  C_2
REMARK    2  A    between atoms: C_2  and  C_3
REMARK    3  A    between atoms: C_2  and  N_4
REMARK    4  A    between atoms: N_4  and  C_5
REMARK    5  A    between atoms: N_4  and  C_13
REMARK    6  A    between atoms: C_5  and  C_6
REMARK    7  A    between atoms: C_13  and  C_14
REMARK    8  A    between atoms: C_17  and  C_19
REMARK    9  A    between atoms: N_21  and  C_22
REMARK   10  A    between atoms: C_22  and  C_23
REMARK                            x       y       z     vdW  Elec       q    Type
REMARK                         _______ _______ _______ _____ _____    ______ ____
ROOT
ATOM      1  C   UNL     1      -2.815   1.545  -1.607  0.00  0.00    +0.090 A 
ATOM      2  C   UNL     1      -2.059   2.391  -2.341  0.00  0.00    +0.043 A 
ATOM      3  C   UNL     1      -2.636   3.666  -2.226  0.00  0.00    +0.055 A 
ATOM      4  C   UNL     1      -3.728   3.531  -1.417  0.00  0.00    +0.189 A 
ATOM      5  O   UNL     1      -3.822   2.235  -1.055  0.00  0.00    -0.457 OA
ENDROOT
BRANCH   4   6
ATOM      6  C   UNL     1      -4.640   4.606  -1.015  0.00  0.00    +0.280 C 
ATOM      7  O   UNL     1      -4.454   5.742  -1.410  0.00  0.00    -0.267 OA
ATOM      8  N   UNL     1      -5.685   4.337  -0.208  0.00  0.00    -0.305 N 
ATOM      9  H   UNL     1      -5.834   3.431   0.107  0.00  0.00    +0.149 HD
BRANCH   8  10
ATOM     10  C   UNL     1      -6.597   5.411   0.194  0.00  0.00    +0.140 C 
BRANCH  10  11
ATOM     11  C   UNL     1      -7.671   4.849   1.089  0.00  0.00    -0.027 A 
ATOM     12  C   UNL     1      -8.844   4.365   0.540  0.00  0.00    +0.009 A 
ATOM     13  C   UNL     1      -9.832   3.849   1.357  0.00  0.00    +0.050 A 
ATOM     14  C   UNL     1      -9.650   3.815   2.730  0.00  0.00    +0.166 A 
ATOM     15  C   UNL     1      -8.468   4.303   3.283  0.00  0.00    +0.167 A 
ATOM     16  C   UNL     1      -7.480   4.814   2.458  0.00  0.00    +0.054 A 
ATOM     17  O   UNL     1      -8.531   4.160   4.639  0.00  0.00    -0.453 OA
ATOM     18  C   UNL     1      -9.924   3.958   4.941  0.00  0.00    +0.466 C 
ATOM     19  O   UNL     1     -10.452   3.367   3.739  0.00  0.00    -0.453 OA
ENDBRANCH  10  11
ENDBRANCH   8  10
ENDBRANCH   4   6
BRANCH   1  20
ATOM     20  C   UNL     1      -2.568   0.068  -1.440  0.00  0.00    -0.002 C 
BRANCH  20  21
ATOM     21  N   UNL     1      -1.883  -0.174  -0.164  0.00  0.00    +0.389 N 
ATOM     22  H   UNL     1      -2.389   0.282   0.581  0.00  0.00    -0.080 HD
BRANCH  21  24
ATOM     23  C   UNL     1       0.048   0.148  -1.635  0.00  0.00    -0.013 C 
ATOM     24  C   UNL     1      -0.518   0.366  -0.231  0.00  0.00    -0.074 C 
ATOM     25  C   UNL     1      -0.546   1.863   0.082  0.00  0.00    -0.013 C 
ENDBRANCH  21  24
BRANCH  21  26
ATOM     26  C   UNL     1      -1.826  -1.619   0.096  0.00  0.00    -0.042 C 
BRANCH  26  27
ATOM     27  C   UNL     1      -1.258  -1.860   1.470  0.00  0.00    -0.064 A 
ATOM     28  C   UNL     1       0.088  -2.139   1.623  0.00  0.00    +0.003 A 
ATOM     29  C   UNL     1       0.610  -2.360   2.883  0.00  0.00    +0.015 A 
ATOM     30  C   UNL     1      -0.214  -2.303   3.993  0.00  0.00    +0.018 A 
ATOM     31  C   UNL     1      -1.561  -2.024   3.840  0.00  0.00    +0.015 A 
ATOM     32  C   UNL     1      -2.081  -1.798   2.579  0.00  0.00    +0.003 A 
ATOM     33 BR   UNL     1       0.499  -2.606   5.717  0.00  0.00    -0.050 Br
ENDBRANCH  26  27
ENDBRANCH  21  26
ENDBRANCH  20  21
ENDBRANCH   1  20
TORSDOF 8
