REMARK  Name = ZINC39843158
REMARK  7 active torsions:
REMARK  status: ('A' for Active; 'I' for Inactive)
REMARK    1  A    between atoms: C_4  and  C_7
REMARK    2  A    between atoms: C_7  and  C_9
REMARK    3  A    between atoms: C_9  and  C_10
REMARK    4  A    between atoms: N_16  and  C_17
REMARK    5  A    between atoms: C_20  and  S_23
REMARK    6  A    between atoms: S_23  and  N_26
REMARK    7  A    between atoms: N_26  and  C_27
REMARK                            x       y       z     vdW  Elec       q    Type
REMARK                         _______ _______ _______ _____ _____    ______ ____
ROOT
ATOM      1  C   UNL     1       5.167  -2.672  -0.064  0.00  0.00    +0.147 C 
ATOM      2  C   UNL     1       5.239  -4.190  -0.102  0.00  0.00    +0.232 C 
ATOM      3  O   UNL     1       4.788  -4.834  -1.025  0.00  0.00    -0.274 OA
ATOM      4  N   UNL     1       5.824  -4.765   0.935  0.00  0.00    -0.264 N 
ATOM      5  C   UNL     1       6.339  -4.040   1.990  0.00  0.00    +0.161 C 
ATOM      6  N   UNL     1       6.938  -4.491   3.067  0.00  0.00    -0.226 NA
ATOM      7  S   UNL     1       6.000  -2.342   1.544  0.00  0.00    -0.077 S 
ATOM      8  H   UNL     1       5.893  -5.732   0.956  0.00  0.00    +0.157 HD
ENDROOT
BRANCH   6   9
ATOM      9  C   UNL     1       7.112  -5.838   3.241  0.00  0.00    +0.067 A 
ATOM     10  C   UNL     1       6.062  -6.721   2.977  0.00  0.00    +0.030 A 
ATOM     11  C   UNL     1       6.244  -8.076   3.154  0.00  0.00    +0.031 A 
ATOM     12  C   UNL     1       7.463  -8.563   3.592  0.00  0.00    +0.111 A 
ATOM     13  C   UNL     1       8.507  -7.695   3.855  0.00  0.00    +0.031 A 
ATOM     14  C   UNL     1       8.341  -6.337   3.677  0.00  0.00    +0.030 A 
BRANCH  12  15
ATOM     15  S   UNL     1       7.686 -10.296   3.816  0.00  0.00    +0.093 S 
ATOM     16  O   UNL     1       8.742 -10.452   4.753  0.00  0.00    -0.148 OA
ATOM     17  O   UNL     1       6.393 -10.848   4.027  0.00  0.00    -0.148 OA
BRANCH  15  18
ATOM     18  N   UNL     1       8.234 -10.909   2.379  0.00  0.00    -0.070 NA
BRANCH  18  19
ATOM     19  C   UNL     1       8.499 -12.265   2.260  0.00  0.00    +0.201 A 
ATOM     20  N   UNL     1       8.370 -13.207   3.170  0.00  0.00    -0.231 NA
ATOM     21  C   UNL     1       8.668 -14.465   2.896  0.00  0.00    +0.120 A 
ATOM     22  C   UNL     1       9.108 -14.735   1.644  0.00  0.00    +0.068 A 
ATOM     23  S   UNL     1       9.058 -13.107   0.914  0.00  0.00    -0.058 S 
ENDBRANCH  18  19
ENDBRANCH  15  18
ENDBRANCH  12  15
ENDBRANCH   6   9
BRANCH   1  24
ATOM     24  C   UNL     1       3.716  -2.186  -0.046  0.00  0.00    +0.103 C 
BRANCH  24  25
ATOM     25  C   UNL     1       3.691  -0.679  -0.038  0.00  0.00    +0.165 C 
ATOM     26  O   UNL     1       4.731  -0.056  -0.045  0.00  0.00    -0.292 OA
BRANCH  25  30
ATOM     27  C   UNL     1      -0.017   1.380   0.010  0.00  0.00    +0.000 A 
ATOM     28  C   UNL     1       1.168   2.095   0.002  0.00  0.00    +0.001 A 
ATOM     29  C   UNL     1       2.377   1.433  -0.013  0.00  0.00    +0.011 A 
ATOM     30  C   UNL     1       2.405   0.035  -0.021  0.00  0.00    +0.017 A 
ATOM     31  C   UNL     1       1.203  -0.681  -0.013  0.00  0.00    +0.011 A 
ATOM     32  C   UNL     1       0.002  -0.004   0.002  0.00  0.00    +0.001 A 
ENDBRANCH  25  30
ENDBRANCH  24  25
ENDBRANCH   1  24
TORSDOF 7
