REMARK  Name = ZINC67082673
REMARK  8 active torsions:
REMARK  status: ('A' for Active; 'I' for Inactive)
REMARK    1  A    between atoms: C_1  and  C_2
REMARK    2  A    between atoms: C_3  and  C_12
REMARK    3  A    between atoms: C_12  and  C_13
REMARK    4  A    between atoms: C_13  and  N_14
REMARK    5  A    between atoms: C_24  and  C_26
REMARK    6  A    between atoms: C_26  and  C_27
REMARK    7  A    between atoms: C_26  and  C_28
REMARK    8  A    between atoms: C_26  and  C_29
REMARK                            x       y       z     vdW  Elec       q    Type
REMARK                         _______ _______ _______ _____ _____    ______ ____
ROOT
ATOM      1  N   UNL     1       1.680  -1.118  -5.634  0.00  0.00    -0.299 N 
ATOM      2  C   UNL     1       2.792  -0.764  -6.307  0.00  0.00    +0.302 C 
ATOM      3  O   UNL     1       3.881  -1.155  -5.931  0.00  0.00    -0.253 OA
ATOM      4  N   UNL     1       2.698   0.022  -7.398  0.00  0.00    -0.284 N 
ATOM      5  C   UNL     1       3.850   0.408  -8.135  0.00  0.00    +0.111 C 
ATOM      6  C   UNL     1       4.602   1.654  -7.563  0.00  0.00    +0.038 C 
ATOM      7  C   UNL     1       3.517   2.653  -7.044  0.00  0.00    +0.109 C 
ATOM      8  N   UNL     1       2.348   2.728  -7.848  0.00  0.00    -0.299 N 
ATOM      9  C   UNL     1       1.189   1.896  -7.434  0.00  0.00    +0.126 C 
ATOM     10  C   UNL     1       1.386   0.517  -7.886  0.00  0.00    +0.128 C 
ATOM     11  C   UNL     1       2.292   3.519  -8.938  0.00  0.00    +0.221 C 
ATOM     12  O   UNL     1       3.239   4.220  -9.227  0.00  0.00    -0.275 OA
ATOM     13  H   UNL     1       0.811  -0.806  -5.934  0.00  0.00    +0.150 HD
ENDROOT
BRANCH  11  14
ATOM     14  C   UNL     1       1.054   3.533  -9.796  0.00  0.00    +0.039 C 
ATOM     15  C   UNL     1       1.328   4.329 -11.074  0.00  0.00    +0.020 C 
ATOM     16  C   UNL     1       0.671   2.098 -10.162  0.00  0.00    +0.020 C 
ATOM     17  C   UNL     1      -0.095   4.187  -9.025  0.00  0.00    +0.020 C 
ENDBRANCH  11  14
BRANCH   1  18
ATOM     18  C   UNL     1       1.782  -1.972  -4.448  0.00  0.00    +0.110 C 
BRANCH  18  19
ATOM     19  C   UNL     1       0.384  -2.221  -3.877  0.00  0.00    +0.056 C 
BRANCH  19  22
ATOM     20  C   UNL     1       0.741  -1.251  -0.950  0.00  0.00    +0.063 C 
ATOM     21  C   UNL     1       0.643  -2.690  -1.388  0.00  0.00    +0.017 A 
ATOM     22  C   UNL     1       0.489  -3.100  -2.657  0.00  0.00    -0.018 A 
ATOM     23  C   UNL     1       0.442  -4.564  -2.631  0.00  0.00    +0.003 A 
ATOM     24  C   UNL     1       0.301  -5.547  -3.612  0.00  0.00    +0.010 A 
ATOM     25  C   UNL     1       0.295  -6.866  -3.255  0.00  0.00    +0.001 A 
ATOM     26  C   UNL     1       0.430  -7.236  -1.923  0.00  0.00    +0.002 A 
ATOM     27  C   UNL     1       0.571  -6.282  -0.940  0.00  0.00    +0.026 A 
ATOM     28  C   UNL     1       0.579  -4.933  -1.281  0.00  0.00    +0.047 A 
ATOM     29  N   UNL     1       0.704  -3.772  -0.553  0.00  0.00    -0.358 N 
ATOM     30  H   UNL     1       0.817  -3.727   0.410  0.00  0.00    +0.166 HD
ENDBRANCH  19  22
ENDBRANCH  18  19
ENDBRANCH   1  18
TORSDOF 4
