REMARK  Name = ZINC10129869
REMARK  12 active torsions:
REMARK  status: ('A' for Active; 'I' for Inactive)
REMARK    1  A    between atoms: C_1  and  C_2
REMARK    2  A    between atoms: C_2  and  O_3
REMARK    3  A    between atoms: O_3  and  C_4
REMARK    4  A    between atoms: C_9  and  N_10
REMARK    5  A    between atoms: C_11  and  C_13
REMARK    6  A    between atoms: N_15  and  C_16
REMARK    7  A    between atoms: C_16  and  C_17
REMARK    8  A    between atoms: C_17  and  C_19
REMARK    9  A    between atoms: C_17  and  N_70
REMARK   10  A    between atoms: C_22  and  N_25
REMARK   11  A    between atoms: N_25  and  C_26
REMARK   12  A    between atoms: N_25  and  C_27
REMARK                            x       y       z     vdW  Elec       q    Type
REMARK                         _______ _______ _______ _____ _____    ______ ____
ROOT
ATOM      1  C   UNL     1      -1.377   3.060  -1.198  0.00  0.00    -0.020 C 
ENDROOT
BRANCH   1  11
ATOM      2  C   UNL     1      -0.784   0.834  -0.447  0.00  0.00    -0.073 C 
ATOM      3  C   UNL     1       0.395   0.037   0.113  0.00  0.00    +0.017 C 
ATOM      4  C   UNL     1       0.794   0.587   1.458  0.00  0.00    -0.048 A 
ATOM      5  C   UNL     1       1.590  -0.195   2.282  0.00  0.00    +0.004 A 
ATOM      6  C   UNL     1       1.985   0.274   3.519  0.00  0.00    +0.000 A 
ATOM      7  C   UNL     1       1.585   1.529   3.939  0.00  0.00    +0.000 A 
ATOM      8  C   UNL     1       0.791   2.307   3.120  0.00  0.00    +0.002 A 
ATOM      9  C   UNL     1       0.392   1.837   1.877  0.00  0.00    -0.061 A 
ATOM     10  C   UNL     1      -0.478   2.720   1.022  0.00  0.00    -0.042 C 
ATOM     11  N   UNL     1      -0.433   2.267  -0.378  0.00  0.00    +0.388 N 
ATOM     12  H   UNL     1       0.517   2.397  -0.743  0.00  0.00    -0.080 HD
ENDBRANCH   1  11
BRANCH   1  13
ATOM     13  C   UNL     1      -2.732   2.401  -1.216  0.00  0.00    -0.059 A 
ATOM     14  C   UNL     1      -3.379   2.120  -0.026  0.00  0.00    +0.004 A 
ATOM     15  C   UNL     1      -4.623   1.521  -0.040  0.00  0.00    +0.023 A 
ATOM     16  C   UNL     1      -5.220   1.190  -1.249  0.00  0.00    +0.029 A 
ATOM     17  C   UNL     1      -4.565   1.468  -2.442  0.00  0.00    +0.023 A 
ATOM     18  C   UNL     1      -3.323   2.072  -2.422  0.00  0.00    +0.004 A 
BRANCH  16  19
ATOM     19  N   UNL     1      -6.475   0.579  -1.266  0.00  0.00    -0.336 N 
ATOM     20  C   UNL     1      -7.103   0.230  -2.543  0.00  0.00    +0.129 C 
ATOM     21  C   UNL     1      -7.165   0.286  -0.007  0.00  0.00    +0.129 C 
ENDBRANCH  16  19
ENDBRANCH   1  13
BRANCH   1  22
ATOM     22  C   UNL     1      -1.503   4.468  -0.612  0.00  0.00    +0.094 C 
BRANCH  22  25
ATOM     23  C   UNL     1      -0.046   6.355  -0.109  0.00  0.00    +0.299 C 
ATOM     24  O   UNL     1      -1.033   7.006   0.167  0.00  0.00    -0.265 OA
ATOM     25  N   UNL     1      -0.173   5.075  -0.509  0.00  0.00    -0.309 N 
ATOM     26  H   UNL     1       0.616   4.555  -0.729  0.00  0.00    +0.149 HD
BRANCH  23  28
ATOM     27  N   UNL     1       1.437   8.254   0.397  0.00  0.00    -0.275 N 
ATOM     28  C   UNL     1       1.309   6.974  -0.004  0.00  0.00    +0.303 C 
ATOM     29  O   UNL     1       2.296   6.323  -0.279  0.00  0.00    -0.265 OA
ATOM     30  H   UNL     1       0.657   8.750   0.692  0.00  0.00    +0.155 HD
BRANCH  27  36
ATOM     31  C   UNL     1       2.984   9.880   1.300  0.00  0.00    +0.142 A 
ATOM     32  C   UNL     1       4.231  10.484   1.286  0.00  0.00    +0.047 A 
ATOM     33  C   UNL     1       5.183  10.084   0.367  0.00  0.00    +0.004 A 
ATOM     34  C   UNL     1       4.895   9.081  -0.541  0.00  0.00    +0.002 A 
ATOM     35  C   UNL     1       3.656   8.469  -0.530  0.00  0.00    +0.027 A 
ATOM     36  C   UNL     1       2.693   8.869   0.387  0.00  0.00    +0.076 A 
BRANCH  31  37
ATOM     37  O   UNL     1       2.047  10.272   2.204  0.00  0.00    -0.490 OA
BRANCH  37  39
ATOM     38  C   UNL     1       1.242  11.617   4.043  0.00  0.00    +0.048 C 
ATOM     39  C   UNL     1       2.415  11.314   3.110  0.00  0.00    +0.226 C 
ENDBRANCH  37  39
ENDBRANCH  31  37
ENDBRANCH  27  36
ENDBRANCH  23  28
ENDBRANCH  22  25
ENDBRANCH   1  22
TORSDOF 9
