REMARK  Name = ZINC67002503
REMARK  9 active torsions:
REMARK  status: ('A' for Active; 'I' for Inactive)
REMARK    1  A    between atoms: C_1  and  C_2
REMARK    2  A    between atoms: C_2  and  N_3
REMARK    3  A    between atoms: N_3  and  C_4
REMARK    4  A    between atoms: N_3  and  C_5
REMARK    5  A    between atoms: C_5  and  C_6
REMARK    6  A    between atoms: C_6  and  N_7
REMARK    7  A    between atoms: C_13  and  C_16
REMARK    8  A    between atoms: C_23  and  O_26
REMARK    9  A    between atoms: O_26  and  C_27
REMARK                            x       y       z     vdW  Elec       q    Type
REMARK                         _______ _______ _______ _____ _____    ______ ____
ROOT
ATOM      1  N   UNL     1      -2.770  -3.958   0.375  0.00  0.00    -0.301 N 
ATOM      2  C   UNL     1      -3.926  -4.639   0.504  0.00  0.00    +0.302 C 
ATOM      3  O   UNL     1      -4.976  -4.037   0.618  0.00  0.00    -0.253 OA
ATOM      4  N   UNL     1      -3.917  -5.986   0.506  0.00  0.00    -0.282 N 
ATOM      5  C   UNL     1      -5.170  -6.760   0.531  0.00  0.00    +0.114 C 
ATOM      6  C   UNL     1      -5.241  -7.586  -0.756  0.00  0.00    +0.054 C 
ATOM      7  C   UNL     1      -3.925  -8.255  -1.021  0.00  0.00    -0.039 C 
ATOM      8  C   UNL     1      -2.784  -7.885  -0.486  0.00  0.00    -0.004 C 
ATOM      9  C   UNL     1      -2.657  -6.743   0.477  0.00  0.00    +0.137 C 
ATOM     10  H   UNL     1      -1.925  -4.434   0.358  0.00  0.00    +0.150 HD
ENDROOT
BRANCH   7  11
ATOM     11  C   UNL     1      -3.910  -9.406  -1.944  0.00  0.00    +0.003 A 
ATOM     12  C   UNL     1      -4.354 -10.662  -1.682  0.00  0.00    +0.091 A 
ATOM     13  N   UNL     1      -4.177 -11.453  -2.779  0.00  0.00    -0.360 N 
ATOM     14  H   UNL     1      -4.419 -12.391  -2.833  0.00  0.00    +0.165 HD
ATOM     15  C   UNL     1      -3.606 -10.725  -3.803  0.00  0.00    +0.047 A 
ATOM     16  C   UNL     1      -3.418  -9.414  -3.333  0.00  0.00    +0.010 A 
ATOM     17  C   UNL     1      -2.857  -8.447  -4.164  0.00  0.00    +0.056 A 
ATOM     18  C   UNL     1      -2.490  -8.784  -5.453  0.00  0.00    +0.121 A 
ATOM     19  C   UNL     1      -2.679 -10.081  -5.919  0.00  0.00    +0.047 A 
ATOM     20  C   UNL     1      -3.226 -11.046  -5.102  0.00  0.00    +0.030 A 
BRANCH  18  21
ATOM     21  O   UNL     1      -1.942  -7.844  -6.269  0.00  0.00    -0.495 OA
ATOM     22  C   UNL     1      -1.585  -8.259  -7.589  0.00  0.00    +0.277 C 
ENDBRANCH  18  21
ENDBRANCH   7  11
BRANCH   1  23
ATOM     23  C   UNL     1      -2.789  -2.497   0.261  0.00  0.00    +0.087 C 
BRANCH  23  24
ATOM     24  C   UNL     1      -1.356  -1.977   0.127  0.00  0.00    -0.060 C 
BRANCH  24  25
ATOM     25  N   UNL     1      -1.376  -0.513   0.012  0.00  0.00    +0.379 N 
ATOM     26  C   UNL     1      -2.047  -0.128  -1.236  0.00  0.00    -0.096 C 
ATOM     27  H   UNL     1      -1.874  -0.120   0.797  0.00  0.00    -0.082 HD
BRANCH  25  29
ATOM     28  C   UNL     1      -0.019   1.526   0.010  0.00  0.00    -0.017 C 
ATOM     29  C   UNL     1       0.002  -0.004   0.004  0.00  0.00    -0.083 C 
ENDBRANCH  25  29
ENDBRANCH  24  25
ENDBRANCH  23  24
ENDBRANCH   1  23
TORSDOF 6
