REMARK  Name = ZINC03618815
REMARK  5 active torsions:
REMARK  status: ('A' for Active; 'I' for Inactive)
REMARK    1  A    between atoms: C_5  and  N_20
REMARK    2  A    between atoms: C_6  and  C_7
REMARK    3  A    between atoms: C_7  and  O_9
REMARK    4  A    between atoms: O_9  and  C_10
REMARK    5  A    between atoms: C_10  and  C_11
REMARK                            x       y       z     vdW  Elec       q    Type
REMARK                         _______ _______ _______ _____ _____    ______ ____
ROOT
ATOM      1  C   UNL     1       2.397   4.526  -0.486  0.00  0.00    +0.342 C 
ATOM      2  O   UNL     1       2.391   5.738  -0.576  0.00  0.00    -0.245 OA
ENDROOT
BRANCH   1   8
ATOM      3  C   UNL     1       1.159   2.422   0.001  0.00  0.00    +0.037 A 
ATOM      4  C   UNL     1      -0.020   1.750   0.243  0.00  0.00    +0.043 A 
ATOM      5  C   UNL     1      -1.227   2.434   0.257  0.00  0.00    +0.042 A 
ATOM      6  C   UNL     1      -1.260   3.797   0.040  0.00  0.00    +0.064 A 
ATOM      7  C   UNL     1      -0.082   4.492  -0.206  0.00  0.00    +0.057 A 
ATOM      8  C   UNL     1       1.141   3.802  -0.227  0.00  0.00    +0.082 A 
ATOM      9 CL   UNL     1      -2.776   4.643   0.067  0.00  0.00    -0.082 Cl
ATOM     10 CL   UNL     1       0.005   0.037   0.526  0.00  0.00    -0.083 Cl
BRANCH   7  11
ATOM     11  N   UNL     1      -0.113   5.863  -0.431  0.00  0.00    -0.356 N 
ATOM     12  H   UNL     1       0.604   6.290  -0.924  0.00  0.00    +0.142 HD
ATOM     13  H   UNL     1      -0.853   6.393  -0.094  0.00  0.00    +0.142 HD
ENDBRANCH   7  11
ENDBRANCH   1   8
BRANCH   1  14
ATOM     14  O   UNL     1       3.551   3.845  -0.623  0.00  0.00    -0.452 OA
BRANCH  14  15
ATOM     15  C   UNL     1       4.750   4.625  -0.877  0.00  0.00    +0.328 C 
BRANCH  15  16
ATOM     16  C   UNL     1       5.934   3.700  -1.001  0.00  0.00    +0.253 C 
ATOM     17  O   UNL     1       5.782   2.502  -0.886  0.00  0.00    -0.272 OA
ATOM     18  N   UNL     1       7.161   4.204  -1.239  0.00  0.00    -0.299 N 
ATOM     19  C   UNL     1       7.307   5.636  -1.376  0.00  0.00    +0.108 C 
ATOM     20  C   UNL     1       7.109   6.045  -2.851  0.00  0.00    +0.019 C 
ATOM     21  C   UNL     1       8.255   5.604  -3.661  0.00  0.00    +0.002 C 
ATOM     22  C   UNL     1       8.445   4.091  -3.710  0.00  0.00    +0.002 C 
ATOM     23  C   UNL     1       9.244   3.649  -2.509  0.00  0.00    +0.019 C 
ATOM     24  C   UNL     1       8.299   3.271  -1.354  0.00  0.00    +0.108 C 
ENDBRANCH  15  16
ENDBRANCH  14  15
ENDBRANCH   1  14
TORSDOF 5
