REMARK  Name = ZINC12079728
REMARK  12 active torsions:
REMARK  status: ('A' for Active; 'I' for Inactive)
REMARK    1  A    between atoms: C_1  and  C_2
REMARK    2  A    between atoms: C_6  and  C_7
REMARK    3  A    between atoms: N_9  and  C_10
REMARK    4  A    between atoms: N_9  and  C_14
REMARK    5  A    between atoms: C_10  and  C_11
REMARK    6  A    between atoms: C_11  and  N_58
REMARK    7  A    between atoms: C_12  and  N_58
REMARK    8  A    between atoms: C_13  and  N_58
REMARK    9  A    between atoms: C_14  and  C_15
REMARK   10  A    between atoms: C_23  and  N_24
REMARK   11  A    between atoms: N_24  and  C_25
REMARK   12  A    between atoms: N_24  and  C_26
REMARK                            x       y       z     vdW  Elec       q    Type
REMARK                         _______ _______ _______ _____ _____    ______ ____
ROOT
ATOM      1  C   UNL     1       5.366  -1.930   2.739  0.00  0.00    +0.008 A 
ATOM      2  C   UNL     1       5.124  -2.424   1.492  0.00  0.00    +0.018 A 
ATOM      3  C   UNL     1       3.820  -2.314   0.971  0.00  0.00    +0.002 A 
ATOM      4  C   UNL     1       3.505  -2.801  -0.308  0.00  0.00    +0.059 A 
ATOM      5  C   UNL     1       2.232  -2.680  -0.786  0.00  0.00    +0.167 A 
ATOM      6  C   UNL     1       1.232  -2.071  -0.009  0.00  0.00    +0.168 A 
ATOM      7  C   UNL     1       1.513  -1.590   1.238  0.00  0.00    +0.075 A 
ATOM      8  C   UNL     1       2.813  -1.700   1.756  0.00  0.00    +0.051 A 
ATOM      9  C   UNL     1       4.328  -1.333   3.467  0.00  0.00    +0.103 A 
ATOM     10  O   UNL     1       0.067  -2.083  -0.722  0.00  0.00    -0.453 OA
ATOM     11  C   UNL     1       0.452  -2.324  -2.087  0.00  0.00    +0.466 C 
ATOM     12  O   UNL     1       1.681  -3.065  -1.975  0.00  0.00    -0.453 OA
ATOM     13  N   UNL     1       3.055  -1.200   3.017  0.00  0.00    -0.343 N 
ATOM     14  H   UNL     1       2.320  -0.757   3.579  0.00  0.00    +0.167 HD
ENDROOT
BRANCH   9  15
ATOM     15  N   UNL     1       4.589  -0.835   4.736  0.00  0.00    -0.322 N 
ATOM     16  C   UNL     1       4.429   0.625   4.771  0.00  0.00    +0.130 C 
ATOM     17  C   UNL     1       3.736  -1.483   5.741  0.00  0.00    +0.130 C 
ENDBRANCH   9  15
BRANCH   1  18
ATOM     18  C   UNL     1       6.747  -2.026   3.335  0.00  0.00    +0.146 C 
BRANCH  18  21
ATOM     19  C   UNL     1       7.643  -4.127   2.487  0.00  0.00    +0.254 C 
ATOM     20  O   UNL     1       8.441  -4.750   1.810  0.00  0.00    -0.269 OA
ATOM     21  N   UNL     1       7.617  -2.781   2.430  0.00  0.00    -0.294 N 
BRANCH  19  27
ATOM     22  C   UNL     1       7.597  -7.181   3.021  0.00  0.00    +0.045 C 
ATOM     23  C   UNL     1       6.638  -6.198   3.642  0.00  0.00    -0.031 A 
ATOM     24  C   UNL     1       5.658  -6.606   4.512  0.00  0.00    +0.011 A 
ATOM     25  C   UNL     1       4.813  -5.682   5.040  0.00  0.00    +0.046 A 
ATOM     26  S   UNL     1       5.366  -4.195   4.341  0.00  0.00    -0.092 S 
ATOM     27  C   UNL     1       6.710  -4.842   3.362  0.00  0.00    +0.077 A 
ENDBRANCH  19  27
BRANCH  21  28
ATOM     28  C   UNL     1       8.460  -2.072   1.464  0.00  0.00    +0.090 C 
BRANCH  28  29
ATOM     29  C   UNL     1       9.857  -1.874   2.055  0.00  0.00    -0.060 C 
BRANCH  29  32
ATOM     30  C   UNL     1      10.211   0.335   1.129  0.00  0.00    -0.097 C 
ATOM     31  C   UNL     1      12.093  -1.147   1.476  0.00  0.00    -0.097 C 
ATOM     32  N   UNL     1      10.663  -1.072   1.110  0.00  0.00    +0.377 N 
ATOM     33  H   UNL     1      10.540  -1.449   0.163  0.00  0.00    -0.083 HD
ENDBRANCH  29  32
ENDBRANCH  28  29
ENDBRANCH  21  28
ENDBRANCH  18  21
ENDBRANCH   1  18
TORSDOF 7
