REMARK  Name = ZINC14653284
REMARK  10 active torsions:
REMARK  status: ('A' for Active; 'I' for Inactive)
REMARK    1  A    between atoms: C_1  and  C_2
REMARK    2  A    between atoms: C_2  and  C_3
REMARK    3  A    between atoms: C_3  and  O_4
REMARK    4  A    between atoms: O_4  and  C_5
REMARK    5  A    between atoms: C_10  and  C_11
REMARK    6  A    between atoms: N_13  and  C_14
REMARK    7  A    between atoms: C_14  and  N_16
REMARK    8  A    between atoms: N_16  and  C_17
REMARK    9  A    between atoms: C_19  and  N_24
REMARK   10  A    between atoms: C_22  and  O_23
REMARK                            x       y       z     vdW  Elec       q    Type
REMARK                         _______ _______ _______ _____ _____    ______ ____
ROOT
ATOM      1  C   UNL     1       1.257  -4.803  -1.165  0.00  0.00    +0.253 C 
ATOM      2  O   UNL     1       0.933  -4.273  -0.121  0.00  0.00    -0.270 OA
ATOM      3  N   UNL     1       1.082  -6.130  -1.330  0.00  0.00    -0.263 N 
ATOM      4  H   UNL     1       1.340  -6.553  -2.164  0.00  0.00    +0.157 HD
ENDROOT
BRANCH   1  10
ATOM      5  C   UNL     1       2.026  -2.617  -2.085  0.00  0.00    +0.133 A 
ATOM      6  C   UNL     1       2.582  -1.868  -3.111  0.00  0.00    +0.047 A 
ATOM      7  C   UNL     1       2.947  -2.479  -4.294  0.00  0.00    +0.019 A 
ATOM      8  C   UNL     1       2.762  -3.842  -4.466  0.00  0.00    +0.019 A 
ATOM      9  C   UNL     1       2.210  -4.601  -3.457  0.00  0.00    +0.032 A 
ATOM     10  C   UNL     1       1.842  -3.996  -2.252  0.00  0.00    +0.080 A 
ATOM     11 BR   UNL     1       3.268  -4.663  -6.093  0.00  0.00    -0.050 Br
BRANCH   5  12
ATOM     12  O   UNL     1       1.667  -2.018  -0.922  0.00  0.00    -0.491 OA
BRANCH  12  13
ATOM     13  C   UNL     1       1.884  -0.609  -0.824  0.00  0.00    +0.229 C 
BRANCH  13  15
ATOM     14  C   UNL     1       1.655   1.393   0.654  0.00  0.00    +0.007 C 
ATOM     15  C   UNL     1       1.422  -0.116   0.549  0.00  0.00    +0.038 C 
ENDBRANCH  13  15
ENDBRANCH  12  13
ENDBRANCH   5  12
ENDBRANCH   1  10
BRANCH   3  16
ATOM     16  C   UNL     1       0.547  -6.867  -0.337  0.00  0.00    +0.141 C 
ATOM     17  S   UNL     1       0.091  -6.120   1.134  0.00  0.00    -0.018 S 
BRANCH  16  18
ATOM     18  N   UNL     1       0.372  -8.194  -0.502  0.00  0.00    -0.294 N 
ATOM     19  H   UNL     1       0.572  -8.607  -1.356  0.00  0.00    +0.154 HD
BRANCH  18  20
ATOM     20  C   UNL     1      -0.099  -8.975   0.561  0.00  0.00    +0.077 A 
ATOM     21  C   UNL     1      -1.197  -8.558   1.298  0.00  0.00    +0.059 A 
ATOM     22  C   UNL     1      -1.660  -9.331   2.346  0.00  0.00    +0.128 A 
ATOM     23  C   UNL     1      -1.030 -10.521   2.663  0.00  0.00    +0.036 A 
ATOM     24  C   UNL     1       0.066 -10.943   1.933  0.00  0.00    +0.049 A 
ATOM     25  C   UNL     1       0.532 -10.177   0.877  0.00  0.00    +0.138 A 
BRANCH  22  26
ATOM     26  N   UNL     1      -2.833  -8.885   3.131  0.00  0.00    +0.056 N 
ATOM     27  O   UNL     1      -3.384  -7.845   2.856  0.00  0.00    -0.126 OA
ATOM     28  O   UNL     1      -3.238  -9.560   4.049  0.00  0.00    -0.126 OA
ENDBRANCH  22  26
BRANCH  25  29
ATOM     29  O   UNL     1       1.606 -10.594   0.155  0.00  0.00    -0.505 OA
ATOM     30  H   UNL     1       2.455 -10.286   0.499  0.00  0.00    +0.292 HD
ENDBRANCH  25  29
ENDBRANCH  18  20
ENDBRANCH  16  18
ENDBRANCH   3  16
TORSDOF 9
