REMARK  Name = ZINC14699521
REMARK  11 active torsions:
REMARK  status: ('A' for Active; 'I' for Inactive)
REMARK    1  A    between atoms: C_1  and  C_2
REMARK    2  A    between atoms: C_2  and  C_3
REMARK    3  A    between atoms: C_3  and  C_4
REMARK    4  A    between atoms: C_4  and  N_5
REMARK    5  A    between atoms: C_6  and  N_34
REMARK    6  A    between atoms: C_7  and  N_14
REMARK    7  A    between atoms: N_14  and  C_15
REMARK    8  A    between atoms: C_15  and  C_16
REMARK    9  A    between atoms: C_21  and  O_22
REMARK   10  A    between atoms: O_22  and  C_23
REMARK   11  A    between atoms: C_24  and  C_26
REMARK                            x       y       z     vdW  Elec       q    Type
REMARK                         _______ _______ _______ _____ _____    ______ ____
ROOT
ATOM      1  N   UNL     1      -3.260   0.521  -1.333  0.00  0.00    -0.256 N 
ATOM      2  C   UNL     1      -3.716  -0.490  -2.098  0.00  0.00    +0.253 C 
ATOM      3  O   UNL     1      -3.899  -1.589  -1.608  0.00  0.00    -0.270 OA
ENDROOT
BRANCH   1   6
ATOM      4  N   UNL     1      -3.949   3.710  -3.022  0.00  0.00    -0.280 N 
ATOM      5  C   UNL     1      -4.148   2.458  -2.487  0.00  0.00    +0.127 A 
ATOM      6  C   UNL     1      -3.089   1.805  -1.890  0.00  0.00    +0.140 A 
ATOM      7  C   UNL     1      -1.836   2.445  -1.842  0.00  0.00    +0.277 A 
ATOM      8  O   UNL     1      -0.884   1.893  -1.316  0.00  0.00    -0.266 OA
ATOM      9  N   UNL     1      -1.694   3.669  -2.386  0.00  0.00    -0.273 N 
ATOM     10  H   UNL     1      -0.802   4.121  -2.360  0.00  0.00    +0.173 HD
ATOM     11  C   UNL     1      -2.737   4.291  -2.964  0.00  0.00    +0.331 A 
ATOM     12  O   UNL     1      -2.582   5.398  -3.443  0.00  0.00    -0.246 OA
BRANCH   5  13
ATOM     13  N   UNL     1      -5.386   1.865  -2.547  0.00  0.00    -0.343 N 
ATOM     14  H   UNL     1      -5.540   1.017  -2.102  0.00  0.00    +0.144 HD
ATOM     15  H   UNL     1      -6.107   2.295  -3.034  0.00  0.00    +0.144 HD
ENDBRANCH   5  13
BRANCH   4  16
ATOM     16  C   UNL     1      -5.064   4.415  -3.659  0.00  0.00    +0.128 C 
BRANCH  16  17
ATOM     17  C   UNL     1      -5.799   5.257  -2.613  0.00  0.00    +0.021 C 
BRANCH  17  19
ATOM     18  C   UNL     1      -7.698   6.835  -2.233  0.00  0.00    +0.004 C 
ATOM     19  C   UNL     1      -6.963   5.993  -3.278  0.00  0.00    -0.002 C 
ENDBRANCH  17  19
ENDBRANCH  16  17
ENDBRANCH   4  16
ENDBRANCH   1   6
BRANCH   2  20
ATOM     20  C   UNL     1      -3.995  -0.265  -3.531  0.00  0.00    +0.057 A 
ATOM     21  C   UNL     1      -3.359   0.773  -4.215  0.00  0.00    +0.014 A 
ATOM     22  C   UNL     1      -3.623   0.979  -5.552  0.00  0.00    +0.002 A 
ATOM     23  C   UNL     1      -4.517   0.160  -6.219  0.00  0.00    +0.021 A 
ATOM     24  C   UNL     1      -5.152  -0.871  -5.550  0.00  0.00    +0.060 A 
ATOM     25  C   UNL     1      -4.892  -1.093  -4.210  0.00  0.00    +0.071 A 
ATOM     26 CL   UNL     1      -5.684  -2.391  -3.373  0.00  0.00    -0.081 Cl
ATOM     27 CL   UNL     1      -6.272  -1.893  -6.396  0.00  0.00    -0.082 Cl
ENDBRANCH   2  20
BRANCH   1  28
ATOM     28  C   UNL     1      -2.943   0.287   0.078  0.00  0.00    +0.153 C 
BRANCH  28  29
ATOM     29  C   UNL     1      -4.119   0.686   0.931  0.00  0.00    +0.012 A 
ATOM     30  C   UNL     1      -4.147   1.930   1.532  0.00  0.00    +0.009 A 
ATOM     31  C   UNL     1      -5.226   2.296   2.314  0.00  0.00    +0.001 A 
ATOM     32  C   UNL     1      -6.280   1.420   2.498  0.00  0.00    +0.004 A 
ATOM     33  C   UNL     1      -6.259   0.177   1.895  0.00  0.00    +0.046 A 
ATOM     34  C   UNL     1      -5.175  -0.195   1.114  0.00  0.00    +0.125 A 
BRANCH  34  35
ATOM     35  O   UNL     1      -5.149  -1.419   0.524  0.00  0.00    -0.495 OA
ATOM     36  C   UNL     1      -6.270  -2.275   0.756  0.00  0.00    +0.277 C 
ENDBRANCH  34  35
ENDBRANCH  28  29
ENDBRANCH   1  28
TORSDOF 9
