REMARK  Name = ZINC21225871
REMARK  9 active torsions:
REMARK  status: ('A' for Active; 'I' for Inactive)
REMARK    1  A    between atoms: C_1  and  C_2
REMARK    2  A    between atoms: C_2  and  O_3
REMARK    3  A    between atoms: O_3  and  C_4
REMARK    4  A    between atoms: C_7  and  C_11
REMARK    5  A    between atoms: C_16  and  C_21
REMARK    6  A    between atoms: C_24  and  O_27
REMARK    7  A    between atoms: O_27  and  C_28
REMARK    8  A    between atoms: C_28  and  C_29
REMARK    9  A    between atoms: C_28  and  C_30
REMARK                            x       y       z     vdW  Elec       q    Type
REMARK                         _______ _______ _______ _____ _____    ______ ____
ROOT
ATOM      1  C   UNL     1       2.357   3.063   0.141  0.00  0.00    +0.136 C 
ATOM      2  C   UNL     1       3.293   2.823  -1.021  0.00  0.00    +0.036 C 
ATOM      3  C   UNL     1       3.108   1.934  -2.010  0.00  0.00    +0.017 C 
ATOM      4  C   UNL     1       4.160   1.766  -3.095  0.00  0.00    +0.059 C 
ATOM      5  C   UNL     1       4.831   3.110  -3.378  0.00  0.00    +0.032 C 
ATOM      6  C   UNL     1       5.490   3.584  -2.077  0.00  0.00    +0.088 C 
ATOM      7  C   UNL     1       4.445   3.643  -1.004  0.00  0.00    +0.163 C 
ATOM      8  O   UNL     1       4.594   4.424  -0.085  0.00  0.00    -0.292 OA
ATOM      9  N   UNL     1       2.029   1.121  -2.141  0.00  0.00    -0.316 N 
ATOM     10  C   UNL     1       1.481   0.359  -1.114  0.00  0.00    +0.052 A 
ATOM     11  C   UNL     1       1.439  -1.023  -1.157  0.00  0.00    +0.025 A 
ATOM     12  C   UNL     1       0.809  -1.715  -0.137  0.00  0.00    +0.002 A 
ATOM     13  C   UNL     1       0.229  -1.030   0.914  0.00  0.00    +0.002 A 
ATOM     14  C   UNL     1       0.290   0.352   0.970  0.00  0.00    +0.025 A 
ATOM     15  C   UNL     1       0.936   1.048  -0.040  0.00  0.00    +0.049 A 
ATOM     16  N   UNL     1       1.061   2.434   0.001  0.00  0.00    -0.331 N 
ATOM     17  H   UNL     1       1.524   1.030  -3.114  0.00  0.00    +0.152 HD
ATOM     18  H   UNL     1       0.155   3.052  -0.074  0.00  0.00    +0.147 HD
ENDROOT
BRANCH   1  22
ATOM     19  C   UNL     1       4.208   1.584   3.699  0.00  0.00    +0.139 A 
ATOM     20  C   UNL     1       3.850   0.707   2.686  0.00  0.00    +0.047 A 
ATOM     21  C   UNL     1       3.251   1.188   1.537  0.00  0.00    +0.009 A 
ATOM     22  C   UNL     1       3.009   2.542   1.396  0.00  0.00    -0.021 A 
ATOM     23  C   UNL     1       3.370   3.419   2.402  0.00  0.00    +0.029 A 
ATOM     24  C   UNL     1       3.964   2.943   3.556  0.00  0.00    +0.083 A 
ATOM     25 CL   UNL     1       4.409   4.044   4.822  0.00  0.00    -0.080 Cl
BRANCH  19  26
ATOM     26  O   UNL     1       4.797   1.113   4.830  0.00  0.00    -0.491 OA
BRANCH  26  28
ATOM     27  C   UNL     1       5.685  -0.635   6.243  0.00  0.00    +0.048 C 
ATOM     28  C   UNL     1       5.018  -0.296   4.908  0.00  0.00    +0.226 C 
ENDBRANCH  26  28
ENDBRANCH  19  26
ENDBRANCH   1  22
BRANCH   5  29
ATOM     29  C   UNL     1       5.878   2.943  -4.449  0.00  0.00    -0.043 A 
ATOM     30  C   UNL     1       6.923   2.057  -4.261  0.00  0.00    +0.007 A 
ATOM     31  C   UNL     1       7.880   1.898  -5.244  0.00  0.00    +0.046 A 
ATOM     32  C   UNL     1       7.799   2.636  -6.416  0.00  0.00    +0.121 A 
ATOM     33  C   UNL     1       6.752   3.529  -6.600  0.00  0.00    +0.046 A 
ATOM     34  C   UNL     1       5.794   3.680  -5.616  0.00  0.00    +0.007 A 
BRANCH  32  35
ATOM     35  O   UNL     1       8.742   2.485  -7.383  0.00  0.00    -0.489 OA
BRANCH  35  36
ATOM     36  C   UNL     1       8.533   3.188  -8.609  0.00  0.00    +0.167 C 
ATOM     37  C   UNL     1       9.078   4.612  -8.480  0.00  0.00    +0.051 C 
ATOM     38  C   UNL     1       9.262   2.464  -9.743  0.00  0.00    +0.051 C 
ENDBRANCH  35  36
ENDBRANCH  32  35
ENDBRANCH   5  29
TORSDOF 6
