REMARK  Name = ZINC39557942
REMARK  7 active torsions:
REMARK  status: ('A' for Active; 'I' for Inactive)
REMARK    1  A    between atoms: C_1  and  C_2
REMARK    2  A    between atoms: C_4  and  C_9
REMARK    3  A    between atoms: C_5  and  C_8
REMARK    4  A    between atoms: C_9  and  C_11
REMARK    5  A    between atoms: C_9  and  N_12
REMARK    6  A    between atoms: C_13  and  C_15
REMARK    7  A    between atoms: C_22  and  C_25
REMARK                            x       y       z     vdW  Elec       q    Type
REMARK                         _______ _______ _______ _____ _____    ______ ____
ROOT
ATOM      1  C   UNL     1      -3.424  -1.168  -3.457  0.00  0.00    +0.039 A 
ATOM      2  C   UNL     1      -4.022  -1.077  -2.198  0.00  0.00    +0.017 A 
ATOM      3  C   UNL     1      -5.370  -1.322  -2.055  0.00  0.00    +0.048 A 
ATOM      4  C   UNL     1      -6.146  -1.661  -3.160  0.00  0.00    +0.144 A 
ATOM      5  C   UNL     1      -5.553  -1.752  -4.418  0.00  0.00    +0.073 A 
ATOM      6  C   UNL     1      -4.200  -1.501  -4.570  0.00  0.00    +0.039 A 
ATOM      7  N   UNL     1      -6.534  -2.104  -5.357  0.00  0.00    -0.303 N 
ATOM      8  C   UNL     1      -7.792  -2.231  -4.609  0.00  0.00    +0.292 C 
ATOM      9  O   UNL     1      -7.472  -1.941  -3.246  0.00  0.00    -0.465 OA
ATOM     10  H   UNL     1      -6.407  -2.237  -6.310  0.00  0.00    +0.150 HD
ENDROOT
BRANCH   8  11
ATOM     11  C   UNL     1      -8.806  -1.244  -5.128  0.00  0.00    +0.014 A 
ATOM     12  C   UNL     1      -8.386  -0.043  -5.669  0.00  0.00    +0.009 A 
ATOM     13  C   UNL     1      -9.315   0.864  -6.145  0.00  0.00    +0.003 A 
ATOM     14  C   UNL     1     -10.664   0.570  -6.080  0.00  0.00    +0.038 A 
ATOM     15  C   UNL     1     -11.085  -0.632  -5.538  0.00  0.00    +0.124 A 
ATOM     16  C   UNL     1     -10.153  -1.542  -5.067  0.00  0.00    +0.047 A 
ATOM     17  F   UNL     1     -12.403  -0.919  -5.473  0.00  0.00    -0.205 F 
ENDBRANCH   8  11
BRANCH   1  19
ATOM     18  N   UNL     1      -1.234  -0.585  -2.537  0.00  0.00    -0.305 N 
ATOM     19  C   UNL     1      -1.980  -0.906  -3.613  0.00  0.00    +0.245 C 
ATOM     20  O   UNL     1      -1.463  -0.981  -4.711  0.00  0.00    -0.270 OA
ATOM     21  H   UNL     1      -1.646  -0.525  -1.661  0.00  0.00    +0.150 HD
BRANCH  18  22
ATOM     22  C   UNL     1       0.200  -0.325  -2.692  0.00  0.00    +0.100 C 
ATOM     23  C   UNL     1       0.413   1.136  -3.093  0.00  0.00    +0.033 C 
BRANCH  22  26
ATOM     24  C   UNL     1       0.716   1.492  -0.008  0.00  0.00    +0.039 C 
ATOM     25  C   UNL     1       0.576  -0.031  -0.014  0.00  0.00    +0.154 C 
ATOM     26  C   UNL     1       0.902  -0.595  -1.386  0.00  0.00    -0.001 C 
ATOM     27  C   UNL     1       1.956  -1.384  -1.167  0.00  0.00    +0.063 C 
ATOM     28  N   UNL     1       2.302  -1.371   0.140  0.00  0.00    -0.159 NA
ATOM     29  N   UNL     1       1.592  -0.651   0.853  0.00  0.00    -0.180 NA
ATOM     30  C   UNL     1       2.663  -2.183  -2.231  0.00  0.00    +0.067 C 
ENDBRANCH  22  26
ENDBRANCH  18  22
ENDBRANCH   1  19
TORSDOF 4
