REMARK  Name = ZINC20086816
REMARK  7 active torsions:
REMARK  status: ('A' for Active; 'I' for Inactive)
REMARK    1  A    between atoms: C_1  and  C_2
REMARK    2  A    between atoms: N_8  and  C_9
REMARK    3  A    between atoms: C_10  and  C_18
REMARK    4  A    between atoms: C_12  and  C_16
REMARK    5  A    between atoms: C_13  and  N_15
REMARK    6  A    between atoms: C_21  and  O_24
REMARK    7  A    between atoms: O_24  and  C_25
REMARK                            x       y       z     vdW  Elec       q    Type
REMARK                         _______ _______ _______ _____ _____    ______ ____
ROOT
ATOM      1  C   UNL     1       5.329   3.638  -0.052  0.00  0.00    +0.064 C 
ATOM      2  C   UNL     1       3.936   3.064  -0.032  0.00  0.00    +0.022 A 
ATOM      3  C   UNL     1       3.756   1.766   0.297  0.00  0.00    +0.068 A 
ATOM      4  C   UNL     1       2.454   1.224   0.318  0.00  0.00    +0.141 A 
ATOM      5  C   UNL     1       1.387   2.036  -0.000  0.00  0.00    +0.072 A 
ATOM      6  C   UNL     1       1.622   3.376  -0.336  0.00  0.00    +0.259 A 
ATOM      7  O   UNL     1       0.686   4.107  -0.620  0.00  0.00    -0.267 OA
ATOM      8  N   UNL     1       2.879   3.858  -0.344  0.00  0.00    -0.315 N 
ATOM      9  C   UNL     1       3.110   5.261  -0.696  0.00  0.00    +0.152 C 
ATOM     10  C   UNL     1      -0.018   1.499   0.010  0.00  0.00    +0.103 C 
ATOM     11  C   UNL     1       0.002  -0.004   0.002  0.00  0.00    +0.098 C 
ATOM     12  C   UNL     1       1.125  -0.693   0.316  0.00  0.00    +0.199 C 
ATOM     13  O   UNL     1       2.270  -0.072   0.647  0.00  0.00    -0.441 OA
ENDROOT
BRANCH  10  14
ATOM     14  C   UNL     1      -0.729   1.982   1.248  0.00  0.00    -0.034 A 
ATOM     15  C   UNL     1      -0.246   1.641   2.498  0.00  0.00    +0.008 A 
ATOM     16  C   UNL     1      -0.892   2.087   3.635  0.00  0.00    +0.046 A 
ATOM     17  C   UNL     1      -2.033   2.869   3.522  0.00  0.00    +0.130 A 
ATOM     18  C   UNL     1      -2.518   3.205   2.266  0.00  0.00    +0.046 A 
ATOM     19  C   UNL     1      -1.865   2.762   1.133  0.00  0.00    +0.008 A 
BRANCH  17  20
ATOM     20  O   UNL     1      -2.674   3.304   4.638  0.00  0.00    -0.406 OA
BRANCH  20  21
ATOM     21  C   UNL     1      -2.118   2.919   5.897  0.00  0.00    +0.575 C 
ATOM     22  F   UNL     1      -0.811   3.409   5.999  0.00  0.00    -0.133 F 
ATOM     23  F   UNL     1      -2.896   3.448   6.932  0.00  0.00    -0.133 F 
ATOM     24  F   UNL     1      -2.101   1.523   5.992  0.00  0.00    -0.133 F 
ENDBRANCH  20  21
ENDBRANCH  17  20
ENDBRANCH  10  14
BRANCH  12  25
ATOM     25  N   UNL     1       1.092  -2.065   0.295  0.00  0.00    -0.328 N 
ATOM     26  H   UNL     1       1.995  -2.640   0.547  0.00  0.00    +0.145 HD
ATOM     27  H   UNL     1       0.163  -2.589   0.026  0.00  0.00    +0.145 HD
ENDBRANCH  12  25
BRANCH  11  28
ATOM     28  C   UNL     1      -1.188  -0.721  -0.344  0.00  0.00    +0.101 C 
ATOM     29  N   UNL     1      -2.133  -1.290  -0.618  0.00  0.00    -0.191 NA
ENDBRANCH  11  28
TORSDOF 5
