REMARK  Name = ZINC36146502
REMARK  10 active torsions:
REMARK  status: ('A' for Active; 'I' for Inactive)
REMARK    1  A    between atoms: C_4  and  C_7
REMARK    2  A    between atoms: C_7  and  C_8
REMARK    3  A    between atoms: C_8  and  C_10
REMARK    4  A    between atoms: C_8  and  O_36
REMARK    5  A    between atoms: C_10  and  N_11
REMARK    6  A    between atoms: N_11  and  C_12
REMARK    7  A    between atoms: N_11  and  C_20
REMARK    8  A    between atoms: C_12  and  C_13
REMARK    9  A    between atoms: C_20  and  C_21
REMARK   10  A    between atoms: C_24  and  C_27
REMARK                            x       y       z     vdW  Elec       q    Type
REMARK                         _______ _______ _______ _____ _____    ______ ____
ROOT
ATOM      1  N   UNL     1       5.669  -1.883   2.725  0.00  0.00    +0.386 N 
ATOM      2  H   UNL     1       4.920  -2.421   3.135  0.00  0.00    -0.081 HD
ENDROOT
BRANCH   1   3
ATOM      3  C   UNL     1       5.304  -1.500   1.355  0.00  0.00    -0.046 C 
BRANCH   3   4
ATOM      4  C   UNL     1       3.864  -0.982   1.336  0.00  0.00    +0.102 C 
BRANCH   4   5
ATOM      5  O   UNL     1       3.792   0.251   2.054  0.00  0.00    -0.393 OA
ATOM      6  H   UNL     1       4.247   0.986   1.621  0.00  0.00    +0.210 HD
ENDBRANCH   4   5
BRANCH   4   7
ATOM      7  C   UNL     1       3.422  -0.756  -0.111  0.00  0.00    +0.064 C 
BRANCH   7  11
ATOM      8  C   UNL     1      -0.702   0.354  -0.186  0.00  0.00    +0.000 A 
ATOM      9  C   UNL     1       0.275   1.328  -0.087  0.00  0.00    +0.000 A 
ATOM     10  C   UNL     1       1.609   0.969  -0.063  0.00  0.00    +0.004 A 
ATOM     11  C   UNL     1       1.968  -0.364  -0.137  0.00  0.00    -0.045 A 
ATOM     12  C   UNL     1       0.991  -1.338  -0.235  0.00  0.00    +0.004 A 
ATOM     13  C   UNL     1      -0.343  -0.979  -0.261  0.00  0.00    +0.000 A 
ENDBRANCH   7  11
ENDBRANCH   4   7
ENDBRANCH   3   4
ENDBRANCH   1   3
BRANCH   1  14
ATOM     14  C   UNL     1       5.898  -0.673   3.527  0.00  0.00    -0.043 C 
BRANCH  14  15
ATOM     15  C   UNL     1       7.085   0.076   2.978  0.00  0.00    -0.064 A 
ATOM     16  C   UNL     1       8.353  -0.191   3.459  0.00  0.00    +0.004 A 
ATOM     17  C   UNL     1       9.442   0.495   2.956  0.00  0.00    +0.038 A 
ATOM     18  C   UNL     1       9.263   1.450   1.970  0.00  0.00    +0.123 A 
ATOM     19  C   UNL     1       7.992   1.716   1.488  0.00  0.00    +0.038 A 
ATOM     20  C   UNL     1       6.905   1.025   1.989  0.00  0.00    +0.004 A 
ATOM     21  F   UNL     1      10.327   2.122   1.477  0.00  0.00    -0.205 F 
ENDBRANCH  14  15
ENDBRANCH   1  14
BRANCH   1  22
ATOM     22  C   UNL     1       6.895  -2.692   2.698  0.00  0.00    -0.030 C 
BRANCH  22  23
ATOM     23  C   UNL     1       7.206  -3.195   4.109  0.00  0.00    +0.194 C 
ATOM     24  C   UNL     1       8.519  -4.013   4.128  0.00  0.00    +0.104 C 
ATOM     25  C   UNL     1       8.204  -5.118   5.119  0.00  0.00    +0.091 C 
ATOM     26  N   UNL     1       6.925  -5.149   5.297  0.00  0.00    -0.089 NA
ATOM     27  O   UNL     1       6.239  -4.178   4.531  0.00  0.00    -0.392 OA
BRANCH  25  28
ATOM     28  C   UNL     1       9.189  -6.004   5.767  0.00  0.00    +0.003 A 
ATOM     29  C   UNL     1      10.551  -5.860   5.489  0.00  0.00    +0.013 A 
ATOM     30  C   UNL     1      11.470  -6.689   6.096  0.00  0.00    +0.050 A 
ATOM     31  C   UNL     1      11.047  -7.669   6.983  0.00  0.00    +0.166 A 
ATOM     32  C   UNL     1       9.690  -7.819   7.265  0.00  0.00    +0.167 A 
ATOM     33  C   UNL     1       8.764  -6.986   6.664  0.00  0.00    +0.059 A 
ATOM     34  O   UNL     1       9.540  -8.841   8.158  0.00  0.00    -0.453 OA
ATOM     35  C   UNL     1      10.774  -9.580   8.106  0.00  0.00    +0.466 C 
ATOM     36  O   UNL     1      11.745  -8.597   7.700  0.00  0.00    -0.453 OA
ENDBRANCH  25  28
ENDBRANCH  22  23
ENDBRANCH   1  22
TORSDOF 10
