REMARK  Name = ZINC03373074
REMARK  10 active torsions:
REMARK  status: ('A' for Active; 'I' for Inactive)
REMARK    1  A    between atoms: C_1  and  N_2
REMARK    2  A    between atoms: C_3  and  N_36
REMARK    3  A    between atoms: C_4  and  C_11
REMARK    4  A    between atoms: N_7  and  C_10
REMARK    5  A    between atoms: C_11  and  C_13
REMARK    6  A    between atoms: C_13  and  S_14
REMARK    7  A    between atoms: S_14  and  C_15
REMARK    8  A    between atoms: N_27  and  C_28
REMARK    9  A    between atoms: C_28  and  C_29
REMARK   10  A    between atoms: C_29  and  C_30
REMARK                            x       y       z     vdW  Elec       q    Type
REMARK                         _______ _______ _______ _____ _____    ______ ____
ROOT
ATOM      1  C   UNL     1       1.221  -4.702  -0.481  0.00  0.00    +0.173 A 
ATOM      2  N   UNL     1       0.141  -4.019  -0.159  0.00  0.00    -0.216 NA
ATOM      3  C   UNL     1       0.144  -2.691  -0.190  0.00  0.00    +0.117 A 
ATOM      4  C   UNL     1       1.279  -1.956  -0.563  0.00  0.00    +0.076 A 
ATOM      5  C   UNL     1       1.132  -0.491  -0.552  0.00  0.00    -0.023 A 
ATOM      6  C   UNL     1      -0.064  -0.004  -0.184  0.00  0.00    -0.004 A 
ATOM      7  S   UNL     1      -1.060  -1.436   0.159  0.00  0.00    -0.073 S 
ATOM      8  C   UNL     1      -0.095   1.501  -0.206  0.00  0.00    +0.043 C 
ATOM      9  C   UNL     1       1.392   1.919  -0.229  0.00  0.00    +0.010 C 
ATOM     10  C   UNL     1       2.054   0.687  -0.876  0.00  0.00    +0.037 C 
ATOM     11  C   UNL     1       2.437  -2.722  -0.908  0.00  0.00    +0.263 A 
ATOM     12  O   UNL     1       3.468  -2.166  -1.244  0.00  0.00    -0.267 OA
ATOM     13  N   UNL     1       2.369  -4.065  -0.856  0.00  0.00    -0.287 N 
ENDROOT
BRANCH   1  14
ATOM     14  S   UNL     1       1.183  -6.463  -0.428  0.00  0.00    -0.080 S 
BRANCH  14  15
ATOM     15  C   UNL     1      -0.525  -6.724   0.112  0.00  0.00    +0.157 C 
BRANCH  15  16
ATOM     16  C   UNL     1      -0.794  -8.202   0.231  0.00  0.00    +0.182 C 
ATOM     17  O   UNL     1       0.084  -9.001  -0.025  0.00  0.00    -0.291 OA
BRANCH  16  21
ATOM     18  C   UNL     1      -3.958 -11.845   1.059  0.00  0.00    +0.155 C 
ATOM     19  N   UNL     1      -3.622 -10.419   1.050  0.00  0.00    -0.284 N 
ATOM     20  C   UNL     1      -2.380 -10.027   0.640  0.00  0.00    +0.116 A 
ATOM     21  C   UNL     1      -2.066  -8.657   0.639  0.00  0.00    +0.120 A 
ATOM     22  C   UNL     1      -3.105  -7.714   1.071  0.00  0.00    +0.269 A 
ATOM     23  O   UNL     1      -2.890  -6.516   1.085  0.00  0.00    -0.267 OA
ATOM     24  N   UNL     1      -4.303  -8.203   1.452  0.00  0.00    -0.263 N 
ATOM     25  C   UNL     1      -4.544  -9.524   1.437  0.00  0.00    +0.333 A 
ATOM     26  O   UNL     1      -5.637  -9.924   1.788  0.00  0.00    -0.246 OA
ATOM     27  C   UNL     1      -5.356  -7.281   1.887  0.00  0.00    +0.157 C 
BRANCH  20  28
ATOM     28  N   UNL     1      -1.459 -10.948   0.245  0.00  0.00    -0.344 N 
ATOM     29  H   UNL     1      -0.554 -10.669   0.037  0.00  0.00    +0.144 HD
ATOM     30  H   UNL     1      -1.708 -11.882   0.172  0.00  0.00    +0.144 HD
ENDBRANCH  20  28
ENDBRANCH  16  21
ENDBRANCH  15  16
ENDBRANCH  14  15
ENDBRANCH   1  14
BRANCH  13  31
ATOM     31  C   UNL     1       3.550  -4.859  -1.206  0.00  0.00    +0.132 C 
BRANCH  31  32
ATOM     32  C   UNL     1       4.391  -5.103   0.048  0.00  0.00    +0.057 C 
BRANCH  32  33
ATOM     33  C   UNL     1       5.605  -5.919  -0.312  0.00  0.00    -0.046 A 
ATOM     34  C   UNL     1       5.552  -7.299  -0.257  0.00  0.00    +0.004 A 
ATOM     35  C   UNL     1       6.664  -8.048  -0.593  0.00  0.00    +0.000 A 
ATOM     36  C   UNL     1       7.833  -7.416  -0.973  0.00  0.00    +0.000 A 
ATOM     37  C   UNL     1       7.889  -6.036  -1.023  0.00  0.00    +0.000 A 
ATOM     38  C   UNL     1       6.775  -5.287  -0.692  0.00  0.00    +0.004 A 
ENDBRANCH  32  33
ENDBRANCH  31  32
ENDBRANCH  13  31
TORSDOF 8
