REMARK  Name = ZINC40986276
REMARK  12 active torsions:
REMARK  status: ('A' for Active; 'I' for Inactive)
REMARK    1  A    between atoms: C_1  and  C_2
REMARK    2  A    between atoms: C_2  and  C_3
REMARK    3  A    between atoms: C_3  and  C_4
REMARK    4  A    between atoms: C_4  and  S_5
REMARK    5  A    between atoms: S_5  and  C_8
REMARK    6  A    between atoms: C_11  and  C_15
REMARK    7  A    between atoms: N_17  and  C_18
REMARK    8  A    between atoms: C_18  and  C_19
REMARK    9  A    between atoms: C_19  and  C_21
REMARK   10  A    between atoms: C_19  and  N_29
REMARK   11  A    between atoms: C_24  and  C_27
REMARK   12  A    between atoms: C_27  and  C_28
REMARK                            x       y       z     vdW  Elec       q    Type
REMARK                         _______ _______ _______ _____ _____    ______ ____
ROOT
ATOM      1  C   UNL     1      -3.624 -11.181   0.840  0.00  0.00    +0.248 C 
ATOM      2  O   UNL     1      -2.765 -10.615   1.489  0.00  0.00    -0.270 OA
ATOM      3  N   UNL     1      -3.462 -11.353  -0.487  0.00  0.00    -0.312 N 
ATOM      4  H   UNL     1      -4.146 -11.805  -1.004  0.00  0.00    +0.149 HD
ENDROOT
BRANCH   1   8
ATOM      5  C   UNL     1      -7.059 -12.584   2.714  0.00  0.00    +0.272 A 
ATOM      6  N   UNL     1      -6.921 -12.763   1.414  0.00  0.00    -0.219 NA
ATOM      7  C   UNL     1      -5.845 -12.333   0.778  0.00  0.00    +0.130 A 
ATOM      8  C   UNL     1      -4.845 -11.679   1.506  0.00  0.00    +0.092 A 
ATOM      9  C   UNL     1      -5.034 -11.511   2.884  0.00  0.00    +0.146 A 
ATOM     10  N   UNL     1      -6.145 -11.969   3.438  0.00  0.00    -0.199 NA
ATOM     11 CL   UNL     1      -3.833 -10.709   3.848  0.00  0.00    -0.061 Cl
BRANCH   5  12
ATOM     12  S   UNL     1      -8.516 -13.179   3.506  0.00  0.00    +0.032 S 
ATOM     13  O   UNL     1      -8.130 -13.402   4.856  0.00  0.00    -0.166 OA
ATOM     14  O   UNL     1      -8.957 -14.256   2.692  0.00  0.00    -0.166 OA
BRANCH  12  15
ATOM     15  C   UNL     1      -9.693 -11.802   3.413  0.00  0.00    +0.175 C 
BRANCH  15  16
ATOM     16  C   UNL     1     -11.009 -12.210   4.078  0.00  0.00    +0.023 C 
BRANCH  16  18
ATOM     17  C   UNL     1     -13.318 -11.457   4.664  0.00  0.00    +0.004 C 
ATOM     18  C   UNL     1     -12.002 -11.049   3.999  0.00  0.00    -0.002 C 
ENDBRANCH  16  18
ENDBRANCH  15  16
ENDBRANCH  12  15
ENDBRANCH   5  12
ENDBRANCH   1   8
BRANCH   3  19
ATOM     19  C   UNL     1      -2.251 -10.859  -1.147  0.00  0.00    +0.094 C 
BRANCH  19  20
ATOM     20  C   UNL     1      -2.254 -11.298  -2.613  0.00  0.00    -0.020 C 
BRANCH  20  21
ATOM     21  C   UNL     1      -2.151 -12.800  -2.688  0.00  0.00    -0.059 A 
ATOM     22  C   UNL     1      -0.924 -13.417  -2.536  0.00  0.00    +0.002 A 
ATOM     23  C   UNL     1      -0.830 -14.794  -2.604  0.00  0.00    +0.004 A 
ATOM     24  C   UNL     1      -1.963 -15.554  -2.825  0.00  0.00    -0.048 A 
ATOM     25  C   UNL     1      -3.191 -14.937  -2.976  0.00  0.00    +0.004 A 
ATOM     26  C   UNL     1      -3.285 -13.560  -2.903  0.00  0.00    +0.002 A 
BRANCH  24  27
ATOM     27  C   UNL     1      -1.860 -17.056  -2.901  0.00  0.00    +0.032 C 
ATOM     28  C   UNL     1      -2.044 -17.651  -1.503  0.00  0.00    +0.009 C 
ENDBRANCH  24  27
ENDBRANCH  20  21
BRANCH  20  29
ATOM     29  N   UNL     1      -1.109 -10.694  -3.307  0.00  0.00    +0.385 N 
ATOM     30  C   UNL     1      -1.105 -11.098  -4.737  0.00  0.00    -0.078 C 
ATOM     31  C   UNL     1      -0.254  -9.995  -5.415  0.00  0.00    -0.020 C 
ATOM     32  C   UNL     1      -0.669  -8.718  -4.649  0.00  0.00    -0.020 C 
ATOM     33  C   UNL     1      -1.232  -9.220  -3.306  0.00  0.00    -0.078 C 
ATOM     34  H   UNL     1      -0.246 -10.972  -2.864  0.00  0.00    -0.081 HD
ENDBRANCH  20  29
ENDBRANCH  19  20
ENDBRANCH   3  19
TORSDOF 10
