REMARK  Name = ZINC59116598
REMARK  11 active torsions:
REMARK  status: ('A' for Active; 'I' for Inactive)
REMARK    1  A    between atoms: C_1  and  C_2
REMARK    2  A    between atoms: C_3  and  C_14
REMARK    3  A    between atoms: C_4  and  O_13
REMARK    4  A    between atoms: N_5  and  C_7
REMARK    5  A    between atoms: C_14  and  C_15
REMARK    6  A    between atoms: C_14  and  C_26
REMARK    7  A    between atoms: C_20  and  O_21
REMARK    8  A    between atoms: O_21  and  C_22
REMARK    9  A    between atoms: C_22  and  C_23
REMARK   10  A    between atoms: C_27  and  C_38
REMARK   11  A    between atoms: N_29  and  C_32
REMARK                            x       y       z     vdW  Elec       q    Type
REMARK                         _______ _______ _______ _____ _____    ______ ____
ROOT
ATOM      1  C   UNL     1      -0.030  -0.360  -2.442  0.00  0.00    +0.097 C 
ENDROOT
BRANCH   1   2
ATOM      2  C   UNL     1       1.284  -0.684  -3.104  0.00  0.00    +0.051 A 
ATOM      3  C   UNL     1       2.094   0.194  -3.730  0.00  0.00    +0.039 A 
ATOM      4  N   UNL     1       3.185  -0.482  -4.197  0.00  0.00    -0.294 N 
ATOM      5  N   UNL     1       3.047  -1.831  -3.848  0.00  0.00    -0.219 N 
ATOM      6  C   UNL     1       1.887  -1.962  -3.172  0.00  0.00    +0.276 A 
ATOM      7  O   UNL     1       1.438  -2.995  -2.708  0.00  0.00    -0.266 OA
ATOM      8  C   UNL     1       1.837   1.671  -3.888  0.00  0.00    +0.065 C 
ATOM      9  H   UNL     1       3.928  -0.094  -4.687  0.00  0.00    +0.187 HD
BRANCH   5  10
ATOM     10  C   UNL     1       3.951  -2.857  -4.141  0.00  0.00    +0.067 A 
ATOM     11  C   UNL     1       3.683  -4.158  -3.736  0.00  0.00    +0.028 A 
ATOM     12  C   UNL     1       4.578  -5.169  -4.027  0.00  0.00    +0.002 A 
ATOM     13  C   UNL     1       5.741  -4.886  -4.720  0.00  0.00    +0.000 A 
ATOM     14  C   UNL     1       6.011  -3.591  -5.124  0.00  0.00    +0.002 A 
ATOM     15  C   UNL     1       5.117  -2.577  -4.842  0.00  0.00    +0.028 A 
ENDBRANCH   5  10
ENDBRANCH   1   2
BRANCH   1  16
ATOM     16  C   UNL     1      -1.154  -0.998  -3.218  0.00  0.00    +0.008 A 
ATOM     17  C   UNL     1      -1.265  -2.374  -3.267  0.00  0.00    +0.028 A 
ATOM     18  C   UNL     1      -2.297  -2.961  -3.979  0.00  0.00    +0.041 A 
ATOM     19  C   UNL     1      -3.219  -2.170  -4.642  0.00  0.00    +0.023 A 
ATOM     20  C   UNL     1      -3.111  -0.794  -4.595  0.00  0.00    +0.047 A 
ATOM     21  C   UNL     1      -2.081  -0.204  -3.877  0.00  0.00    +0.126 A 
ATOM     22 CL   UNL     1      -2.434  -4.690  -4.040  0.00  0.00    -0.084 Cl
BRANCH  21  23
ATOM     23  O   UNL     1      -1.976   1.150  -3.825  0.00  0.00    -0.479 OA
BRANCH  23  24
ATOM     24  C   UNL     1      -2.966   1.905  -4.527  0.00  0.00    +0.317 C 
BRANCH  24  25
ATOM     25  C   UNL     1      -2.696   3.342  -4.361  0.00  0.00    -0.065 C 
ATOM     26  C   UNL     1      -2.481   4.489  -4.228  0.00  0.00    +0.007 C 
ENDBRANCH  24  25
ENDBRANCH  23  24
ENDBRANCH  21  23
ENDBRANCH   1  16
BRANCH   1  29
ATOM     27  C   UNL     1       2.471  -0.481  -0.505  0.00  0.00    +0.068 C 
ATOM     28  C   UNL     1       1.076  -0.946  -0.175  0.00  0.00    +0.068 A 
ATOM     29  C   UNL     1      -0.028  -0.891  -1.032  0.00  0.00    +0.049 A 
ATOM     30  C   UNL     1      -1.098  -1.403  -0.368  0.00  0.00    +0.220 A 
ATOM     31  N   UNL     1      -0.673  -1.766   0.872  0.00  0.00    -0.200 N 
ATOM     32  N   UNL     1       0.693  -1.473   0.960  0.00  0.00    -0.168 NA
BRANCH  31  33
ATOM     33  C   UNL     1      -1.462  -2.338   1.880  0.00  0.00    +0.069 A 
ATOM     34  C   UNL     1      -2.792  -1.964   2.019  0.00  0.00    +0.028 A 
ATOM     35  C   UNL     1      -3.566  -2.529   3.013  0.00  0.00    +0.002 A 
ATOM     36  C   UNL     1      -3.018  -3.467   3.869  0.00  0.00    +0.000 A 
ATOM     37  C   UNL     1      -1.694  -3.841   3.733  0.00  0.00    +0.002 A 
ATOM     38  C   UNL     1      -0.916  -3.284   2.737  0.00  0.00    +0.028 A 
ENDBRANCH  31  33
BRANCH  30  39
ATOM     39  O   UNL     1      -2.360  -1.527  -0.853  0.00  0.00    -0.492 OA
ATOM     40  H   UNL     1      -2.555  -2.399  -1.222  0.00  0.00    +0.294 HD
ENDBRANCH  30  39
ENDBRANCH   1  29
TORSDOF 9
