REMARK  Name = ZINC63383484
REMARK  12 active torsions:
REMARK  status: ('A' for Active; 'I' for Inactive)
REMARK    1  A    between atoms: C_1  and  C_2
REMARK    2  A    between atoms: C_2  and  C_3
REMARK    3  A    between atoms: C_3  and  C_5
REMARK    4  A    between atoms: C_3  and  C_6
REMARK    5  A    between atoms: C_6  and  C_8
REMARK    6  A    between atoms: C_6  and  N_16
REMARK    7  A    between atoms: N_10  and  C_11
REMARK    8  A    between atoms: C_11  and  C_12
REMARK    9  A    between atoms: C_12  and  C_13
REMARK   10  A    between atoms: C_13  and  C_14
REMARK   11  A    between atoms: C_13  and  C_15
REMARK   12  A    between atoms: C_17  and  C_19
REMARK                            x       y       z     vdW  Elec       q    Type
REMARK                         _______ _______ _______ _____ _____    ______ ____
ROOT
ATOM      1  C   UNL     1       4.704  -2.884   2.548  0.00  0.00    +0.167 C 
ATOM      2  C   UNL     1       6.040  -2.118   2.530  0.00  0.00    +0.065 C 
ATOM      3  C   UNL     1       7.065  -3.033   1.907  0.00  0.00    -0.034 C 
ATOM      4  C   UNL     1       8.269  -3.400   2.336  0.00  0.00    -0.001 A 
ATOM      5  C   UNL     1       9.060  -2.981   3.504  0.00  0.00    +0.010 A 
ATOM      6  C   UNL     1      10.270  -3.582   3.655  0.00  0.00    +0.001 A 
ATOM      7  C   UNL     1      10.766  -4.545   2.772  0.00  0.00    +0.002 A 
ATOM      8  C   UNL     1      10.110  -4.985   1.668  0.00  0.00    +0.026 A 
ATOM      9  C   UNL     1       8.828  -4.422   1.400  0.00  0.00    +0.043 A 
ATOM     10  N   UNL     1       8.001  -4.641   0.421  0.00  0.00    -0.375 N 
ATOM     11  C   UNL     1       6.849  -3.752   0.583  0.00  0.00    +0.131 C 
ATOM     12  C   UNL     1       5.538  -4.527   0.695  0.00  0.00    +0.134 C 
ATOM     13  N   UNL     1       4.941  -4.231   2.013  0.00  0.00    -0.276 N 
ATOM     14  C   UNL     1       4.674  -5.396   2.635  0.00  0.00    +0.248 C 
ATOM     15  O   UNL     1       4.068  -5.504   3.683  0.00  0.00    -0.270 OA
ATOM     16  C   UNL     1       5.221  -6.513   1.862  0.00  0.00    +0.042 A 
ATOM     17  C   UNL     1       5.763  -6.002   0.640  0.00  0.00    -0.013 A 
ATOM     18  C   UNL     1       6.352  -6.809  -0.308  0.00  0.00    +0.006 A 
ATOM     19  C   UNL     1       6.390  -8.174  -0.040  0.00  0.00    +0.000 A 
ATOM     20  C   UNL     1       5.861  -8.704   1.120  0.00  0.00    +0.001 A 
ATOM     21  C   UNL     1       5.257  -7.883   2.139  0.00  0.00    +0.013 A 
ATOM     22  H   UNL     1       8.126  -5.284  -0.295  0.00  0.00    +0.160 HD
ENDROOT
BRANCH   1  24
ATOM     23  N   UNL     1       3.333  -0.903   1.987  0.00  0.00    -0.302 N 
ATOM     24  C   UNL     1       3.695  -2.167   1.689  0.00  0.00    +0.235 C 
ATOM     25  O   UNL     1       3.208  -2.726   0.729  0.00  0.00    -0.274 OA
ATOM     26  H   UNL     1       3.722  -0.456   2.755  0.00  0.00    +0.150 HD
BRANCH  23  27
ATOM     27  C   UNL     1       2.353  -0.205   1.151  0.00  0.00    +0.162 C 
BRANCH  27  28
ATOM     28  C   UNL     1       2.559   1.283   1.271  0.00  0.00    +0.234 C 
ATOM     29  O   UNL     1       3.182   1.735   2.208  0.00  0.00    -0.274 OA
ATOM     30  N   UNL     1       2.050   2.111   0.338  0.00  0.00    -0.314 N 
ATOM     31  H   UNL     1       1.488   1.758  -0.369  0.00  0.00    +0.149 HD
BRANCH  30  32
ATOM     32  C   UNL     1       2.347   3.545   0.390  0.00  0.00    +0.104 C 
BRANCH  32  33
ATOM     33  C   UNL     1       1.653   4.252  -0.775  0.00  0.00    +0.022 C 
BRANCH  33  34
ATOM     34  C   UNL     1       1.963   5.750  -0.720  0.00  0.00    -0.016 C 
ATOM     35  C   UNL     1       1.374   6.438  -1.953  0.00  0.00    +0.007 C 
ATOM     36  C   UNL     1       1.346   6.352   0.544  0.00  0.00    +0.007 C 
ENDBRANCH  33  34
ENDBRANCH  32  33
ENDBRANCH  30  32
ENDBRANCH  27  28
BRANCH  27  37
ATOM     37  C   UNL     1       0.940  -0.564   1.617  0.00  0.00    +0.015 C 
ATOM     38  C   UNL     1       0.815  -0.299   3.118  0.00  0.00    +0.010 C 
BRANCH  37  40
ATOM     39  C   UNL     1       0.650  -2.279  -0.176  0.00  0.00    +0.004 C 
ATOM     40  C   UNL     1       0.670  -2.043   1.335  0.00  0.00    +0.002 C 
ENDBRANCH  37  40
ENDBRANCH  27  37
ENDBRANCH  23  27
ENDBRANCH   1  24
TORSDOF 8
