REMARK  Name = ZINC45827522
REMARK  14 active torsions:
REMARK  status: ('A' for Active; 'I' for Inactive)
REMARK    1  A    between atoms: C_1  and  C_2
REMARK    2  A    between atoms: C_2  and  N_3
REMARK    3  A    between atoms: N_3  and  C_4
REMARK    4  A    between atoms: N_3  and  C_6
REMARK    5  A    between atoms: C_4  and  C_5
REMARK    6  A    between atoms: C_6  and  C_8
REMARK    7  A    between atoms: C_6  and  C_28
REMARK    8  A    between atoms: C_8  and  N_9
REMARK    9  A    between atoms: C_10  and  C_12
REMARK   10  A    between atoms: N_17  and  S_19
REMARK   11  A    between atoms: S_19  and  C_22
REMARK   12  A    between atoms: C_25  and  C_27
REMARK   13  A    between atoms: C_32  and  O_34
REMARK   14  A    between atoms: O_34  and  C_35
REMARK                            x       y       z     vdW  Elec       q    Type
REMARK                         _______ _______ _______ _____ _____    ______ ____
ROOT
ATOM      1  N   UNL     1      -1.668  -2.398   0.667  0.00  0.00    -0.316 N 
ATOM      2  C   UNL     1      -1.242  -3.387  -0.143  0.00  0.00    +0.217 C 
ATOM      3  O   UNL     1      -1.006  -3.156  -1.310  0.00  0.00    -0.275 OA
ATOM      4  H   UNL     1      -1.788  -2.565   1.615  0.00  0.00    +0.149 HD
ENDROOT
BRANCH   2   5
ATOM      5  C   UNL     1      -1.058  -4.780   0.402  0.00  0.00    +0.091 C 
ATOM      6  C   UNL     1      -0.081  -4.743   1.580  0.00  0.00    +0.015 C 
ATOM      7  C   UNL     1       0.081  -6.152   2.154  0.00  0.00    +0.018 C 
ATOM      8  C   UNL     1       0.658  -7.076   1.077  0.00  0.00    +0.109 C 
ATOM      9  N   UNL     1      -0.198  -7.005  -0.115  0.00  0.00    -0.175 NA
ATOM     10  C   UNL     1      -0.494  -5.688  -0.696  0.00  0.00    +0.122 C 
BRANCH   9  11
ATOM     11  S   UNL     1      -0.819  -8.383  -0.791  0.00  0.00    +0.067 S 
ATOM     12  O   UNL     1      -1.094  -8.080  -2.152  0.00  0.00    -0.152 OA
ATOM     13  O   UNL     1       0.041  -9.447  -0.406  0.00  0.00    -0.152 OA
BRANCH  11  14
ATOM     14  C   UNL     1      -2.373  -8.688  -0.019  0.00  0.00    +0.143 A 
ATOM     15  C   UNL     1      -3.607  -8.262  -0.386  0.00  0.00    +0.036 A 
ATOM     16  C   UNL     1      -4.698  -8.629   0.379  0.00  0.00    +0.013 A 
ATOM     17  C   UNL     1      -4.502  -9.403   1.474  0.00  0.00    -0.011 A 
ATOM     18  S   UNL     1      -2.734  -9.644   1.445  0.00  0.00    -0.074 S 
ATOM     19  C   UNL     1      -5.516  -9.930   2.457  0.00  0.00    +0.051 C 
ENDBRANCH  11  14
ENDBRANCH   9  11
ENDBRANCH   2   5
BRANCH   1  20
ATOM     20  C   UNL     1      -1.952  -1.071   0.115  0.00  0.00    +0.093 C 
BRANCH  20  21
ATOM     21  C   UNL     1      -2.279  -0.104   1.255  0.00  0.00    -0.020 C 
BRANCH  21  22
ATOM     22  C   UNL     1      -2.454   1.286   0.700  0.00  0.00    -0.056 A 
ATOM     23  C   UNL     1      -2.770   1.462  -0.635  0.00  0.00    +0.002 A 
ATOM     24  C   UNL     1      -2.931   2.736  -1.147  0.00  0.00    +0.004 A 
ATOM     25  C   UNL     1      -2.776   3.837  -0.326  0.00  0.00    +0.045 A 
ATOM     26  C   UNL     1      -2.459   3.663   1.013  0.00  0.00    +0.120 A 
ATOM     27  C   UNL     1      -2.304   2.383   1.526  0.00  0.00    +0.047 A 
BRANCH  26  28
ATOM     28  O   UNL     1      -2.306   4.744   1.822  0.00  0.00    -0.495 OA
ATOM     29  C   UNL     1      -2.486   6.030   1.227  0.00  0.00    +0.277 C 
ENDBRANCH  26  28
ENDBRANCH  21  22
BRANCH  21  30
ATOM     30  N   UNL     1      -1.180  -0.107   2.230  0.00  0.00    +0.385 N 
ATOM     31  H   UNL     1      -0.763  -1.026   2.264  0.00  0.00    -0.081 HD
BRANCH  30  33
ATOM     32  C   UNL     1       0.320   0.559   0.412  0.00  0.00    -0.017 C 
ATOM     33  C   UNL     1      -0.166   0.876   1.828  0.00  0.00    -0.081 C 
ENDBRANCH  30  33
BRANCH  30  34
ATOM     34  C   UNL     1      -1.702   0.243   3.558  0.00  0.00    -0.081 C 
ATOM     35  C   UNL     1      -2.595  -0.890   4.069  0.00  0.00    -0.017 C 
ENDBRANCH  30  34
ENDBRANCH  21  30
ENDBRANCH  20  21
ENDBRANCH   1  20
TORSDOF 10
