REMARK  Name = ZINC38653179
REMARK  9 active torsions:
REMARK  status: ('A' for Active; 'I' for Inactive)
REMARK    1  A    between atoms: C_1  and  O_2
REMARK    2  A    between atoms: O_2  and  C_3
REMARK    3  A    between atoms: C_3  and  C_5
REMARK    4  A    between atoms: C_7  and  N_15
REMARK    5  A    between atoms: N_16  and  N_17
REMARK    6  A    between atoms: C_20  and  C_23
REMARK    7  A    between atoms: C_23  and  C_24
REMARK    8  A    between atoms: C_23  and  C_30
REMARK    9  A    between atoms: C_23  and  O_36
REMARK                            x       y       z     vdW  Elec       q    Type
REMARK                         _______ _______ _______ _____ _____    ______ ____
ROOT
ATOM      1  N   UNL     1       3.018  -2.779  -3.074  0.00  0.00    -0.312 NA
ATOM      2  C   UNL     1       1.918  -3.474  -3.754  0.00  0.00    +0.104 C 
ATOM      3  C   UNL     1       2.007  -3.225  -5.261  0.00  0.00    +0.025 C 
ATOM      4  C   UNL     1       3.347  -3.753  -5.783  0.00  0.00    +0.033 C 
ATOM      5  C   UNL     1       4.485  -3.075  -5.014  0.00  0.00    +0.025 C 
ATOM      6  C   UNL     1       4.305  -3.329  -3.516  0.00  0.00    +0.104 C 
ATOM      7  H   UNL     1       2.980  -1.795  -3.297  0.00  0.00    +0.148 HD
ENDROOT
BRANCH   1   9
ATOM      8  N   UNL     1       1.917  -2.464  -1.128  0.00  0.00    -0.136 NA
ATOM      9  N   UNL     1       2.893  -2.944  -1.724  0.00  0.00    -0.097 NA
BRANCH   8  11
ATOM     10  C   UNL     1       0.679  -2.115   1.088  0.00  0.00    +0.240 C 
ATOM     11  C   UNL     1       1.794  -2.627   0.204  0.00  0.00    +0.107 C 
ATOM     12  C   UNL     1       2.661  -3.297   1.047  0.00  0.00    +0.024 A 
ATOM     13  C   UNL     1       3.878  -3.987   0.824  0.00  0.00    +0.012 A 
ATOM     14  C   UNL     1       4.532  -4.564   1.856  0.00  0.00    +0.001 A 
ATOM     15  C   UNL     1       4.053  -4.512   3.172  0.00  0.00    +0.002 A 
ATOM     16  C   UNL     1       2.902  -3.877   3.490  0.00  0.00    +0.026 A 
ATOM     17  C   UNL     1       2.129  -3.224   2.426  0.00  0.00    +0.045 A 
ATOM     18  N   UNL     1       1.004  -2.554   2.449  0.00  0.00    -0.367 N 
ATOM     19  H   UNL     1       0.472  -2.376   3.240  0.00  0.00    +0.161 HD
BRANCH  10  20
ATOM     20  C   UNL     1       0.618  -0.611   1.029  0.00  0.00    +0.336 C 
ATOM     21  O   UNL     1       1.124   0.049   1.905  0.00  0.00    -0.248 OA
BRANCH  20  23
ATOM     22  C   UNL     1      -0.017   1.425   0.010  0.00  0.00    +0.280 C 
ATOM     23  O   UNL     1       0.002  -0.004   0.002  0.00  0.00    -0.466 OA
ENDBRANCH  20  23
ENDBRANCH  10  20
ENDBRANCH   8  11
ENDBRANCH   1   9
BRANCH   4  24
ATOM     24  C   UNL     1       3.476  -3.436  -7.274  0.00  0.00    +0.119 C 
BRANCH  24  25
ATOM     25  C   UNL     1       4.795  -3.956  -7.785  0.00  0.00    -0.011 A 
ATOM     26  C   UNL     1       5.367  -5.075  -7.210  0.00  0.00    +0.007 A 
ATOM     27  C   UNL     1       6.577  -5.552  -7.679  0.00  0.00    +0.000 A 
ATOM     28  C   UNL     1       7.214  -4.910  -8.724  0.00  0.00    +0.000 A 
ATOM     29  C   UNL     1       6.642  -3.791  -9.300  0.00  0.00    +0.000 A 
ATOM     30  C   UNL     1       5.430  -3.317  -8.834  0.00  0.00    +0.007 A 
ENDBRANCH  24  25
BRANCH  24  31
ATOM     31  C   UNL     1       2.350  -4.096  -8.027  0.00  0.00    -0.011 A 
ATOM     32  C   UNL     1       1.799  -5.273  -7.556  0.00  0.00    +0.007 A 
ATOM     33  C   UNL     1       0.766  -5.878  -8.246  0.00  0.00    +0.000 A 
ATOM     34  C   UNL     1       0.283  -5.306  -9.409  0.00  0.00    +0.000 A 
ATOM     35  C   UNL     1       0.834  -4.129  -9.880  0.00  0.00    +0.000 A 
ATOM     36  C   UNL     1       1.864  -3.521  -9.186  0.00  0.00    +0.007 A 
ENDBRANCH  24  31
BRANCH  24  37
ATOM     37  O   UNL     1       3.414  -2.022  -7.468  0.00  0.00    -0.379 OA
ATOM     38  H   UNL     1       4.111  -1.531  -7.010  0.00  0.00    +0.211 HD
ENDBRANCH  24  37
ENDBRANCH   4  24
TORSDOF 8
