REMARK  Name = ZINC65498832
REMARK  8 active torsions:
REMARK  status: ('A' for Active; 'I' for Inactive)
REMARK    1  A    between atoms: C_1  and  C_2
REMARK    2  A    between atoms: C_4  and  C_8
REMARK    3  A    between atoms: C_5  and  C_7
REMARK    4  A    between atoms: C_8  and  C_9
REMARK    5  A    between atoms: C_8  and  N_10
REMARK    6  A    between atoms: N_13  and  N_14
REMARK    7  A    between atoms: C_15  and  C_17
REMARK    8  A    between atoms: C_17  and  C_18
REMARK                            x       y       z     vdW  Elec       q    Type
REMARK                         _______ _______ _______ _____ _____    ______ ____
ROOT
ATOM      1  N   UNL     1      -2.786  -3.079   0.471  0.00  0.00    -0.292 N 
ATOM      2  C   UNL     1      -3.542  -4.045   1.030  0.00  0.00    +0.316 C 
ATOM      3  O   UNL     1      -3.104  -5.174   1.135  0.00  0.00    -0.251 OA
ATOM      4  N   UNL     1      -4.782  -3.758   1.472  0.00  0.00    -0.218 N 
ATOM      5  H   UNL     1      -3.135  -2.178   0.387  0.00  0.00    +0.151 HD
ATOM      6  H   UNL     1      -5.327  -4.453   1.874  0.00  0.00    +0.174 HD
ENDROOT
BRANCH   4   7
ATOM      7  N   UNL     1      -5.286  -2.457   1.350  0.00  0.00    -0.233 N 
ATOM      8  C   UNL     1      -6.527  -2.170   1.792  0.00  0.00    +0.233 C 
ATOM      9  O   UNL     1      -7.207  -3.039   2.295  0.00  0.00    -0.274 OA
ATOM     10  H   UNL     1      -4.742  -1.762   0.948  0.00  0.00    +0.173 HD
BRANCH   8  11
ATOM     11  C   UNL     1      -7.069  -0.770   1.661  0.00  0.00    +0.132 C 
BRANCH  11  12
ATOM     12  C   UNL     1      -8.465  -0.717   2.226  0.00  0.00    -0.038 A 
ATOM     13  C   UNL     1      -9.553  -0.975   1.394  0.00  0.00    +0.005 A 
ATOM     14  C   UNL     1     -10.826  -0.935   1.873  0.00  0.00    +0.009 A 
ATOM     15  C   UNL     1     -11.051  -0.629   3.226  0.00  0.00    -0.018 A 
ATOM     16  C   UNL     1     -12.351  -0.579   3.756  0.00  0.00    +0.008 A 
ATOM     17  C   UNL     1     -12.531  -0.279   5.072  0.00  0.00    +0.001 A 
ATOM     18  C   UNL     1     -11.443  -0.021   5.904  0.00  0.00    +0.001 A 
ATOM     19  C   UNL     1     -10.169  -0.061   5.425  0.00  0.00    +0.008 A 
ATOM     20  C   UNL     1      -9.945  -0.367   4.072  0.00  0.00    -0.018 A 
ATOM     21  C   UNL     1      -8.644  -0.423   3.543  0.00  0.00    +0.012 A 
ENDBRANCH  11  12
ENDBRANCH   8  11
ENDBRANCH   4   7
BRANCH   1  22
ATOM     22  C   UNL     1      -1.437  -3.390  -0.009  0.00  0.00    +0.105 C 
ATOM     23  C   UNL     1      -1.518  -3.946  -1.432  0.00  0.00    +0.033 C 
BRANCH  22  27
ATOM     24  C   UNL     1      -0.018   1.503   0.010  0.00  0.00    +0.086 C 
ATOM     25  C   UNL     1       0.002  -0.004   0.002  0.00  0.00    +0.103 A 
ATOM     26  C   UNL     1      -1.078  -0.805   0.003  0.00  0.00    +0.050 A 
ATOM     27  C   UNL     1      -0.601  -2.136  -0.007  0.00  0.00    +0.013 A 
ATOM     28  C   UNL     1       0.742  -2.069  -0.013  0.00  0.00    +0.107 A 
ATOM     29  O   UNL     1       1.102  -0.775  -0.013  0.00  0.00    -0.465 OA
ATOM     30  C   UNL     1       1.684  -3.245  -0.023  0.00  0.00    +0.086 C 
ENDBRANCH  22  27
ENDBRANCH   1  22
TORSDOF 5
