REMARK  Name = ZINC13174910
REMARK  7 active torsions:
REMARK  status: ('A' for Active; 'I' for Inactive)
REMARK    1  A    between atoms: C_4  and  S_8
REMARK    2  A    between atoms: S_8  and  N_11
REMARK    3  A    between atoms: C_14  and  C_17
REMARK    4  A    between atoms: N_19  and  C_20
REMARK    5  A    between atoms: C_20  and  C_22
REMARK    6  A    between atoms: C_20  and  C_25
REMARK    7  A    between atoms: C_22  and  C_23
REMARK                            x       y       z     vdW  Elec       q    Type
REMARK                         _______ _______ _______ _____ _____    ______ ____
ROOT
ATOM      1  N   UNL     1       0.862  -0.923  -0.977  0.00  0.00    -0.176 NA
ATOM      2  C   UNL     1       0.033  -0.956  -2.190  0.00  0.00    +0.110 C 
ATOM      3  C   UNL     1       0.229  -2.300  -2.890  0.00  0.00    +0.030 C 
ATOM      4  C   UNL     1       1.721  -2.528  -3.142  0.00  0.00    +0.077 C 
ATOM      5  C   UNL     1       2.466  -2.565  -1.805  0.00  0.00    +0.030 C 
ATOM      6  C   UNL     1       2.296  -1.219  -1.093  0.00  0.00    +0.110 C 
ENDROOT
BRANCH   4   7
ATOM      7  C   UNL     1       1.914  -3.839  -3.860  0.00  0.00    +0.217 C 
ATOM      8  O   UNL     1       2.582  -4.716  -3.354  0.00  0.00    -0.275 OA
ATOM      9  N   UNL     1       1.345  -4.036  -5.066  0.00  0.00    -0.308 N 
ATOM     10  H   UNL     1       0.754  -3.364  -5.439  0.00  0.00    +0.149 HD
BRANCH   9  11
ATOM     11  C   UNL     1       1.620  -5.266  -5.813  0.00  0.00    +0.114 C 
BRANCH  11  12
ATOM     12  C   UNL     1       0.526  -5.495  -6.824  0.00  0.00    -0.027 A 
ATOM     13  C   UNL     1      -0.001  -4.427  -7.525  0.00  0.00    +0.007 A 
ATOM     14  C   UNL     1      -1.000  -4.637  -8.457  0.00  0.00    +0.020 A 
ATOM     15  C   UNL     1      -1.481  -5.915  -8.678  0.00  0.00    +0.041 A 
ATOM     16  C   UNL     1      -0.958  -6.983  -7.972  0.00  0.00    +0.020 A 
ATOM     17  C   UNL     1       0.046  -6.773  -7.045  0.00  0.00    +0.007 A 
ATOM     18 CL   UNL     1      -2.741  -6.179  -9.843  0.00  0.00    -0.084 Cl
ENDBRANCH  11  12
BRANCH  11  19
ATOM     19  C   UNL     1       2.962  -5.135  -6.535  0.00  0.00    +0.152 C 
BRANCH  19  20
ATOM     20  C   UNL     1       3.324  -6.455  -7.166  0.00  0.00    +0.358 C 
ATOM     21  O   UNL     1       2.647  -7.433  -6.953  0.00  0.00    -0.246 OA
ATOM     22  O   UNL     1       4.399  -6.545  -7.965  0.00  0.00    -0.246 OA
ENDBRANCH  19  20
ENDBRANCH  11  19
ENDBRANCH   9  11
ENDBRANCH   4   7
BRANCH   1  23
ATOM     23  S   UNL     1       0.191  -0.567   0.494  0.00  0.00    +0.064 S 
ATOM     24  O   UNL     1       1.037  -1.146   1.478  0.00  0.00    -0.153 OA
ATOM     25  O   UNL     1      -1.192  -0.881   0.397  0.00  0.00    -0.153 OA
BRANCH  23  29
ATOM     26  C   UNL     1       0.461   3.921   1.036  0.00  0.00    +0.003 A 
ATOM     27  C   UNL     1      -0.775   3.309   0.934  0.00  0.00    +0.002 A 
ATOM     28  C   UNL     1      -0.857   1.940   0.763  0.00  0.00    +0.031 A 
ATOM     29  C   UNL     1       0.296   1.180   0.705  0.00  0.00    +0.140 A 
ATOM     30  C   UNL     1       1.534   1.792   0.807  0.00  0.00    +0.150 A 
ATOM     31  C   UNL     1       1.615   3.164   0.973  0.00  0.00    +0.040 A 
ATOM     32  F   UNL     1       2.661   1.050   0.744  0.00  0.00    -0.203 F 
ENDBRANCH  23  29
ENDBRANCH   1  23
TORSDOF 7
