REMARK  Name = ZINC20439991
REMARK  6 active torsions:
REMARK  status: ('A' for Active; 'I' for Inactive)
REMARK    1  A    between atoms: C_4  and  C_7
REMARK    2  A    between atoms: C_7  and  C_9
REMARK    3  A    between atoms: C_7  and  O_27
REMARK    4  A    between atoms: C_12  and  C_22
REMARK    5  A    between atoms: C_12  and  O_26
REMARK    6  A    between atoms: C_14  and  C_16
REMARK                            x       y       z     vdW  Elec       q    Type
REMARK                         _______ _______ _______ _____ _____    ______ ____
ROOT
ATOM      1  C   UNL     1      -2.895   3.023  -1.217  0.00  0.00    +0.271 C 
ATOM      2  O   UNL     1      -2.913   3.036  -2.429  0.00  0.00    -0.271 OA
ATOM      3  N   UNL     1      -1.916   2.365  -0.565  0.00  0.00    -0.150 N 
ATOM      4  C   UNL     1      -0.812   1.623  -1.196  0.00  0.00    +0.256 C 
ATOM      5  C   UNL     1      -0.013   1.086   0.008  0.00  0.00    +0.119 C 
ATOM      6  C   UNL     1      -0.774   1.600   1.209  0.00  0.00    +0.045 C 
ATOM      7  N   UNL     1      -1.781   2.275   0.819  0.00  0.00    -0.183 NA
ENDROOT
BRANCH   6   8
ATOM      8  C   UNL     1      -0.398   1.349   2.647  0.00  0.00    +0.035 C 
ATOM      9  C   UNL     1      -0.518  -0.146   2.952  0.00  0.00    +0.009 C 
ATOM     10  C   UNL     1      -0.136  -0.401   4.411  0.00  0.00    +0.001 C 
ATOM     11  C   UNL     1      -1.075   0.385   5.329  0.00  0.00    +0.000 C 
ATOM     12  C   UNL     1      -0.955   1.879   5.024  0.00  0.00    +0.001 C 
ATOM     13  C   UNL     1      -1.337   2.134   3.564  0.00  0.00    +0.009 C 
ENDBRANCH   6   8
BRANCH   4  14
ATOM     14  C   UNL     1      -1.353   0.470  -2.044  0.00  0.00    +0.438 C 
ATOM     15  F   UNL     1      -2.194  -0.329  -1.262  0.00  0.00    -0.166 F 
ATOM     16  F   UNL     1      -2.072   0.984  -3.127  0.00  0.00    -0.166 F 
ATOM     17  F   UNL     1      -0.285  -0.301  -2.517  0.00  0.00    -0.166 F 
ENDBRANCH   4  14
BRANCH   4  18
ATOM     18  O   UNL     1      -0.005   2.497  -1.988  0.00  0.00    -0.363 OA
ATOM     19  H   UNL     1       0.866   2.101  -2.530  0.00  0.00    +0.212 HD
ENDBRANCH   4  18
BRANCH   1  20
ATOM     20  C   UNL     1      -3.966   3.744  -0.439  0.00  0.00    +0.232 C 
BRANCH  20  24
ATOM     21  C   UNL     1      -6.286   0.906   1.754  0.00  0.00    +0.000 A 
ATOM     22  C   UNL     1      -5.292   1.625   2.390  0.00  0.00    +0.000 A 
ATOM     23  C   UNL     1      -4.541   2.543   1.681  0.00  0.00    +0.006 A 
ATOM     24  C   UNL     1      -4.785   2.742   0.335  0.00  0.00    -0.010 A 
ATOM     25  C   UNL     1      -5.782   2.027  -0.301  0.00  0.00    +0.006 A 
ATOM     26  C   UNL     1      -6.530   1.105   0.408  0.00  0.00    +0.000 A 
ENDBRANCH  20  24
BRANCH  20  27
ATOM     27  O   UNL     1      -4.814   4.455  -1.343  0.00  0.00    -0.378 OA
ATOM     28  H   UNL     1      -4.391   5.233  -1.997  0.00  0.00    +0.211 HD
ENDBRANCH  20  27
ENDBRANCH   1  20
TORSDOF 6
