REMARK  Name = ZINC13064405
REMARK  9 active torsions:
REMARK  status: ('A' for Active; 'I' for Inactive)
REMARK    1  A    between atoms: C_1  and  C_2
REMARK    2  A    between atoms: C_2  and  C_3
REMARK    3  A    between atoms: C_3  and  C_5
REMARK    4  A    between atoms: C_3  and  N_72
REMARK    5  A    between atoms: N_9  and  C_10
REMARK    6  A    between atoms: C_16  and  C_17
REMARK    7  A    between atoms: C_16  and  N_72
REMARK    8  A    between atoms: C_23  and  C_24
REMARK    9  A    between atoms: C_23  and  N_72
REMARK                            x       y       z     vdW  Elec       q    Type
REMARK                         _______ _______ _______ _____ _____    ______ ____
ROOT
ATOM      1  N   UNL     1       4.116  -0.606  -1.551  0.00  0.00    +0.392 N 
ATOM      2  H   UNL     1       4.069   0.378  -1.840  0.00  0.00    -0.080 HD
ENDROOT
BRANCH   1   3
ATOM      3  C   UNL     1       5.384  -1.189  -2.038  0.00  0.00    +0.003 C 
BRANCH   3   4
ATOM      4  C   UNL     1       5.407  -2.677  -1.799  0.00  0.00    +0.138 A 
ATOM      5  N   UNL     1       4.463  -3.534  -2.104  0.00  0.00    -0.115 NA
ATOM      6  N   UNL     1       4.857  -4.706  -1.742  0.00  0.00    -0.023 NA
ATOM      7  N   UNL     1       6.028  -4.619  -1.214  0.00  0.00    -0.044 NA
ATOM      8  N   UNL     1       6.404  -3.385  -1.236  0.00  0.00    -0.228 N 
BRANCH   8   9
ATOM      9  C   UNL     1       7.675  -2.853  -0.738  0.00  0.00    +0.111 C 
ATOM     10  C   UNL     1       8.833  -3.506  -1.496  0.00  0.00    +0.027 C 
ATOM     11  C   UNL     1      10.160  -2.950  -0.975  0.00  0.00    +0.002 C 
ATOM     12  C   UNL     1      10.291  -3.257   0.518  0.00  0.00    +0.000 C 
ATOM     13  C   UNL     1       9.133  -2.605   1.276  0.00  0.00    +0.002 C 
ATOM     14  C   UNL     1       7.806  -3.160   0.756  0.00  0.00    +0.027 C 
ENDBRANCH   8   9
ENDBRANCH   3   4
BRANCH   3  16
ATOM     15  C   UNL     1       5.572   0.599  -3.773  0.00  0.00    +0.002 C 
ATOM     16  C   UNL     1       5.510  -0.912  -3.538  0.00  0.00    -0.011 C 
ENDBRANCH   3  16
ENDBRANCH   1   3
BRANCH   1  17
ATOM     17  C   UNL     1       4.063  -0.675  -0.075  0.00  0.00    -0.042 C 
BRANCH  17  18
ATOM     18  C   UNL     1       4.928   0.421   0.491  0.00  0.00    -0.064 A 
ATOM     19  C   UNL     1       4.424   1.702   0.621  0.00  0.00    +0.002 A 
ATOM     20  C   UNL     1       5.217   2.707   1.141  0.00  0.00    +0.000 A 
ATOM     21  C   UNL     1       6.514   2.432   1.531  0.00  0.00    +0.000 A 
ATOM     22  C   UNL     1       7.018   1.151   1.402  0.00  0.00    +0.000 A 
ATOM     23  C   UNL     1       6.225   0.146   0.882  0.00  0.00    +0.002 A 
ENDBRANCH  17  18
ENDBRANCH   1  17
BRANCH   1  24
ATOM     24  C   UNL     1       2.969  -1.333  -2.132  0.00  0.00    -0.036 C 
BRANCH  24  25
ATOM     25  C   UNL     1       1.743  -0.462  -2.030  0.00  0.00    +0.001 A 
ATOM     26  C   UNL     1       1.415   0.367  -3.054  0.00  0.00    +0.017 A 
ATOM     27  C   UNL     1       0.221   1.200  -2.925  0.00  0.00    +0.002 A 
ATOM     28  C   UNL     1      -0.166   2.074  -3.948  0.00  0.00    +0.059 A 
ATOM     29  C   UNL     1      -1.296   2.849  -3.796  0.00  0.00    +0.163 A 
ATOM     30  C   UNL     1      -2.057   2.763  -2.627  0.00  0.00    +0.164 A 
ATOM     31  C   UNL     1      -1.683   1.901  -1.611  0.00  0.00    +0.075 A 
ATOM     32  C   UNL     1      -0.547   1.114  -1.747  0.00  0.00    +0.053 A 
ATOM     33  N   UNL     1      -0.159   0.250  -0.743  0.00  0.00    -0.322 N 
ATOM     34  H   UNL     1      -0.688   0.191   0.068  0.00  0.00    +0.169 HD
ATOM     35  C   UNL     1       0.939  -0.515  -0.874  0.00  0.00    +0.251 A 
ATOM     36  O   UNL     1       1.249  -1.270   0.031  0.00  0.00    -0.268 OA
ATOM     37  O   UNL     1      -3.175   3.522  -2.471  0.00  0.00    -0.485 OA
ATOM     38  C   UNL     1      -3.317   4.648  -3.343  0.00  0.00    +0.270 C 
ATOM     39  C   UNL     1      -2.999   4.191  -4.774  0.00  0.00    +0.270 C 
ATOM     40  O   UNL     1      -1.655   3.699  -4.799  0.00  0.00    -0.485 OA
ENDBRANCH  24  25
ENDBRANCH   1  24
TORSDOF 8
