REMARK  Name = ZINC39464425
REMARK  4 active torsions:
REMARK  status: ('A' for Active; 'I' for Inactive)
REMARK    1  A    between atoms: C_4  and  O_31
REMARK    2  A    between atoms: C_5  and  C_7
REMARK    3  A    between atoms: P_21  and  C_24
REMARK    4  A    between atoms: C_29  and  O_30
REMARK                            x       y       z     vdW  Elec       q    Type
REMARK                         _______ _______ _______ _____ _____    ______ ____
ROOT
ATOM      1  C   UNL     1       1.244  -2.166  -0.023  0.00  0.00    +0.004 A 
ATOM      2  C   UNL     1       0.743  -2.868  -1.114  0.00  0.00    +0.015 A 
ATOM      3  C   UNL     1       0.764  -4.253  -1.126  0.00  0.00    -0.023 A 
ATOM      4  C   UNL     1       1.288  -4.938  -0.049  0.00  0.00    -0.040 A 
ATOM      5  C   UNL     1       1.788  -4.244   1.043  0.00  0.00    +0.024 A 
ATOM      6  C   UNL     1       1.777  -2.865   1.060  0.00  0.00    +0.049 A 
ATOM      7 CL   UNL     1       2.414  -2.004   2.426  0.00  0.00    -0.083 Cl
ATOM      8  C   UNL     1       1.334  -6.445  -0.024  0.00  0.00    +0.052 C 
ATOM      9  C   UNL     1       0.349  -7.007  -1.049  0.00  0.00    +0.108 C 
ATOM     10  N   UNL     1       0.606  -6.370  -2.350  0.00  0.00    -0.225 NA
ATOM     11  C   UNL     1       0.205  -4.963  -2.331  0.00  0.00    +0.129 C 
ATOM     12  C   UNL     1       0.672  -4.241  -3.598  0.00  0.00    +0.194 C 
ATOM     13  O   UNL     1       0.038  -4.853  -4.738  0.00  0.00    -0.311 OA
ATOM     14  P   UNL     1       0.105  -6.472  -4.881  0.00  0.00    +0.318 P 
ATOM     15  O   UNL     1       1.406  -6.881  -5.456  0.00  0.00    -0.266 OA
ATOM     16  N   UNL     1      -0.051  -7.061  -3.344  0.00  0.00    -0.175 NA
ATOM     17  H   UNL     1      -0.577  -7.853  -3.152  0.00  0.00    +0.151 HD
ENDROOT
BRANCH   1  22
ATOM     18  C   UNL     1      -0.017   1.376   0.010  0.00  0.00    +0.001 A 
ATOM     19  C   UNL     1       1.169   2.089   0.002  0.00  0.00    +0.004 A 
ATOM     20  C   UNL     1       2.382   1.426  -0.013  0.00  0.00    +0.046 A 
ATOM     21  C   UNL     1       2.415   0.041  -0.021  0.00  0.00    +0.125 A 
ATOM     22  C   UNL     1       1.219  -0.683  -0.014  0.00  0.00    +0.025 A 
ATOM     23  C   UNL     1       0.002  -0.004   0.002  0.00  0.00    +0.012 A 
BRANCH  21  24
ATOM     24  O   UNL     1       3.606  -0.613  -0.037  0.00  0.00    -0.506 OA
ATOM     25  H   UNL     1       3.960  -0.807   0.842  0.00  0.00    +0.292 HD
ENDBRANCH  21  24
ENDBRANCH   1  22
BRANCH  14  26
ATOM     26  C   UNL     1      -1.255  -7.066  -5.924  0.00  0.00    +0.094 A 
ATOM     27  C   UNL     1      -2.468  -7.401  -5.354  0.00  0.00    +0.018 A 
ATOM     28  C   UNL     1      -3.505  -7.854  -6.149  0.00  0.00    +0.001 A 
ATOM     29  C   UNL     1      -3.331  -7.973  -7.515  0.00  0.00    +0.004 A 
ATOM     30  C   UNL     1      -2.120  -7.639  -8.090  0.00  0.00    +0.046 A 
ATOM     31  C   UNL     1      -1.080  -7.179  -7.295  0.00  0.00    +0.131 A 
BRANCH  31  32
ATOM     32  O   UNL     1       0.111  -6.845  -7.859  0.00  0.00    -0.506 OA
ATOM     33  H   UNL     1       0.738  -7.578  -7.918  0.00  0.00    +0.292 HD
ENDBRANCH  31  32
ENDBRANCH  14  26
TORSDOF 4
