REMARK  Name = ZINC57143286
REMARK  5 active torsions:
REMARK  status: ('A' for Active; 'I' for Inactive)
REMARK    1  A    between atoms: C_1  and  C_2
REMARK    2  A    between atoms: C_2  and  C_29
REMARK    3  A    between atoms: C_4  and  N_10
REMARK    4  A    between atoms: C_6  and  C_8
REMARK    5  A    between atoms: C_6  and  C_9
REMARK                            x       y       z     vdW  Elec       q    Type
REMARK                         _______ _______ _______ _____ _____    ______ ____
ROOT
ATOM      1  N   UNL     1       2.616  -0.819  -2.627  0.00  0.00    -0.263 NA
ATOM      2  C   UNL     1       4.058  -0.560  -2.742  0.00  0.00    +0.130 C 
ATOM      3  C   UNL     1       4.601  -1.260  -3.962  0.00  0.00    +0.053 A 
ATOM      4  C   UNL     1       5.834  -0.876  -4.474  0.00  0.00    +0.147 A 
ATOM      5  C   UNL     1       6.348  -1.530  -5.608  0.00  0.00    +0.023 A 
ATOM      6  C   UNL     1       5.616  -2.556  -6.215  0.00  0.00    +0.035 A 
ATOM      7  C   UNL     1       4.406  -2.920  -5.701  0.00  0.00    +0.084 A 
ATOM      8  C   UNL     1       3.890  -2.276  -4.573  0.00  0.00    +0.149 A 
ATOM      9  O   UNL     1       2.679  -2.664  -4.091  0.00  0.00    -0.475 OA
ATOM     10  C   UNL     1       2.348  -2.261  -2.760  0.00  0.00    +0.319 C 
ATOM     11 CL   UNL     1       3.499  -4.194  -6.455  0.00  0.00    -0.080 Cl
ATOM     12  C   UNL     1       7.653  -1.120  -6.133  0.00  0.00    -0.027 A 
ATOM     13  C   UNL     1       8.318  -0.121  -5.501  0.00  0.00    +0.041 A 
ATOM     14  C   UNL     1       7.740   0.491  -4.366  0.00  0.00    +0.341 A 
ATOM     15  O   UNL     1       8.345   1.385  -3.803  0.00  0.00    -0.245 OA
ATOM     16  O   UNL     1       6.542   0.116  -3.893  0.00  0.00    -0.422 OA
ATOM     17  C   UNL     1       9.636   0.145  -6.197  0.00  0.00    +0.043 C 
ATOM     18  C   UNL     1       9.889  -1.103  -7.071  0.00  0.00    +0.010 C 
ATOM     19  C   UNL     1       8.454  -1.623  -7.312  0.00  0.00    +0.036 C 
ENDROOT
BRANCH   1  23
ATOM     20  C   UNL     1      -0.019   1.528   0.010  0.00  0.00    -0.010 C 
ATOM     21  C   UNL     1       0.002  -0.004   0.002  0.00  0.00    -0.072 C 
ATOM     22  C   UNL     1       0.573  -0.505  -1.321  0.00  0.00    +0.006 C 
ATOM     23  C   UNL     1       2.088  -0.301  -1.357  0.00  0.00    +0.058 C 
ATOM     24  C   UNL     1       2.703  -1.086  -0.198  0.00  0.00    +0.006 C 
ATOM     25  C   UNL     1       2.147  -0.590   1.133  0.00  0.00    -0.072 C 
ATOM     26  N   UNL     1       0.697  -0.529   1.164  0.00  0.00    +0.386 N 
ATOM     27  C   UNL     1       2.769   0.766   1.481  0.00  0.00    -0.010 C 
ATOM     28  C   UNL     1       2.600  -1.589   2.223  0.00  0.00    -0.010 C 
ATOM     29  C   UNL     1      -1.468  -0.478   0.079  0.00  0.00    -0.010 C 
ATOM     30  H   UNL     1       0.416   0.021   1.982  0.00  0.00    -0.084 HD
ATOM     31  H   UNL     1       0.341  -1.472   1.351  0.00  0.00    -0.084 HD
ENDBRANCH   1  23
TORSDOF 1
