REMARK  Name = ZINC09465693
REMARK  9 active torsions:
REMARK  status: ('A' for Active; 'I' for Inactive)
REMARK    1  A    between atoms: C_1  and  C_2
REMARK    2  A    between atoms: C_2  and  C_3
REMARK    3  A    between atoms: N_11  and  C_15
REMARK    4  A    between atoms: C_15  and  C_16
REMARK    5  A    between atoms: N_18  and  C_19
REMARK    6  A    between atoms: C_24  and  C_25
REMARK    7  A    between atoms: N_27  and  C_28
REMARK    8  A    between atoms: C_28  and  C_29
REMARK    9  A    between atoms: C_29  and  C_30
REMARK                            x       y       z     vdW  Elec       q    Type
REMARK                         _______ _______ _______ _____ _____    ______ ____
ROOT
ATOM      1  C   UNL     1       0.003  -0.525   1.413  0.00  0.00    +0.235 C 
ATOM      2  O   UNL     1       0.015   0.262   2.336  0.00  0.00    -0.274 OA
ATOM      3  N   UNL     1       0.027  -1.850   1.657  0.00  0.00    -0.284 N 
ATOM      4  H   UNL     1      -0.047  -2.480   0.923  0.00  0.00    +0.155 HD
ENDROOT
BRANCH   3   5
ATOM      5  C   UNL     1       0.159  -2.316   2.963  0.00  0.00    +0.046 A 
ATOM      6  C   UNL     1      -0.431  -1.625   4.013  0.00  0.00    +0.024 A 
ATOM      7  C   UNL     1      -0.303  -2.090   5.306  0.00  0.00    +0.002 A 
ATOM      8  C   UNL     1       0.421  -3.242   5.568  0.00  0.00    +0.001 A 
ATOM      9  C   UNL     1       1.018  -3.938   4.539  0.00  0.00    +0.015 A 
ATOM     10  C   UNL     1       0.893  -3.482   3.225  0.00  0.00    +0.058 A 
BRANCH  10  11
ATOM     11  C   UNL     1       1.529  -4.223   2.119  0.00  0.00    +0.246 C 
ATOM     12  O   UNL     1       1.502  -3.771   0.990  0.00  0.00    -0.270 OA
ATOM     13  N   UNL     1       2.140  -5.400   2.359  0.00  0.00    -0.311 N 
ATOM     14  H   UNL     1       2.161  -5.760   3.260  0.00  0.00    +0.149 HD
BRANCH  13  15
ATOM     15  C   UNL     1       2.771  -6.136   1.261  0.00  0.00    +0.109 C 
BRANCH  15  16
ATOM     16  C   UNL     1       3.387  -7.428   1.800  0.00  0.00    +0.054 C 
BRANCH  16  17
ATOM     17  C   UNL     1       4.036  -8.185   0.670  0.00  0.00    -0.046 A 
ATOM     18  C   UNL     1       3.307  -9.112  -0.050  0.00  0.00    +0.004 A 
ATOM     19  C   UNL     1       3.901  -9.802  -1.090  0.00  0.00    +0.000 A 
ATOM     20  C   UNL     1       5.228  -9.573  -1.402  0.00  0.00    +0.000 A 
ATOM     21  C   UNL     1       5.959  -8.650  -0.678  0.00  0.00    +0.000 A 
ATOM     22  C   UNL     1       5.363  -7.956   0.358  0.00  0.00    +0.004 A 
ENDBRANCH  16  17
ENDBRANCH  15  16
ENDBRANCH  13  15
ENDBRANCH  10  11
ENDBRANCH   3   5
BRANCH   1  23
ATOM     23  C   UNL     1      -0.039  -0.021  -0.006  0.00  0.00    +0.214 C 
BRANCH  23  32
ATOM     24  C   UNL     1       2.996   5.222  -0.073  0.00  0.00    -0.011 C 
ATOM     25  C   UNL     1       2.568   4.466   1.187  0.00  0.00    +0.006 C 
ATOM     26  C   UNL     1       1.041   4.370   1.229  0.00  0.00    +0.035 C 
ATOM     27  C   UNL     1       0.542   3.642  -0.015  0.00  0.00    +0.113 C 
ATOM     28  C   UNL     1       0.979   4.374  -1.280  0.00  0.00    +0.035 C 
ATOM     29  C   UNL     1       2.507   4.470  -1.312  0.00  0.00    +0.006 C 
ATOM     30  C   UNL     1       1.046   2.217  -0.030  0.00  0.00    +0.247 C 
ATOM     31  O   UNL     1       2.200   1.848  -0.058  0.00  0.00    -0.273 OA
ATOM     32  N   UNL     1      -0.059   1.444  -0.004  0.00  0.00    -0.215 N 
ATOM     33  C   UNL     1      -1.176   2.181   0.019  0.00  0.00    +0.310 C 
ATOM     34  O   UNL     1      -2.296   1.710   0.039  0.00  0.00    -0.252 OA
ATOM     35  N   UNL     1      -0.919   3.503   0.021  0.00  0.00    -0.285 N 
ATOM     36  H   UNL     1      -1.571   4.222   0.038  0.00  0.00    +0.151 HD
BRANCH  24  38
ATOM     37  C   UNL     1       4.944   6.189  -1.302  0.00  0.00    +0.004 C 
ATOM     38  C   UNL     1       4.522   5.327  -0.110  0.00  0.00    -0.000 C 
ENDBRANCH  24  38
ENDBRANCH  23  32
ENDBRANCH   1  23
TORSDOF 8
