REMARK  Name = ZINC38681444
REMARK  11 active torsions:
REMARK  status: ('A' for Active; 'I' for Inactive)
REMARK    1  A    between atoms: C_1  and  C_2
REMARK    2  A    between atoms: C_2  and  C_3
REMARK    3  A    between atoms: C_3  and  O_4
REMARK    4  A    between atoms: O_4  and  C_5
REMARK    5  A    between atoms: C_10  and  C_11
REMARK    6  A    between atoms: C_16  and  O_25
REMARK    7  A    between atoms: C_20  and  N_24
REMARK    8  A    between atoms: C_21  and  C_22
REMARK    9  A    between atoms: O_25  and  C_26
REMARK   10  A    between atoms: C_26  and  C_28
REMARK   11  A    between atoms: C_31  and  N_34
REMARK                            x       y       z     vdW  Elec       q    Type
REMARK                         _______ _______ _______ _____ _____    ______ ____
ROOT
ATOM      1  C   UNL     1      -1.412  -4.735  -0.046  0.00  0.00    +0.101 C 
ATOM      2  C   UNL     1      -1.373  -5.604  -1.276  0.00  0.00    +0.008 A 
ATOM      3  C   UNL     1      -1.162  -5.022  -2.513  0.00  0.00    +0.012 A 
ATOM      4  C   UNL     1      -1.123  -5.803  -3.651  0.00  0.00    +0.047 A 
ATOM      5  C   UNL     1      -1.296  -7.177  -3.556  0.00  0.00    +0.135 A 
ATOM      6  C   UNL     1      -1.508  -7.762  -2.318  0.00  0.00    +0.093 A 
ATOM      7  C   UNL     1      -1.548  -6.975  -1.175  0.00  0.00    +0.138 A 
ATOM      8  O   UNL     1      -1.757  -7.563   0.029  0.00  0.00    -0.441 OA
ATOM      9  C   UNL     1      -1.421  -6.916   1.158  0.00  0.00    +0.199 C 
ATOM     10  C   UNL     1      -1.244  -5.577   1.187  0.00  0.00    +0.098 C 
ENDROOT
BRANCH   1  16
ATOM     11  C   UNL     1      -2.775  -2.631   0.004  0.00  0.00    +0.125 A 
ATOM     12  C   UNL     1      -3.996  -1.973   0.056  0.00  0.00    +0.046 A 
ATOM     13  C   UNL     1      -5.168  -2.700   0.125  0.00  0.00    +0.004 A 
ATOM     14  C   UNL     1      -5.126  -4.082   0.142  0.00  0.00    +0.001 A 
ATOM     15  C   UNL     1      -3.911  -4.740   0.091  0.00  0.00    +0.008 A 
ATOM     16  C   UNL     1      -2.736  -4.017   0.016  0.00  0.00    +0.007 A 
BRANCH  11  17
ATOM     17  O   UNL     1      -1.620  -1.918  -0.065  0.00  0.00    -0.492 OA
BRANCH  17  18
ATOM     18  C   UNL     1      -1.737  -0.493  -0.073  0.00  0.00    +0.229 C 
BRANCH  18  20
ATOM     19  C   UNL     1      -0.467   1.657  -0.162  0.00  0.00    +0.007 C 
ATOM     20  C   UNL     1      -0.343   0.132  -0.153  0.00  0.00    +0.038 C 
ENDBRANCH  18  20
ENDBRANCH  17  18
ENDBRANCH  11  17
ENDBRANCH   1  16
BRANCH   9  21
ATOM     21  N   UNL     1      -1.255  -7.637   2.314  0.00  0.00    -0.328 N 
ATOM     22  H   UNL     1      -1.380  -8.599   2.308  0.00  0.00    +0.145 HD
ATOM     23  H   UNL     1      -1.013  -7.184   3.137  0.00  0.00    +0.145 HD
ENDBRANCH   9  21
BRANCH  10  24
ATOM     24  C   UNL     1      -0.887  -4.947   2.423  0.00  0.00    +0.101 C 
ATOM     25  N   UNL     1      -0.605  -4.448   3.403  0.00  0.00    -0.191 NA
ENDBRANCH  10  24
BRANCH   5  26
ATOM     26  O   UNL     1      -1.259  -7.947  -4.675  0.00  0.00    -0.422 OA
BRANCH  26  27
ATOM     27  C   UNL     1      -0.076  -8.092  -5.304  0.00  0.00    +0.344 C 
ATOM     28  O   UNL     1       0.934  -7.630  -4.811  0.00  0.00    -0.245 OA
BRANCH  27  29
ATOM     29  C   UNL     1      -0.007  -8.813  -6.591  0.00  0.00    +0.060 A 
ATOM     30  C   UNL     1      -1.167  -9.340  -7.163  0.00  0.00    +0.017 A 
ATOM     31  C   UNL     1      -1.096 -10.011  -8.366  0.00  0.00    +0.033 A 
ATOM     32  C   UNL     1       0.122 -10.164  -9.005  0.00  0.00    +0.126 A 
ATOM     33  C   UNL     1       1.275  -9.644  -8.445  0.00  0.00    +0.033 A 
ATOM     34  C   UNL     1       1.217  -8.965  -7.245  0.00  0.00    +0.017 A 
BRANCH  32  35
ATOM     35  N   UNL     1       0.191 -10.887 -10.295  0.00  0.00    +0.056 N 
ATOM     36  O   UNL     1      -0.815 -11.342 -10.787  0.00  0.00    -0.126 OA
ATOM     37  O   UNL     1       1.253 -11.021 -10.857  0.00  0.00    -0.126 OA
ENDBRANCH  32  35
ENDBRANCH  27  29
ENDBRANCH  26  27
ENDBRANCH   5  26
TORSDOF 10
