REMARK  Name = ZINC39695824
REMARK  11 active torsions:
REMARK  status: ('A' for Active; 'I' for Inactive)
REMARK    1  A    between atoms: C_1  and  C_2
REMARK    2  A    between atoms: C_2  and  C_3
REMARK    3  A    between atoms: C_3  and  C_4
REMARK    4  A    between atoms: C_4  and  C_5
REMARK    5  A    between atoms: C_5  and  C_7
REMARK    6  A    between atoms: C_5  and  C_8
REMARK    7  A    between atoms: C_12  and  C_21
REMARK    8  A    between atoms: N_23  and  C_24
REMARK    9  A    between atoms: C_24  and  C_26
REMARK   10  A    between atoms: C_24  and  C_27
REMARK   11  A    between atoms: C_33  and  C_37
REMARK                            x       y       z     vdW  Elec       q    Type
REMARK                         _______ _______ _______ _____ _____    ______ ____
ROOT
ATOM      1  C   UNL     1       1.889  -3.924   2.200  0.00  0.00    +0.218 C 
ATOM      2  O   UNL     1       1.619  -4.568   1.208  0.00  0.00    -0.275 OA
ATOM      3  N   UNL     1       2.333  -4.549   3.308  0.00  0.00    -0.300 N 
ATOM      4  C   UNL     1       2.602  -3.955   4.639  0.00  0.00    +0.121 C 
ATOM      5  C   UNL     1       2.098  -5.013   5.647  0.00  0.00    +0.100 C 
ATOM      6  C   UNL     1       2.143  -6.342   4.876  0.00  0.00    -0.004 C 
ATOM      7  C   UNL     1       2.657  -5.986   3.474  0.00  0.00    +0.115 C 
ATOM      8  C   UNL     1       3.097  -7.317   5.558  0.00  0.00    -0.010 C 
ATOM      9  C   UNL     1       3.080  -8.651   4.806  0.00  0.00    -0.082 C 
ATOM     10  N   UNL     1       1.716  -9.194   4.800  0.00  0.00    +0.379 N 
ATOM     11  C   UNL     1       0.823  -8.294   4.061  0.00  0.00    -0.082 C 
ATOM     12  C   UNL     1       0.744  -6.945   4.782  0.00  0.00    -0.010 C 
ATOM     13  H   UNL     1       1.719 -10.101   4.358  0.00  0.00    -0.086 HD
ATOM     14  H   UNL     1       1.388  -9.287   5.750  0.00  0.00    -0.086 HD
ENDROOT
BRANCH   5  15
ATOM     15  C   UNL     1       0.688  -4.699   6.076  0.00  0.00    +0.219 C 
ATOM     16  O   UNL     1      -0.041  -4.061   5.346  0.00  0.00    -0.275 OA
ATOM     17  N   UNL     1       0.236  -5.127   7.272  0.00  0.00    -0.305 N 
ATOM     18  H   UNL     1       0.819  -5.637   7.856  0.00  0.00    +0.149 HD
BRANCH  17  19
ATOM     19  C   UNL     1      -1.135  -4.822   7.689  0.00  0.00    +0.136 C 
ATOM     20  C   UNL     1      -2.088  -5.874   7.117  0.00  0.00    +0.036 C 
BRANCH  19  21
ATOM     21  C   UNL     1      -1.217  -4.835   9.193  0.00  0.00    +0.128 A 
ATOM     22  H   UNL     1      -2.839  -3.581   9.585  0.00  0.00    +0.167 HD
ATOM     23  N   UNL     1      -0.417  -5.497   9.977  0.00  0.00    -0.231 NA
ATOM     24  C   UNL     1      -0.771  -5.288  11.272  0.00  0.00    +0.089 A 
ATOM     25  C   UNL     1      -0.267  -5.742  12.493  0.00  0.00    +0.030 A 
ATOM     26  C   UNL     1      -0.854  -5.344  13.662  0.00  0.00    +0.005 A 
ATOM     27  C   UNL     1      -1.950  -4.493  13.649  0.00  0.00    -0.048 A 
ATOM     28  C   UNL     1      -2.464  -4.033  12.455  0.00  0.00    +0.031 A 
ATOM     29  C   UNL     1      -1.880  -4.426  11.259  0.00  0.00    +0.067 A 
ATOM     30  N   UNL     1      -2.135  -4.152   9.930  0.00  0.00    -0.340 N 
ATOM     31  C   UNL     1      -2.582  -4.067  14.949  0.00  0.00    +0.044 C 
ENDBRANCH  19  21
ENDBRANCH  17  19
ENDBRANCH   5  15
BRANCH   1  32
ATOM     32  C   UNL     1       1.727  -2.426   2.192  0.00  0.00    +0.072 C 
ATOM     33  C   UNL     1       0.525  -2.047   1.326  0.00  0.00    +0.017 C 
BRANCH  32  34
ATOM     34  C   UNL     1       2.991  -1.780   1.622  0.00  0.00    +0.012 C 
BRANCH  34  35
ATOM     35  C   UNL     1       2.879  -0.258   1.729  0.00  0.00    +0.000 C 
BRANCH  35  37
ATOM     36  C   UNL     1       4.030   1.911   1.266  0.00  0.00    +0.004 C 
ATOM     37  C   UNL     1       4.143   0.389   1.159  0.00  0.00    -0.003 C 
ENDBRANCH  35  37
ENDBRANCH  34  35
ENDBRANCH  32  34
ENDBRANCH   1  32
TORSDOF 7
