REMARK  Name = ZINC39670111
REMARK  6 active torsions:
REMARK  status: ('A' for Active; 'I' for Inactive)
REMARK    1  A    between atoms: C_1  and  C_2
REMARK    2  A    between atoms: C_7  and  C_11
REMARK    3  A    between atoms: C_11  and  N_12
REMARK    4  A    between atoms: C_13  and  C_15
REMARK    5  A    between atoms: C_26  and  C_28
REMARK    6  A    between atoms: C_32  and  C_35
REMARK                            x       y       z     vdW  Elec       q    Type
REMARK                         _______ _______ _______ _____ _____    ______ ____
ROOT
ATOM      1  C   UNL     1       3.154  -7.368   3.688  0.00  0.00    +0.100 C 
ATOM      2  C   UNL     1       3.796  -6.243   4.529  0.00  0.00    +0.121 C 
ATOM      3  N   UNL     1       3.604  -6.670   5.935  0.00  0.00    -0.296 N 
ATOM      4  C   UNL     1       3.838  -8.134   5.911  0.00  0.00    +0.115 C 
ATOM      5  C   UNL     1       3.187  -8.609   4.596  0.00  0.00    -0.004 C 
ATOM      6  C   UNL     1       4.028  -9.710   3.958  0.00  0.00    -0.010 C 
ATOM      7  C   UNL     1       3.998 -10.953   4.851  0.00  0.00    -0.082 C 
ATOM      8  N   UNL     1       2.611 -11.404   5.019  0.00  0.00    +0.379 N 
ATOM      9  C   UNL     1       1.831 -10.375   5.718  0.00  0.00    -0.082 C 
ATOM     10  C   UNL     1       1.770  -9.108   4.861  0.00  0.00    -0.010 C 
ATOM     11  C   UNL     1       3.288  -5.902   6.997  0.00  0.00    +0.251 C 
ATOM     12  O   UNL     1       3.165  -6.405   8.096  0.00  0.00    -0.270 OA
ATOM     13  H   UNL     1       2.202 -11.575   4.112  0.00  0.00    -0.086 HD
ATOM     14  H   UNL     1       2.599 -12.257   5.557  0.00  0.00    -0.086 HD
ENDROOT
BRANCH  11  15
ATOM     15  C   UNL     1       3.092  -4.449   6.824  0.00  0.00    +0.091 A 
ATOM     16  C   UNL     1       1.823  -3.942   6.531  0.00  0.00    +0.056 A 
ATOM     17  C   UNL     1       1.647  -2.582   6.371  0.00  0.00    +0.021 A 
ATOM     18  C   UNL     1       2.723  -1.721   6.500  0.00  0.00    +0.007 A 
ATOM     19  C   UNL     1       3.982  -2.214   6.788  0.00  0.00    -0.014 A 
ATOM     20  C   UNL     1       4.173  -3.573   6.957  0.00  0.00    +0.140 A 
ATOM     21  F   UNL     1       5.403  -4.053   7.245  0.00  0.00    -0.204 F 
ATOM     22  C   UNL     1       5.146  -1.268   6.925  0.00  0.00    +0.047 C 
ATOM     23 CL   UNL     1       0.471  -5.019   6.368  0.00  0.00    -0.083 Cl
ENDBRANCH  11  15
BRANCH   1  25
ATOM     24  N   UNL     1       1.155  -7.551   2.242  0.00  0.00    -0.309 N 
ATOM     25  C   UNL     1       1.732  -7.014   3.335  0.00  0.00    +0.219 C 
ATOM     26  O   UNL     1       1.107  -6.245   4.035  0.00  0.00    -0.275 OA
ATOM     27  H   UNL     1       1.655  -8.165   1.682  0.00  0.00    +0.149 HD
BRANCH  24  28
ATOM     28  C   UNL     1      -0.227  -7.206   1.899  0.00  0.00    +0.159 C 
BRANCH  28  35
ATOM     29  C   UNL     1      -1.546  -9.595  -4.986  0.00  0.00    +0.044 C 
ATOM     30  C   UNL     1      -1.507  -9.521  -3.481  0.00  0.00    -0.046 A 
ATOM     31  C   UNL     1      -2.078 -10.546  -2.709  0.00  0.00    +0.021 A 
ATOM     32  C   UNL     1      -2.044 -10.483  -1.361  0.00  0.00    +0.093 A 
ATOM     33  N   UNL     1      -1.456  -9.425  -0.730  0.00  0.00    -0.308 N 
ATOM     34  C   UNL     1      -1.286  -9.115   0.592  0.00  0.00    +0.115 A 
ATOM     35  C   UNL     1      -0.630  -7.935   0.643  0.00  0.00    +0.051 A 
ATOM     36  N   UNL     1      -0.398  -7.521  -0.605  0.00  0.00    -0.342 N 
ATOM     37  C   UNL     1      -0.890  -8.410  -1.457  0.00  0.00    +0.116 A 
ATOM     38  C   UNL     1      -0.913  -8.464  -2.865  0.00  0.00    +0.048 A 
ATOM     39  H   UNL     1       0.059  -6.701  -0.850  0.00  0.00    +0.167 HD
ENDBRANCH  28  35
ENDBRANCH  24  28
ENDBRANCH   1  25
TORSDOF 4
