REMARK  Name = ZINC10963166
REMARK  11 active torsions:
REMARK  status: ('A' for Active; 'I' for Inactive)
REMARK    1  A    between atoms: C_1  and  C_2
REMARK    2  A    between atoms: C_2  and  C_3
REMARK    3  A    between atoms: C_3  and  C_4
REMARK    4  A    between atoms: C_4  and  N_5
REMARK    5  A    between atoms: N_5  and  C_6
REMARK    6  A    between atoms: C_7  and  N_22
REMARK    7  A    between atoms: N_8  and  C_15
REMARK    8  A    between atoms: C_15  and  C_16
REMARK    9  A    between atoms: C_23  and  C_25
REMARK   10  A    between atoms: C_25  and  S_26
REMARK   11  A    between atoms: S_26  and  C_27
REMARK                            x       y       z     vdW  Elec       q    Type
REMARK                         _______ _______ _______ _____ _____    ______ ____
ROOT
ATOM      1  C   UNL     1       1.160   2.937   0.045  0.00  0.00    +0.140 A 
ATOM      2  C   UNL     1       0.748   2.269   1.181  0.00  0.00    +0.128 A 
ATOM      3  N   UNL     1      -0.425   1.552   1.149  0.00  0.00    -0.276 N 
ATOM      4  C   UNL     1      -1.165   1.506   0.027  0.00  0.00    +0.331 A 
ATOM      5  O   UNL     1      -2.202   0.870   0.021  0.00  0.00    -0.246 OA
ATOM      6  N   UNL     1      -0.777   2.146  -1.090  0.00  0.00    -0.273 N 
ATOM      7  H   UNL     1      -1.342   2.090  -1.914  0.00  0.00    +0.173 HD
ATOM      8  C   UNL     1       0.364   2.863  -1.113  0.00  0.00    +0.277 A 
ATOM      9  O   UNL     1       0.704   3.443  -2.130  0.00  0.00    -0.266 OA
ENDROOT
BRANCH   1  10
ATOM     10  N   UNL     1       2.359   3.681   0.046  0.00  0.00    -0.264 N 
ATOM     11  C   UNL     1       2.319   5.023  -0.093  0.00  0.00    +0.230 C 
ATOM     12  O   UNL     1       1.252   5.598  -0.129  0.00  0.00    -0.274 OA
BRANCH  10  13
ATOM     13  C   UNL     1       3.646   2.998   0.198  0.00  0.00    +0.114 C 
BRANCH  13  14
ATOM     14  C   UNL     1       4.247   2.731  -1.183  0.00  0.00    +0.019 C 
BRANCH  14  16
ATOM     15  C   UNL     1       6.193   1.750  -2.406  0.00  0.00    +0.004 C 
ATOM     16  C   UNL     1       5.591   2.017  -1.024  0.00  0.00    -0.002 C 
ENDBRANCH  14  16
ENDBRANCH  13  14
ENDBRANCH  10  13
BRANCH  11  17
ATOM     17  C   UNL     1       3.602   5.806  -0.205  0.00  0.00    +0.175 C 
BRANCH  17  18
ATOM     18  S   UNL     1       3.220   7.567  -0.380  0.00  0.00    -0.058 S 
BRANCH  18  19
ATOM     19  C   UNL     1       4.851   8.225  -0.486  0.00  0.00    +0.258 A 
ATOM     20  N   UNL     1       5.951   7.517  -0.432  0.00  0.00    -0.203 NA
ATOM     21  C   UNL     1       7.016   8.356  -0.549  0.00  0.00    +0.110 A 
ATOM     22  C   UNL     1       8.398   8.162  -0.560  0.00  0.00    +0.031 A 
ATOM     23  C   UNL     1       9.239   9.246  -0.691  0.00  0.00    +0.002 A 
ATOM     24  C   UNL     1       8.720  10.526  -0.813  0.00  0.00    +0.004 A 
ATOM     25  C   UNL     1       7.354  10.731  -0.804  0.00  0.00    +0.048 A 
ATOM     26  C   UNL     1       6.495   9.653  -0.673  0.00  0.00    +0.156 A 
ATOM     27  O   UNL     1       5.148   9.529  -0.629  0.00  0.00    -0.431 OA
ENDBRANCH  18  19
ENDBRANCH  17  18
ENDBRANCH  11  17
ENDBRANCH   1  10
BRANCH   2  28
ATOM     28  N   UNL     1       1.502   2.319   2.329  0.00  0.00    -0.343 N 
ATOM     29  H   UNL     1       2.349   2.791   2.333  0.00  0.00    +0.144 HD
ATOM     30  H   UNL     1       1.187   1.883   3.135  0.00  0.00    +0.144 HD
ENDBRANCH   2  28
BRANCH   3  31
ATOM     31  C   UNL     1      -0.874   0.838   2.347  0.00  0.00    +0.163 C 
BRANCH  31  32
ATOM     32  C   UNL     1      -1.744   1.746   3.177  0.00  0.00    -0.028 A 
ATOM     33  C   UNL     1      -1.178   2.544   4.153  0.00  0.00    +0.005 A 
ATOM     34  C   UNL     1      -1.975   3.381   4.911  0.00  0.00    +0.000 A 
ATOM     35  C   UNL     1      -3.341   3.412   4.699  0.00  0.00    +0.000 A 
ATOM     36  C   UNL     1      -3.908   2.611   3.726  0.00  0.00    +0.000 A 
ATOM     37  C   UNL     1      -3.110   1.778   2.965  0.00  0.00    +0.005 A 
ENDBRANCH  31  32
ENDBRANCH   3  31
TORSDOF 10
