REMARK  Name = ZINC44450982
REMARK  3 active torsions:
REMARK  status: ('A' for Active; 'I' for Inactive)
REMARK    1  A    between atoms: C_5  and  C_6
REMARK    2  A    between atoms: N_8  and  C_9
REMARK    3  A    between atoms: C_15  and  N_17
REMARK                            x       y       z     vdW  Elec       q    Type
REMARK                         _______ _______ _______ _____ _____    ______ ____
ROOT
ATOM      1  C   UNL     1      -2.187  -3.096   0.007  0.00  0.00    +0.094 C 
ATOM      2  C   UNL     1      -2.657  -3.308   1.448  0.00  0.00    +0.024 C 
ATOM      3  C   UNL     1      -3.882  -4.224   1.455  0.00  0.00    +0.002 C 
ATOM      4  C   UNL     1      -3.515  -5.573   0.834  0.00  0.00    +0.002 C 
ATOM      5  C   UNL     1      -3.045  -5.361  -0.606  0.00  0.00    +0.025 C 
ATOM      6  C   UNL     1      -1.819  -4.446  -0.613  0.00  0.00    +0.105 C 
ENDROOT
BRANCH   6   7
ATOM      7  N   UNL     1      -1.370  -4.242  -1.993  0.00  0.00    -0.228 N 
ATOM      8  C   UNL     1      -0.146  -4.624  -2.315  0.00  0.00    +0.233 C 
ATOM      9  O   UNL     1       0.608  -5.132  -1.512  0.00  0.00    -0.274 OA
ATOM     10  C   UNL     1       0.253  -4.383  -3.764  0.00  0.00    +0.175 C 
ATOM     11  S   UNL     1      -1.299  -3.617  -4.393  0.00  0.00    -0.058 S 
ATOM     12  C   UNL     1      -2.227  -3.682  -2.867  0.00  0.00    +0.281 C 
ATOM     13  O   UNL     1      -3.365  -3.306  -2.664  0.00  0.00    -0.262 OA
ENDBRANCH   6   7
BRANCH   1  16
ATOM     14  C   UNL     1      -1.172  -0.881   0.009  0.00  0.00    +0.280 C 
ATOM     15  O   UNL     1      -2.290  -0.401   0.023  0.00  0.00    -0.267 OA
ATOM     16  N   UNL     1      -1.014  -2.220   0.000  0.00  0.00    -0.304 N 
ATOM     17  H   UNL     1      -0.122  -2.602  -0.011  0.00  0.00    +0.149 HD
BRANCH  14  22
ATOM     18  C   UNL     1      -0.016   1.362   0.009  0.00  0.00    +0.056 A 
ATOM     19  C   UNL     1       1.321   1.784  -0.001  0.00  0.00    +0.058 A 
ATOM     20  C   UNL     1       2.090   0.670  -0.014  0.00  0.00    +0.171 A 
ATOM     21  O   UNL     1       1.291  -0.405  -0.012  0.00  0.00    -0.444 OA
ATOM     22  C   UNL     1       0.002  -0.004   0.002  0.00  0.00    +0.191 A 
ATOM     23 BR   UNL     1       3.981   0.637  -0.033  0.00  0.00    -0.008 Br
ENDBRANCH  14  22
ENDBRANCH   1  16
TORSDOF 3
