REMARK  Name = ZINC15787722
REMARK  7 active torsions:
REMARK  status: ('A' for Active; 'I' for Inactive)
REMARK    1  A    between atoms: N_12  and  C_13
REMARK    2  A    between atoms: C_13  and  C_14
REMARK    3  A    between atoms: C_14  and  C_15
REMARK    4  A    between atoms: N_17  and  C_18
REMARK    5  A    between atoms: C_18  and  C_19
REMARK    6  A    between atoms: C_19  and  C_21
REMARK    7  A    between atoms: C_19  and  N_56
REMARK                            x       y       z     vdW  Elec       q    Type
REMARK                         _______ _______ _______ _____ _____    ______ ____
ROOT
ATOM      1  C   UNL     1      -0.257   1.817  -0.435  0.00  0.00    +0.214 C 
ATOM      2  O   UNL     1      -1.255   2.500  -0.340  0.00  0.00    -0.276 OA
ATOM      3  N   UNL     1       0.961   2.384  -0.326  0.00  0.00    -0.316 N 
ATOM      4  H   UNL     1       1.759   1.838  -0.406  0.00  0.00    +0.149 HD
ENDROOT
BRANCH   1   5
ATOM      5  C   UNL     1      -0.379   0.335  -0.682  0.00  0.00    +0.114 C 
BRANCH   5   6
ATOM      6  C   UNL     1      -1.858  -0.048  -0.765  0.00  0.00    +0.112 C 
BRANCH   6  18
ATOM      7  C   UNL     1      -2.727  -5.813  -1.730  0.00  0.00    +0.001 A 
ATOM      8  C   UNL     1      -4.058  -6.182  -1.808  0.00  0.00    +0.002 A 
ATOM      9  C   UNL     1      -5.044  -5.217  -1.661  0.00  0.00    +0.030 A 
ATOM     10  C   UNL     1      -4.690  -3.918  -1.442  0.00  0.00    +0.123 A 
ATOM     11  C   UNL     1      -3.350  -3.512  -1.363  0.00  0.00    +0.043 A 
ATOM     12  C   UNL     1      -2.366  -4.503  -1.509  0.00  0.00    +0.013 A 
ATOM     13  C   UNL     1      -3.222  -2.068  -1.117  0.00  0.00    +0.150 C 
ATOM     14  N   UNL     1      -4.292  -1.346  -1.011  0.00  0.00    -0.113 NA
ATOM     15  S   UNL     1      -5.576  -2.402  -1.202  0.00  0.00    +0.101 S 
ATOM     16  O   UNL     1      -6.254  -2.490   0.044  0.00  0.00    -0.146 OA
ATOM     17  O   UNL     1      -6.223  -2.080  -2.425  0.00  0.00    -0.146 OA
ATOM     18  N   UNL     1      -1.977  -1.488  -1.005  0.00  0.00    -0.327 N 
ATOM     19  H   UNL     1      -1.179  -2.034  -1.085  0.00  0.00    +0.148 HD
ENDBRANCH   6  18
ENDBRANCH   5   6
ENDBRANCH   1   5
BRANCH   3  20
ATOM     20  C   UNL     1       1.079   3.824  -0.086  0.00  0.00    +0.093 C 
BRANCH  20  21
ATOM     21  C   UNL     1       2.551   4.186   0.126  0.00  0.00    -0.019 C 
BRANCH  21  22
ATOM     22  C   UNL     1       3.053   3.532   1.387  0.00  0.00    -0.041 A 
ATOM     23  C   UNL     1       3.789   2.364   1.315  0.00  0.00    +0.003 A 
ATOM     24  C   UNL     1       4.253   1.766   2.471  0.00  0.00    +0.000 A 
ATOM     25  C   UNL     1       3.974   2.331   3.702  0.00  0.00    +0.001 A 
ATOM     26  C   UNL     1       3.234   3.496   3.776  0.00  0.00    +0.020 A 
ATOM     27  C   UNL     1       2.773   4.097   2.618  0.00  0.00    +0.043 A 
ATOM     28 CL   UNL     1       1.843   5.560   2.711  0.00  0.00    -0.083 Cl
ENDBRANCH  21  22
BRANCH  21  33
ATOM     29  C   UNL     1       2.795   4.240  -2.296  0.00  0.00    -0.078 C 
ATOM     30  C   UNL     1       3.989   4.105  -3.274  0.00  0.00    -0.020 C 
ATOM     31  C   UNL     1       5.205   4.455  -2.386  0.00  0.00    -0.020 C 
ATOM     32  C   UNL     1       4.733   4.206  -0.941  0.00  0.00    -0.078 C 
ATOM     33  N   UNL     1       3.357   3.717  -1.041  0.00  0.00    +0.385 N 
ATOM     34  H   UNL     1       3.355   2.691  -1.061  0.00  0.00    -0.081 HD
ENDBRANCH  21  33
ENDBRANCH  20  21
ENDBRANCH   3  20
TORSDOF 7
