REMARK  Name = ZINC65182815
REMARK  11 active torsions:
REMARK  status: ('A' for Active; 'I' for Inactive)
REMARK    1  A    between atoms: C_1  and  C_2
REMARK    2  A    between atoms: C_7  and  C_13
REMARK    3  A    between atoms: C_9  and  C_12
REMARK    4  A    between atoms: C_16  and  C_19
REMARK    5  A    between atoms: C_19  and  C_20
REMARK    6  A    between atoms: C_20  and  N_21
REMARK    7  A    between atoms: N_21  and  C_22
REMARK    8  A    between atoms: C_23  and  C_25
REMARK    9  A    between atoms: C_28  and  O_32
REMARK   10  A    between atoms: C_30  and  C_31
REMARK   11  A    between atoms: O_32  and  C_33
REMARK                            x       y       z     vdW  Elec       q    Type
REMARK                         _______ _______ _______ _____ _____    ______ ____
ROOT
ATOM      1  C   UNL     1      -1.413  -5.038   1.969  0.00  0.00    +0.318 C 
ATOM      2  N   UNL     1      -1.536  -6.403   1.433  0.00  0.00    -0.291 N 
ATOM      3  C   UNL     1      -2.538  -6.372   0.492  0.00  0.00    +0.139 C 
ATOM      4  N   UNL     1      -3.040  -5.197   0.376  0.00  0.00    -0.072 NA
ATOM      5  O   UNL     1      -2.408  -4.284   1.258  0.00  0.00    -0.367 OA
ATOM      6  H   UNL     1      -1.012  -7.176   1.694  0.00  0.00    +0.151 HD
ENDROOT
BRANCH   1  13
ATOM      7  C   UNL     1       1.062   1.210  -0.196  0.00  0.00    +0.044 C 
ATOM      8  C   UNL     1       0.831  -0.276  -0.091  0.00  0.00    -0.050 A 
ATOM      9  C   UNL     1       0.867  -1.056  -1.255  0.00  0.00    +0.005 A 
ATOM     10  C   UNL     1       0.670  -2.391  -1.244  0.00  0.00    +0.026 A 
ATOM     11  C   UNL     1       0.412  -3.070  -0.021  0.00  0.00    +0.043 A 
ATOM     12  N   UNL     1       0.191  -4.334   0.245  0.00  0.00    -0.373 N 
ATOM     13  C   UNL     1      -0.017  -4.478   1.691  0.00  0.00    +0.168 C 
ATOM     14  C   UNL     1       0.113  -3.086   2.269  0.00  0.00    -0.036 C 
ATOM     15  C   UNL     1       0.369  -2.268   1.222  0.00  0.00    -0.001 A 
ATOM     16  C   UNL     1       0.600  -0.822   1.124  0.00  0.00    +0.013 A 
ATOM     17  C   UNL     1      -0.017  -2.691   3.717  0.00  0.00    +0.042 C 
ATOM     18  H   UNL     1       0.169  -5.054  -0.404  0.00  0.00    +0.160 HD
ENDBRANCH   1  13
BRANCH   3  19
ATOM     19  C   UNL     1      -2.990  -7.569  -0.305  0.00  0.00    +0.094 C 
BRANCH  19  20
ATOM     20  C   UNL     1      -4.119  -7.155  -1.251  0.00  0.00    +0.115 C 
BRANCH  20  21
ATOM     21  N   UNL     1      -4.558  -8.319  -2.025  0.00  0.00    -0.300 N 
ATOM     22  C   UNL     1      -5.631  -9.177  -1.514  0.00  0.00    +0.132 C 
ATOM     23  C   UNL     1      -3.976  -8.600  -3.208  0.00  0.00    +0.247 C 
ATOM     24  O   UNL     1      -3.021  -7.949  -3.585  0.00  0.00    -0.270 OA
BRANCH  23  25
ATOM     25  C   UNL     1      -4.497  -9.698  -4.045  0.00  0.00    +0.040 A 
ATOM     26  C   UNL     1      -5.868  -9.795  -4.299  0.00  0.00    +0.017 A 
ATOM     27  C   UNL     1      -6.351 -10.821  -5.080  0.00  0.00    +0.046 A 
ATOM     28  C   UNL     1      -5.476 -11.759  -5.616  0.00  0.00    +0.120 A 
ATOM     29  C   UNL     1      -4.112 -11.666  -5.366  0.00  0.00    +0.049 A 
ATOM     30  C   UNL     1      -3.621 -10.640  -4.590  0.00  0.00    -0.035 A 
ATOM     31  C   UNL     1      -2.142 -10.537  -4.324  0.00  0.00    +0.044 C 
BRANCH  28  32
ATOM     32  O   UNL     1      -5.956 -12.769  -6.386  0.00  0.00    -0.495 OA
ATOM     33  C   UNL     1      -7.368 -12.805  -6.603  0.00  0.00    +0.277 C 
ENDBRANCH  28  32
ENDBRANCH  23  25
ENDBRANCH  20  21
ENDBRANCH  19  20
ENDBRANCH   3  19
TORSDOF 6
