REMARK  Name = ZINC35172368
REMARK  14 active torsions:
REMARK  status: ('A' for Active; 'I' for Inactive)
REMARK    1  A    between atoms: C_1  and  C_2
REMARK    2  A    between atoms: C_9  and  C_20
REMARK    3  A    between atoms: C_10  and  N_11
REMARK    4  A    between atoms: N_11  and  C_12
REMARK    5  A    between atoms: C_12  and  C_13
REMARK    6  A    between atoms: C_12  and  C_14
REMARK    7  A    between atoms: C_12  and  C_15
REMARK    8  A    between atoms: C_15  and  C_16
REMARK    9  A    between atoms: C_16  and  C_17
REMARK   10  A    between atoms: C_16  and  C_18
REMARK   11  A    between atoms: C_16  and  C_19
REMARK   12  A    between atoms: C_23  and  N_26
REMARK   13  A    between atoms: N_26  and  C_27
REMARK   14  A    between atoms: N_26  and  C_28
REMARK                            x       y       z     vdW  Elec       q    Type
REMARK                         _______ _______ _______ _____ _____    ______ ____
ROOT
ATOM      1  C   UNL     1      -0.890   1.289  -4.549  0.00  0.00    +0.044 C 
ATOM      2  C   UNL     1      -0.608   0.003  -3.816  0.00  0.00    -0.046 A 
ATOM      3  C   UNL     1      -1.141  -1.210  -4.289  0.00  0.00    +0.021 A 
ATOM      4  C   UNL     1      -0.892  -2.364  -3.638  0.00  0.00    +0.094 A 
ATOM      5  N   UNL     1      -0.117  -2.373  -2.509  0.00  0.00    -0.289 N 
ATOM      6  C   UNL     1       0.418  -1.202  -2.022  0.00  0.00    +0.117 A 
ATOM      7  C   UNL     1       0.167   0.010  -2.699  0.00  0.00    +0.048 A 
ATOM      8  N   UNL     1       1.117  -1.479  -0.934  0.00  0.00    -0.338 N 
ATOM      9  C   UNL     1       1.057  -2.801  -0.692  0.00  0.00    +0.087 A 
ATOM     10  C   UNL     1       0.282  -3.380  -1.675  0.00  0.00    +0.129 A 
ATOM     11  H   UNL     1       1.599  -0.831  -0.396  0.00  0.00    +0.167 HD
ENDROOT
BRANCH   9  12
ATOM     12  C   UNL     1       1.709  -3.511   0.434  0.00  0.00    +0.002 A 
ATOM     13  C   UNL     1       2.366  -4.721   0.210  0.00  0.00    +0.012 A 
ATOM     14  C   UNL     1       2.972  -5.379   1.259  0.00  0.00    +0.024 A 
ATOM     15  C   UNL     1       2.928  -4.838   2.539  0.00  0.00    +0.029 A 
ATOM     16  C   UNL     1       2.274  -3.633   2.765  0.00  0.00    +0.024 A 
ATOM     17  C   UNL     1       1.671  -2.968   1.718  0.00  0.00    +0.012 A 
BRANCH  15  18
ATOM     18  N   UNL     1       3.543  -5.508   3.600  0.00  0.00    -0.336 N 
ATOM     19  C   UNL     1       4.328  -6.718   3.347  0.00  0.00    +0.129 C 
ATOM     20  C   UNL     1       3.402  -4.999   4.967  0.00  0.00    +0.129 C 
ENDBRANCH  15  18
ENDBRANCH   9  12
BRANCH  10  21
ATOM     21  N   UNL     1      -0.033  -4.735  -1.795  0.00  0.00    -0.323 N 
ATOM     22  H   UNL     1       0.186  -5.350  -1.078  0.00  0.00    +0.148 HD
BRANCH  21  23
ATOM     23  C   UNL     1      -0.696  -5.228  -3.005  0.00  0.00    +0.028 C 
ATOM     24  C   UNL     1      -2.105  -4.639  -3.091  0.00  0.00    +0.031 C 
ATOM     25  C   UNL     1       0.109  -4.805  -4.236  0.00  0.00    +0.031 C 
BRANCH  23  26
ATOM     26  C   UNL     1      -0.783  -6.755  -2.953  0.00  0.00    +0.031 C 
BRANCH  26  27
ATOM     27  C   UNL     1       0.505  -7.319  -2.350  0.00  0.00    -0.036 C 
ATOM     28  C   UNL     1       0.323  -7.503  -0.842  0.00  0.00    +0.010 C 
ATOM     29  C   UNL     1       0.820  -8.670  -2.994  0.00  0.00    +0.010 C 
ATOM     30  C   UNL     1       1.658  -6.348  -2.610  0.00  0.00    +0.010 C 
ENDBRANCH  26  27
ENDBRANCH  23  26
ENDBRANCH  21  23
ENDBRANCH  10  21
TORSDOF 6
