REMARK  Name = ZINC63933114
REMARK  7 active torsions:
REMARK  status: ('A' for Active; 'I' for Inactive)
REMARK    1  A    between atoms: C_1  and  C_2
REMARK    2  A    between atoms: C_7  and  N_8
REMARK    3  A    between atoms: C_9  and  O_35
REMARK    4  A    between atoms: C_12  and  O_34
REMARK    5  A    between atoms: C_13  and  C_17
REMARK    6  A    between atoms: C_24  and  O_29
REMARK    7  A    between atoms: O_29  and  C_30
REMARK                            x       y       z     vdW  Elec       q    Type
REMARK                         _______ _______ _______ _____ _____    ______ ____
ROOT
ATOM      1  N   UNL     1       3.286   1.763   2.973  0.00  0.00    -0.225 N 
ATOM      2  C   UNL     1       3.114   0.656   2.043  0.00  0.00    +0.338 C 
ATOM      3  N   UNL     1       1.759   0.131   2.060  0.00  0.00    -0.204 NA
ATOM      4  C   UNL     1       0.935   0.303   3.020  0.00  0.00    +0.200 C 
ATOM      5  C   UNL     1       1.276   1.082   4.257  0.00  0.00    +0.179 C 
ATOM      6  C   UNL     1       2.461   1.971   4.007  0.00  0.00    +0.237 C 
ATOM      7  O   UNL     1       2.673   2.901   4.757  0.00  0.00    -0.274 OA
ENDROOT
BRANCH   5   8
ATOM      8  C   UNL     1       1.612   0.111   5.390  0.00  0.00    +0.101 C 
ATOM      9  C   UNL     1       1.848   0.892   6.685  0.00  0.00    +0.124 C 
ATOM     10  C   UNL     1       2.341  -0.123   7.711  0.00  0.00    -0.036 C 
ATOM     11  C   UNL     1       1.540  -0.014   8.761  0.00  0.00    +0.003 A 
ATOM     12  C   UNL     1       1.557  -0.658  10.084  0.00  0.00    +0.055 A 
ATOM     13  C   UNL     1       0.554  -0.321  10.941  0.00  0.00    +0.121 A 
ATOM     14  C   UNL     1      -0.469   0.587  10.632  0.00  0.00    +0.047 A 
ATOM     15  C   UNL     1      -0.578   1.240   9.447  0.00  0.00    +0.029 A 
ATOM     16  C   UNL     1       0.454   0.963   8.438  0.00  0.00    +0.043 A 
ATOM     17  N   UNL     1       0.617   1.462   7.230  0.00  0.00    -0.376 N 
ATOM     18  C   UNL     1       3.472  -1.074   7.403  0.00  0.00    +0.048 C 
ATOM     19  C   UNL     1       3.157  -1.685   6.026  0.00  0.00    +0.085 C 
ATOM     20  N   UNL     1       2.843  -0.626   5.063  0.00  0.00    -0.310 NA
ATOM     21  H   UNL     1       2.807  -0.990   4.122  0.00  0.00    +0.122 HD
ATOM     22  H   UNL     1       0.032   2.089   6.776  0.00  0.00    +0.160 HD
BRANCH  13  23
ATOM     23  O   UNL     1       0.543  -0.901  12.170  0.00  0.00    -0.495 OA
ATOM     24  C   UNL     1      -0.519  -0.532  13.052  0.00  0.00    +0.277 C 
ENDBRANCH  13  23
ENDBRANCH   5   8
BRANCH   1  31
ATOM     25  C   UNL     1       2.869   4.059   1.343  0.00  0.00    +0.045 C 
ATOM     26  C   UNL     1       4.198   3.774   1.994  0.00  0.00    -0.029 A 
ATOM     27  C   UNL     1       5.257   4.642   1.811  0.00  0.00    +0.005 A 
ATOM     28  C   UNL     1       6.477   4.381   2.407  0.00  0.00    +0.000 A 
ATOM     29  C   UNL     1       6.641   3.251   3.188  0.00  0.00    +0.002 A 
ATOM     30  C   UNL     1       5.586   2.380   3.375  0.00  0.00    +0.024 A 
ATOM     31  C   UNL     1       4.358   2.642   2.781  0.00  0.00    +0.043 A 
ENDBRANCH   1  31
BRANCH   4  32
ATOM     32  O   UNL     1      -0.296  -0.239   2.918  0.00  0.00    -0.495 OA
ATOM     33  H   UNL     1      -0.445  -0.725   2.096  0.00  0.00    +0.293 HD
ENDBRANCH   4  32
BRANCH   2  34
ATOM     34  O   UNL     1       3.418   1.109   0.722  0.00  0.00    -0.356 OA
ATOM     35  H   UNL     1       3.327   0.427   0.042  0.00  0.00    +0.214 HD
ENDBRANCH   2  34
TORSDOF 5
