REMARK  Name = ZINC39914424
REMARK  13 active torsions:
REMARK  status: ('A' for Active; 'I' for Inactive)
REMARK    1  A    between atoms: C_1  and  C_2
REMARK    2  A    between atoms: C_2  and  C_3
REMARK    3  A    between atoms: C_3  and  C_4
REMARK    4  A    between atoms: C_4  and  C_5
REMARK    5  A    between atoms: C_5  and  N_6
REMARK    6  A    between atoms: C_7  and  C_26
REMARK    7  A    between atoms: C_10  and  C_17
REMARK    8  A    between atoms: C_20  and  C_24
REMARK    9  A    between atoms: C_22  and  O_23
REMARK   10  A    between atoms: C_29  and  O_35
REMARK   11  A    between atoms: C_30  and  O_32
REMARK   12  A    between atoms: O_32  and  C_33
REMARK   13  A    between atoms: C_33  and  C_34
REMARK                            x       y       z     vdW  Elec       q    Type
REMARK                         _______ _______ _______ _____ _____    ______ ____
ROOT
ATOM      1  N   UNL     1      -2.954  -4.344   0.249  0.00  0.00    -0.285 N 
ATOM      2  C   UNL     1      -2.905  -4.822  -1.140  0.00  0.00    +0.141 C 
ATOM      3  C   UNL     1      -2.639  -6.300  -1.063  0.00  0.00    +0.035 A 
ATOM      4  C   UNL     1      -2.443  -7.500  -1.754  0.00  0.00    +0.102 A 
ATOM      5  N   UNL     1      -2.251  -8.446  -0.855  0.00  0.00    -0.173 NA
ATOM      6  N   UNL     1      -2.306  -7.962   0.334  0.00  0.00    -0.272 N 
ATOM      7  H   UNL     1      -2.192  -8.474   1.150  0.00  0.00    +0.189 HD
ATOM      8  C   UNL     1      -2.547  -6.618   0.279  0.00  0.00    +0.126 A 
ATOM      9  C   UNL     1      -2.739  -5.393   1.063  0.00  0.00    +0.265 C 
ATOM     10  O   UNL     1      -2.712  -5.335   2.277  0.00  0.00    -0.268 OA
ENDROOT
BRANCH   4  11
ATOM     11  C   UNL     1      -2.450  -7.677  -3.227  0.00  0.00    +0.045 A 
ATOM     12  C   UNL     1      -2.522  -6.567  -4.064  0.00  0.00    +0.034 A 
ATOM     13  C   UNL     1      -2.528  -6.737  -5.435  0.00  0.00    +0.045 A 
ATOM     14  C   UNL     1      -2.464  -8.008  -5.980  0.00  0.00    -0.029 A 
ATOM     15  C   UNL     1      -2.393  -9.116  -5.157  0.00  0.00    +0.050 A 
ATOM     16  C   UNL     1      -2.380  -8.959  -3.780  0.00  0.00    +0.126 A 
ATOM     17  C   UNL     1      -2.472  -8.184  -7.477  0.00  0.00    +0.045 C 
ATOM     18 CL   UNL     1      -2.617  -5.352  -6.478  0.00  0.00    -0.083 Cl
BRANCH  16  19
ATOM     19  O   UNL     1      -2.304 -10.047  -2.971  0.00  0.00    -0.506 OA
ATOM     20  H   UNL     1      -3.164 -10.416  -2.726  0.00  0.00    +0.292 HD
ENDBRANCH  16  19
ENDBRANCH   4  11
BRANCH   2  21
ATOM     21  C   UNL     1      -4.224  -4.565  -1.823  0.00  0.00    -0.019 A 
ATOM     22  C   UNL     1      -4.249  -3.997  -3.083  0.00  0.00    +0.009 A 
ATOM     23  C   UNL     1      -5.456  -3.760  -3.714  0.00  0.00    +0.049 A 
ATOM     24  C   UNL     1      -6.644  -4.092  -3.084  0.00  0.00    +0.158 A 
ATOM     25  C   UNL     1      -6.619  -4.665  -1.816  0.00  0.00    +0.162 A 
ATOM     26  C   UNL     1      -5.405  -4.904  -1.191  0.00  0.00    +0.055 A 
BRANCH  24  27
ATOM     27  O   UNL     1      -7.832  -3.859  -3.703  0.00  0.00    -0.503 OA
ATOM     28  H   UNL     1      -8.144  -4.596  -4.246  0.00  0.00    +0.292 HD
ENDBRANCH  24  27
BRANCH  25  29
ATOM     29  O   UNL     1      -7.782  -4.993  -1.193  0.00  0.00    -0.489 OA
BRANCH  29  30
ATOM     30  C   UNL     1      -7.687  -5.473   0.150  0.00  0.00    +0.226 C 
ATOM     31  C   UNL     1      -9.092  -5.677   0.720  0.00  0.00    +0.048 C 
ENDBRANCH  29  30
ENDBRANCH  25  29
ENDBRANCH   2  21
BRANCH   1  32
ATOM     32  C   UNL     1      -3.190  -2.962   0.673  0.00  0.00    +0.109 C 
BRANCH  32  33
ATOM     33  C   UNL     1      -1.853  -2.225   0.777  0.00  0.00    +0.019 C 
BRANCH  33  34
ATOM     34  C   UNL     1      -2.099  -0.782   1.220  0.00  0.00    +0.001 C 
BRANCH  34  36
ATOM     35  C   UNL     1      -1.008   1.398   1.768  0.00  0.00    +0.004 C 
ATOM     36  C   UNL     1      -0.762  -0.045   1.324  0.00  0.00    -0.003 C 
ENDBRANCH  34  36
ENDBRANCH  33  34
ENDBRANCH  32  33
ENDBRANCH   1  32
TORSDOF 10
