REMARK  Name = ZINC08315241
REMARK  7 active torsions:
REMARK  status: ('A' for Active; 'I' for Inactive)
REMARK    1  A    between atoms: C_1  and  C_2
REMARK    2  A    between atoms: C_12  and  C_14
REMARK    3  A    between atoms: C_14  and  C_16
REMARK    4  A    between atoms: C_14  and  S_17
REMARK    5  A    between atoms: S_17  and  C_18
REMARK    6  A    between atoms: C_21  and  C_24
REMARK    7  A    between atoms: N_22  and  N_23
REMARK                            x       y       z     vdW  Elec       q    Type
REMARK                         _______ _______ _______ _____ _____    ______ ____
ROOT
ATOM      1  S   UNL     1       3.162   7.168  -0.508  0.00  0.00    -0.072 S 
ENDROOT
BRANCH   1   2
ATOM      2  C   UNL     1       4.748   6.417  -0.355  0.00  0.00    +0.209 A 
ATOM      3  N   UNL     1       4.997   5.203   0.084  0.00  0.00    -0.121 NA
ATOM      4  N   UNL     1       6.261   4.977   0.063  0.00  0.00    -0.127 NA
ATOM      5  C   UNL     1       6.899   6.035  -0.383  0.00  0.00    +0.184 A 
ATOM      6  N   UNL     1       5.949   6.989  -0.664  0.00  0.00    -0.224 N 
BRANCH   5   7
ATOM      7  C   UNL     1       8.361   6.173  -0.551  0.00  0.00    +0.056 A 
ATOM      8  C   UNL     1       9.010   7.330  -0.115  0.00  0.00    +0.014 A 
ATOM      9  C   UNL     1      10.375   7.451  -0.271  0.00  0.00    +0.001 A 
ATOM     10  C   UNL     1      11.101   6.435  -0.866  0.00  0.00    +0.003 A 
ATOM     11  C   UNL     1      10.465   5.288  -1.305  0.00  0.00    +0.039 A 
ATOM     12  C   UNL     1       9.099   5.150  -1.152  0.00  0.00    +0.134 A 
ATOM     13  F   UNL     1       8.478   4.029  -1.581  0.00  0.00    -0.205 F 
ENDBRANCH   5   7
BRANCH   6  14
ATOM     14  N   UNL     1       6.162   8.248  -1.152  0.00  0.00    -0.295 N 
ATOM     15  H   UNL     1       6.373   8.893  -0.406  0.00  0.00    +0.163 HD
ATOM     16  H   UNL     1       6.894   8.247  -1.846  0.00  0.00    +0.163 HD
ENDBRANCH   6  14
ENDBRANCH   1   2
BRANCH   1  17
ATOM     17  C   UNL     1       2.114   5.814   0.080  0.00  0.00    +0.137 C 
ATOM     18  C   UNL     1       2.412   5.544   1.556  0.00  0.00    +0.029 C 
BRANCH  17  29
ATOM     19  C   UNL     1      -2.156   6.475   1.095  0.00  0.00    +0.029 C 
ATOM     20  C   UNL     1      -1.736   5.517  -0.022  0.00  0.00    +0.083 C 
ATOM     21  C   UNL     1      -2.402   4.145   0.175  0.00  0.00    +0.059 C 
ATOM     22  C   UNL     1      -1.248   3.182   0.344  0.00  0.00    -0.024 A 
ATOM     23  C   UNL     1      -1.231   1.816   0.546  0.00  0.00    +0.005 A 
ATOM     24  C   UNL     1      -0.028   1.148   0.676  0.00  0.00    +0.000 A 
ATOM     25  C   UNL     1       1.161   1.851   0.593  0.00  0.00    +0.002 A 
ATOM     26  C   UNL     1       1.149   3.213   0.385  0.00  0.00    +0.024 A 
ATOM     27  C   UNL     1      -0.063   3.895   0.258  0.00  0.00    +0.040 A 
ATOM     28  N   UNL     1      -0.296   5.258   0.045  0.00  0.00    -0.267 N 
ATOM     29  C   UNL     1       0.665   6.195  -0.079  0.00  0.00    +0.233 C 
ATOM     30  O   UNL     1       0.362   7.345  -0.318  0.00  0.00    -0.274 OA
ENDBRANCH  17  29
ENDBRANCH   1  17
TORSDOF 5
