REMARK  Name = ZINC21234566
REMARK  8 active torsions:
REMARK  status: ('A' for Active; 'I' for Inactive)
REMARK    1  A    between atoms: C_1  and  C_2
REMARK    2  A    between atoms: C_2  and  C_3
REMARK    3  A    between atoms: C_2  and  O_4
REMARK    4  A    between atoms: O_4  and  C_5
REMARK    5  A    between atoms: C_6  and  C_13
REMARK    6  A    between atoms: C_10  and  O_11
REMARK    7  A    between atoms: O_11  and  C_12
REMARK    8  A    between atoms: C_18  and  C_23
REMARK                            x       y       z     vdW  Elec       q    Type
REMARK                         _______ _______ _______ _____ _____    ______ ____
ROOT
ATOM      1  C   UNL     1      -2.111  -0.495   1.379  0.00  0.00    +0.140 C 
ATOM      2  C   UNL     1      -2.631   0.891   1.672  0.00  0.00    +0.037 C 
ATOM      3  C   UNL     1      -2.253   2.023   1.053  0.00  0.00    +0.017 C 
ATOM      4  C   UNL     1      -2.845   3.361   1.464  0.00  0.00    +0.059 C 
ATOM      5  C   UNL     1      -4.285   3.171   1.935  0.00  0.00    +0.033 C 
ATOM      6  C   UNL     1      -4.263   2.208   3.128  0.00  0.00    +0.088 C 
ATOM      7  C   UNL     1      -3.603   0.932   2.699  0.00  0.00    +0.163 C 
ATOM      8  O   UNL     1      -3.915  -0.104   3.253  0.00  0.00    -0.292 OA
ATOM      9  N   UNL     1      -1.343   2.087   0.050  0.00  0.00    -0.316 N 
ATOM     10  C   UNL     1      -0.109   1.450   0.058  0.00  0.00    +0.052 A 
ATOM     11  C   UNL     1       1.085   2.151   0.035  0.00  0.00    +0.025 A 
ATOM     12  C   UNL     1       2.279   1.456  -0.042  0.00  0.00    +0.002 A 
ATOM     13  C   UNL     1       2.281   0.074  -0.096  0.00  0.00    +0.002 A 
ATOM     14  C   UNL     1       1.089  -0.630  -0.056  0.00  0.00    +0.025 A 
ATOM     15  C   UNL     1      -0.106   0.063   0.038  0.00  0.00    +0.049 A 
ATOM     16  N   UNL     1      -1.326  -0.600   0.167  0.00  0.00    -0.331 N 
ATOM     17  H   UNL     1      -1.560   2.678  -0.852  0.00  0.00    +0.152 HD
ATOM     18  H   UNL     1      -1.691  -1.211  -0.672  0.00  0.00    +0.147 HD
ENDROOT
BRANCH   5  19
ATOM     19  C   UNL     1      -4.863   4.498   2.359  0.00  0.00    -0.025 A 
ATOM     20  C   UNL     1      -4.273   5.213   3.384  0.00  0.00    +0.005 A 
ATOM     21  C   UNL     1      -4.802   6.429   3.772  0.00  0.00    +0.000 A 
ATOM     22  C   UNL     1      -5.922   6.931   3.135  0.00  0.00    +0.001 A 
ATOM     23  C   UNL     1      -6.513   6.217   2.110  0.00  0.00    +0.020 A 
ATOM     24  C   UNL     1      -5.980   5.002   1.718  0.00  0.00    +0.044 A 
ATOM     25 CL   UNL     1      -6.717   4.108   0.425  0.00  0.00    -0.083 Cl
ENDBRANCH   5  19
BRANCH   1  27
ATOM     26  C   UNL     1      -1.670  -1.983   3.347  0.00  0.00    +0.168 A 
ATOM     27  C   UNL     1      -1.256  -0.935   2.540  0.00  0.00    +0.023 A 
ATOM     28  C   UNL     1      -0.056  -0.298   2.796  0.00  0.00    +0.009 A 
ATOM     29  C   UNL     1       0.728  -0.696   3.863  0.00  0.00    +0.004 A 
ATOM     30  C   UNL     1       0.321  -1.741   4.672  0.00  0.00    +0.049 A 
ATOM     31  C   UNL     1      -0.878  -2.388   4.418  0.00  0.00    +0.162 A 
BRANCH  31  32
ATOM     32  O   UNL     1      -1.280  -3.416   5.212  0.00  0.00    -0.491 OA
ATOM     33  C   UNL     1      -0.417  -3.776   6.292  0.00  0.00    +0.277 C 
ENDBRANCH  31  32
BRANCH  26  34
ATOM     34  O   UNL     1      -2.847  -2.615   3.093  0.00  0.00    -0.485 OA
BRANCH  34  36
ATOM     35  C   UNL     1      -3.995  -4.702   2.681  0.00  0.00    +0.051 C 
ATOM     36  C   UNL     1      -2.782  -3.831   2.345  0.00  0.00    +0.168 C 
ATOM     37  C   UNL     1      -2.783  -3.511   0.849  0.00  0.00    +0.051 C 
ENDBRANCH  34  36
ENDBRANCH  26  34
ENDBRANCH   1  27
TORSDOF 5
