REMARK  Name = ZINC14273855
REMARK  14 active torsions:
REMARK  status: ('A' for Active; 'I' for Inactive)
REMARK    1  A    between atoms: C_1  and  C_2
REMARK    2  A    between atoms: C_2  and  C_3
REMARK    3  A    between atoms: C_9  and  C_11
REMARK    4  A    between atoms: C_14  and  C_17
REMARK    5  A    between atoms: C_17  and  N_18
REMARK    6  A    between atoms: N_18  and  C_19
REMARK    7  A    between atoms: C_19  and  N_21
REMARK    8  A    between atoms: C_22  and  C_24
REMARK    9  A    between atoms: C_26  and  O_34
REMARK   10  A    between atoms: C_27  and  O_32
REMARK   11  A    between atoms: C_28  and  O_30
REMARK   12  A    between atoms: O_30  and  C_31
REMARK   13  A    between atoms: O_32  and  C_33
REMARK   14  A    between atoms: O_34  and  C_35
REMARK                            x       y       z     vdW  Elec       q    Type
REMARK                         _______ _______ _______ _____ _____    ______ ____
ROOT
ATOM      1  N   UNL     1       0.493   9.546  -1.049  0.00  0.00    -0.322 N 
ATOM      2  H   UNL     1       0.047   9.905  -0.266  0.00  0.00    +0.148 HD
ENDROOT
BRANCH   1   3
ATOM      3  C   UNL     1       0.600   8.212  -1.212  0.00  0.00    +0.137 C 
ATOM      4  S   UNL     1       1.387   7.578  -2.594  0.00  0.00    -0.018 S 
BRANCH   3   5
ATOM      5  N   UNL     1       0.086   7.377  -0.286  0.00  0.00    -0.264 N 
ATOM      6  C   UNL     1       0.193   6.043  -0.449  0.00  0.00    +0.250 C 
ATOM      7  O   UNL     1       0.751   5.593  -1.430  0.00  0.00    -0.270 OA
ATOM      8  H   UNL     1      -0.360   7.736   0.496  0.00  0.00    +0.157 HD
BRANCH   6   9
ATOM      9  C   UNL     1      -0.369   5.130   0.564  0.00  0.00    +0.044 A 
ATOM     10  C   UNL     1      -1.012   5.646   1.692  0.00  0.00    +0.062 A 
ATOM     11  C   UNL     1      -1.538   4.787   2.639  0.00  0.00    +0.166 A 
ATOM     12  C   UNL     1      -1.433   3.409   2.467  0.00  0.00    +0.204 A 
ATOM     13  C   UNL     1      -0.787   2.893   1.346  0.00  0.00    +0.166 A 
ATOM     14  C   UNL     1      -0.260   3.747   0.396  0.00  0.00    +0.062 A 
BRANCH  13  15
ATOM     15  O   UNL     1      -0.682   1.547   1.184  0.00  0.00    -0.491 OA
ATOM     16  C   UNL     1      -0.013   1.086   0.008  0.00  0.00    +0.277 C 
ENDBRANCH  13  15
BRANCH  12  17
ATOM     17  O   UNL     1      -1.955   2.568   3.397  0.00  0.00    -0.488 OA
ATOM     18  C   UNL     1      -1.099   2.177   4.472  0.00  0.00    +0.277 C 
ENDBRANCH  12  17
BRANCH  11  19
ATOM     19  O   UNL     1      -2.165   5.289   3.737  0.00  0.00    -0.491 OA
ATOM     20  C   UNL     1      -2.243   6.711   3.846  0.00  0.00    +0.277 C 
ENDBRANCH  11  19
ENDBRANCH   6   9
ENDBRANCH   3   5
ENDBRANCH   1   3
BRANCH   1  21
ATOM     21  C   UNL     1       1.051  10.453  -2.055  0.00  0.00    +0.138 C 
BRANCH  21  25
ATOM     22  C   UNL     1       0.341  14.501  -0.874  0.00  0.00    +0.009 A 
ATOM     23  C   UNL     1       1.507  13.849  -0.474  0.00  0.00    +0.011 A 
ATOM     24  C   UNL     1       1.731  12.543  -0.858  0.00  0.00    +0.006 A 
ATOM     25  C   UNL     1       0.801  11.880  -1.638  0.00  0.00    -0.030 A 
ATOM     26  C   UNL     1      -0.356  12.522  -2.043  0.00  0.00    +0.006 A 
ATOM     27  C   UNL     1      -0.593  13.827  -1.661  0.00  0.00    +0.011 A 
BRANCH  22  34
ATOM     28  C   UNL     1      -1.832  19.071  -0.312  0.00  0.00    +0.155 A 
ATOM     29  N   UNL     1      -1.277  20.031   0.373  0.00  0.00    -0.132 NA
ATOM     30  N   UNL     1      -0.148  19.636   0.852  0.00  0.00    -0.120 NA
ATOM     31  C   UNL     1       0.066  18.407   0.493  0.00  0.00    +0.218 A 
ATOM     32  N   UNL     1      -0.993  17.975  -0.269  0.00  0.00    -0.190 N 
ATOM     33  N   UNL     1      -0.928  16.671  -0.740  0.00  0.00    -0.156 NA
ATOM     34  C   UNL     1       0.095  15.902  -0.466  0.00  0.00    +0.132 A 
ATOM     35  S   UNL     1       1.115  16.975   0.533  0.00  0.00    -0.026 S 
BRANCH  28  37
ATOM     36  C   UNL     1      -4.273  18.704  -0.075  0.00  0.00    +0.012 C 
ATOM     37  C   UNL     1      -3.157  19.144  -1.026  0.00  0.00    +0.075 C 
ENDBRANCH  28  37
ENDBRANCH  22  34
ENDBRANCH  21  25
ENDBRANCH   1  21
TORSDOF 10
