REMARK  Name = ZINC48896424
REMARK  1 active torsions:
REMARK  status: ('A' for Active; 'I' for Inactive)
REMARK    1  A    between atoms: C_8  and  C_20
REMARK                            x       y       z     vdW  Elec       q    Type
REMARK                         _______ _______ _______ _____ _____    ______ ____
ROOT
ATOM      1  C   UNL     1       0.240  -3.850  -1.357  0.00  0.00    +0.000 A 
ATOM      2  C   UNL     1       1.558  -4.256  -1.460  0.00  0.00    +0.002 A 
ATOM      3  C   UNL     1       2.573  -3.442  -1.004  0.00  0.00    +0.024 A 
ATOM      4  C   UNL     1       2.278  -2.202  -0.434  0.00  0.00    +0.042 A 
ATOM      5  C   UNL     1       0.955  -1.804  -0.336  0.00  0.00    -0.024 A 
ATOM      6  C   UNL     1      -0.059  -2.623  -0.794  0.00  0.00    +0.005 A 
ATOM      7  C   UNL     1       0.910  -0.437   0.310  0.00  0.00    +0.071 C 
ATOM      8  C   UNL     1       2.383  -0.087   0.578  0.00  0.00    +0.200 C 
ATOM      9  N   UNL     1       3.147  -1.236   0.084  0.00  0.00    -0.241 N 
ATOM     10  C   UNL     1       4.490  -1.346   0.124  0.00  0.00    +0.310 C 
ATOM     11  O   UNL     1       5.012  -2.443   0.069  0.00  0.00    -0.252 OA
ATOM     12  N   UNL     1       5.254  -0.240   0.224  0.00  0.00    -0.284 N 
ATOM     13  C   UNL     1       6.718  -0.380   0.179  0.00  0.00    +0.110 C 
ATOM     14  C   UNL     1       7.477   0.658  -0.686  0.00  0.00    +0.030 C 
ATOM     15  C   UNL     1       6.837   0.911  -2.014  0.00  0.00    +0.071 C 
ATOM     16  S   UNL     1       5.600   2.253  -1.870  0.00  0.00    -0.159 S 
ATOM     17  C   UNL     1       4.239   1.541  -1.034  0.00  0.00    +0.088 C 
ATOM     18  C   UNL     1       4.615   1.030   0.365  0.00  0.00    +0.120 C 
ENDROOT
BRANCH   8  19
ATOM     19  C   UNL     1       2.616   0.102   2.054  0.00  0.00    +0.377 C 
ATOM     20  O   UNL     1       3.201  -0.754   2.694  0.00  0.00    -0.244 OA
ATOM     21  O   UNL     1       2.218   1.113   2.609  0.00  0.00    -0.244 OA
ENDBRANCH   8  19
TORSDOF 1
