REMARK  Name = ZINC49508829
REMARK  10 active torsions:
REMARK  status: ('A' for Active; 'I' for Inactive)
REMARK    1  A    between atoms: C_1  and  C_2
REMARK    2  A    between atoms: C_2  and  C_3
REMARK    3  A    between atoms: C_2  and  C_4
REMARK    4  A    between atoms: C_13  and  N_16
REMARK    5  A    between atoms: C_17  and  C_19
REMARK    6  A    between atoms: N_21  and  C_22
REMARK    7  A    between atoms: C_22  and  C_23
REMARK    8  A    between atoms: C_23  and  C_25
REMARK    9  A    between atoms: C_23  and  N_35
REMARK   10  A    between atoms: N_33  and  C_34
REMARK                            x       y       z     vdW  Elec       q    Type
REMARK                         _______ _______ _______ _____ _____    ______ ____
ROOT
ATOM      1  C   UNL     1      -6.737  -5.128   2.410  0.00  0.00    +0.299 C 
ATOM      2  O   UNL     1      -5.854  -5.808   2.893  0.00  0.00    -0.265 OA
ATOM      3  N   UNL     1      -7.969  -5.137   2.956  0.00  0.00    -0.306 N 
ATOM      4  H   UNL     1      -8.674  -4.594   2.571  0.00  0.00    +0.149 HD
ENDROOT
BRANCH   1   6
ATOM      5  N   UNL     1      -5.224  -4.273   0.667  0.00  0.00    -0.278 N 
ATOM      6  C   UNL     1      -6.457  -4.282   1.212  0.00  0.00    +0.303 C 
ATOM      7  O   UNL     1      -7.339  -3.602   0.730  0.00  0.00    -0.265 OA
ATOM      8  H   UNL     1      -4.541  -4.873   1.003  0.00  0.00    +0.155 HD
BRANCH   5  18
ATOM      9  C   UNL     1      -2.065  -4.391  -3.229  0.00  0.00    +0.222 C 
ATOM     10  O   UNL     1      -2.190  -5.068  -2.230  0.00  0.00    -0.275 OA
ATOM     11  N   UNL     1      -2.846  -3.309  -3.412  0.00  0.00    -0.271 N 
ATOM     12  C   UNL     1      -2.767  -2.533  -4.657  0.00  0.00    +0.114 C 
ATOM     13  C   UNL     1      -2.749  -1.045  -4.281  0.00  0.00    +0.024 C 
ATOM     14  C   UNL     1      -4.068  -0.694  -3.594  0.00  0.00    +0.038 C 
ATOM     15  C   UNL     1      -4.351  -1.656  -2.470  0.00  0.00    -0.026 A 
ATOM     16  C   UNL     1      -3.752  -2.908  -2.420  0.00  0.00    +0.041 A 
ATOM     17  C   UNL     1      -4.040  -3.778  -1.377  0.00  0.00    +0.047 A 
ATOM     18  C   UNL     1      -4.932  -3.399  -0.384  0.00  0.00    +0.036 A 
ATOM     19  C   UNL     1      -5.532  -2.147  -0.438  0.00  0.00    +0.024 A 
ATOM     20  C   UNL     1      -5.235  -1.279  -1.473  0.00  0.00    +0.007 A 
BRANCH   9  22
ATOM     21  C   UNL     1       0.295  -4.086  -3.927  0.00  0.00    +0.017 C 
ATOM     22  C   UNL     1      -1.035  -4.762  -4.265  0.00  0.00    +0.069 C 
ATOM     23  C   UNL     1      -0.848  -6.280  -4.278  0.00  0.00    +0.017 C 
ENDBRANCH   9  22
ENDBRANCH   5  18
ENDBRANCH   1   6
BRANCH   3  24
ATOM     24  C   UNL     1      -8.244  -5.968   4.131  0.00  0.00    +0.128 C 
BRANCH  24  25
ATOM     25  C   UNL     1      -9.732  -5.889   4.475  0.00  0.00    +0.104 C 
BRANCH  25  26
ATOM     26  C   UNL     1     -10.026  -6.790   5.646  0.00  0.00    -0.028 A 
ATOM     27  C   UNL     1      -9.642  -8.118   5.613  0.00  0.00    +0.007 A 
ATOM     28  C   UNL     1      -9.910  -8.945   6.682  0.00  0.00    +0.024 A 
ATOM     29  C   UNL     1     -10.570  -8.449   7.809  0.00  0.00    +0.033 A 
ATOM     30  C   UNL     1     -10.950  -7.116   7.833  0.00  0.00    -0.025 A 
ATOM     31  C   UNL     1     -10.675  -6.290   6.760  0.00  0.00    +0.010 A 
ATOM     32  C   UNL     1     -11.638  -6.836   9.150  0.00  0.00    +0.056 C 
ATOM     33  C   UNL     1     -11.610  -8.181   9.893  0.00  0.00    +0.109 C 
ATOM     34  N   UNL     1     -10.932  -9.109   8.984  0.00  0.00    -0.332 N 
ATOM     35  C   UNL     1     -10.672 -10.523   9.267  0.00  0.00    +0.129 C 
ENDBRANCH  25  26
BRANCH  25  36
ATOM     36  N   UNL     1     -10.526  -6.319   3.316  0.00  0.00    -0.290 NA
ATOM     37  C   UNL     1     -11.868  -6.754   3.728  0.00  0.00    +0.113 C 
ATOM     38  C   UNL     1     -12.679  -7.135   2.487  0.00  0.00    +0.175 C 
ATOM     39  O   UNL     1     -11.980  -8.150   1.760  0.00  0.00    -0.377 OA
ATOM     40  C   UNL     1     -10.669  -7.760   1.343  0.00  0.00    +0.175 C 
ATOM     41  C   UNL     1      -9.838  -7.384   2.572  0.00  0.00    +0.113 C 
ENDBRANCH  25  36
ENDBRANCH  24  25
ENDBRANCH   3  24
TORSDOF 7
