REMARK  Name = ZINC20704676
REMARK  5 active torsions:
REMARK  status: ('A' for Active; 'I' for Inactive)
REMARK    1  A    between atoms: C_4  and  C_7
REMARK    2  A    between atoms: C_7  and  O_8
REMARK    3  A    between atoms: O_8  and  C_9
REMARK    4  A    between atoms: C_16  and  C_25
REMARK    5  A    between atoms: C_29  and  N_31
REMARK                            x       y       z     vdW  Elec       q    Type
REMARK                         _______ _______ _______ _____ _____    ______ ____
ROOT
ATOM      1  C   UNL     1       2.212   2.577   0.262  0.00  0.00    +0.142 A 
ATOM      2  C   UNL     1       3.543   2.231   0.385  0.00  0.00    +0.047 A 
ATOM      3  C   UNL     1       4.514   3.213   0.444  0.00  0.00    +0.004 A 
ATOM      4  C   UNL     1       4.145   4.544   0.385  0.00  0.00    +0.006 A 
ATOM      5  C   UNL     1       2.818   4.900   0.261  0.00  0.00    -0.016 A 
ATOM      6  C   UNL     1       1.824   3.921   0.206  0.00  0.00    +0.074 A 
ATOM      7  N   UNL     1       0.458   4.196   0.122  0.00  0.00    -0.334 N 
ATOM      8  C   UNL     1       0.081   5.592  -0.008  0.00  0.00    +0.105 C 
ATOM      9  C   UNL     1       1.003   6.413   0.869  0.00  0.00    +0.029 C 
ATOM     10  C   UNL     1       2.397   6.315   0.174  0.00  0.00    +0.049 C 
ATOM     11  C   UNL     1       3.164   7.419   0.803  0.00  0.00    -0.023 C 
ATOM     12  C   UNL     1       2.312   8.369   1.172  0.00  0.00    -0.030 C 
ATOM     13  C   UNL     1       0.879   7.941   0.842  0.00  0.00    +0.033 C 
ATOM     14  H   UNL     1      -0.318   3.417   0.150  0.00  0.00    +0.147 HD
ENDROOT
BRANCH   8  15
ATOM     15  C   UNL     1       0.237   6.006  -1.448  0.00  0.00    -0.025 A 
ATOM     16  C   UNL     1       1.115   5.326  -2.272  0.00  0.00    +0.007 A 
ATOM     17  C   UNL     1       1.258   5.706  -3.593  0.00  0.00    +0.022 A 
ATOM     18  C   UNL     1       0.523   6.767  -4.091  0.00  0.00    +0.071 A 
ATOM     19  C   UNL     1      -0.356   7.447  -3.267  0.00  0.00    +0.145 A 
ATOM     20  C   UNL     1      -0.502   7.062  -1.947  0.00  0.00    +0.039 A 
ATOM     21 CL   UNL     1       0.702   7.244  -5.751  0.00  0.00    -0.081 Cl
BRANCH  19  22
ATOM     22  N   UNL     1      -1.143   8.581  -3.799  0.00  0.00    +0.058 N 
ATOM     23  O   UNL     1      -1.916   9.180  -3.073  0.00  0.00    -0.126 OA
ATOM     24  O   UNL     1      -1.018   8.916  -4.963  0.00  0.00    -0.126 OA
ENDBRANCH  19  22
ENDBRANCH   8  15
BRANCH   1  25
ATOM     25  O   UNL     1       1.266   1.601   0.200  0.00  0.00    -0.486 OA
BRANCH  25  26
ATOM     26  C   UNL     1       1.724   0.249   0.261  0.00  0.00    +0.264 C 
BRANCH  26  30
ATOM     27  C   UNL     1      -1.619  -2.400   0.027  0.00  0.00    +0.000 A 
ATOM     28  C   UNL     1      -0.978  -1.992  -1.128  0.00  0.00    +0.000 A 
ATOM     29  C   UNL     1       0.104  -1.134  -1.052  0.00  0.00    +0.007 A 
ATOM     30  C   UNL     1       0.545  -0.685   0.178  0.00  0.00    -0.010 A 
ATOM     31  C   UNL     1      -0.093  -1.098   1.334  0.00  0.00    +0.007 A 
ATOM     32  C   UNL     1      -1.178  -1.950   1.257  0.00  0.00    +0.000 A 
ENDBRANCH  26  30
ENDBRANCH  25  26
ENDBRANCH   1  25
TORSDOF 5
