REMARK  Name = ZINC41430236
REMARK  6 active torsions:
REMARK  status: ('A' for Active; 'I' for Inactive)
REMARK    1  A    between atoms: C_1  and  C_2
REMARK    2  A    between atoms: C_2  and  O_3
REMARK    3  A    between atoms: O_3  and  C_4
REMARK    4  A    between atoms: C_7  and  C_10
REMARK    5  A    between atoms: C_12  and  O_13
REMARK    6  A    between atoms: C_22  and  C_24
REMARK                            x       y       z     vdW  Elec       q    Type
REMARK                         _______ _______ _______ _____ _____    ______ ____
ROOT
ATOM      1  C   UNL     1       1.571  -6.078   1.583  0.00  0.00    +0.139 A 
ATOM      2  C   UNL     1       2.089  -6.592   2.756  0.00  0.00    +0.093 A 
ATOM      3  C   UNL     1       2.035  -7.964   2.995  0.00  0.00    +0.131 A 
ATOM      4  C   UNL     1       1.442  -8.796   2.011  0.00  0.00    +0.059 A 
ATOM      5  C   UNL     1       1.359 -10.184   2.199  0.00  0.00    +0.017 A 
ATOM      6  C   UNL     1       0.786 -10.966   1.245  0.00  0.00    +0.024 A 
ATOM      7  C   UNL     1       0.274 -10.391   0.070  0.00  0.00    +0.037 A 
ATOM      8  C   UNL     1       0.349  -9.011  -0.131  0.00  0.00    +0.070 A 
ATOM      9  C   UNL     1       0.930  -8.208   0.835  0.00  0.00    +0.141 A 
ATOM     10  O   UNL     1       1.006  -6.872   0.660  0.00  0.00    -0.455 OA
ATOM     11  N   UNL     1      -0.298 -11.183  -0.879  0.00  0.00    -0.283 N 
ATOM     12  C   UNL     1      -0.661 -12.414  -0.578  0.00  0.00    +0.246 C 
ATOM     13  O   UNL     1      -0.598 -12.804   0.575  0.00  0.00    -0.273 OA
ATOM     14  H   UNL     1      -0.438 -10.841  -1.776  0.00  0.00    +0.155 HD
ENDROOT
BRANCH   1  18
ATOM     15  C   UNL     1       1.749  -1.895   0.891  0.00  0.00    +0.121 A 
ATOM     16  C   UNL     1       1.168  -2.729  -0.056  0.00  0.00    +0.046 A 
ATOM     17  C   UNL     1       1.108  -4.087   0.164  0.00  0.00    +0.015 A 
ATOM     18  C   UNL     1       1.633  -4.626   1.343  0.00  0.00    +0.018 A 
ATOM     19  C   UNL     1       2.217  -3.782   2.293  0.00  0.00    +0.015 A 
ATOM     20  C   UNL     1       2.277  -2.426   2.062  0.00  0.00    +0.046 A 
BRANCH  15  21
ATOM     21  O   UNL     1       1.807  -0.557   0.670  0.00  0.00    -0.492 OA
BRANCH  21  23
ATOM     22  C   UNL     1       1.402   1.444  -0.624  0.00  0.00    +0.048 C 
ATOM     23  C   UNL     1       1.245  -0.077  -0.553  0.00  0.00    +0.225 C 
ENDBRANCH  21  23
ENDBRANCH  15  21
ENDBRANCH   1  18
BRANCH  12  24
ATOM     24  C   UNL     1      -1.153 -13.341  -1.660  0.00  0.00    +0.204 C 
ATOM     25  C   UNL     1      -2.480 -12.807  -2.243  0.00  0.00    +0.043 C 
ATOM     26  C   UNL     1      -3.296 -14.112  -2.453  0.00  0.00    +0.031 C 
ATOM     27  C   UNL     1      -2.804 -14.962  -1.254  0.00  0.00    +0.161 C 
ATOM     28  O   UNL     1      -1.410 -14.638  -1.110  0.00  0.00    -0.367 OA
ENDBRANCH  12  24
BRANCH   3  29
ATOM     29  O   UNL     1       2.536  -8.489   4.134  0.00  0.00    -0.506 OA
ATOM     30  H   UNL     1       2.917  -7.834   4.735  0.00  0.00    +0.292 HD
ENDBRANCH   3  29
TORSDOF 5
