REMARK  Name = ZINC13142140
REMARK  11 active torsions:
REMARK  status: ('A' for Active; 'I' for Inactive)
REMARK    1  A    between atoms: C_1  and  C_2
REMARK    2  A    between atoms: C_2  and  C_3
REMARK    3  A    between atoms: C_2  and  C_4
REMARK    4  A    between atoms: C_7  and  C_10
REMARK    5  A    between atoms: C_16  and  C_33
REMARK    6  A    between atoms: C_17  and  C_24
REMARK    7  A    between atoms: C_19  and  C_22
REMARK    8  A    between atoms: C_20  and  N_21
REMARK    9  A    between atoms: C_27  and  C_30
REMARK   10  A    between atoms: C_30  and  C_31
REMARK   11  A    between atoms: C_30  and  C_32
REMARK                            x       y       z     vdW  Elec       q    Type
REMARK                         _______ _______ _______ _____ _____    ______ ____
ROOT
ATOM      1  C   UNL     1      -3.966  -2.463  -0.422  0.00  0.00    +0.028 C 
ATOM      2  C   UNL     1      -3.763  -1.190   0.002  0.00  0.00    +0.079 A 
ATOM      3  C   UNL     1      -2.613  -0.617   0.714  0.00  0.00    +0.271 A 
ATOM      4  O   UNL     1      -1.657  -1.308   1.011  0.00  0.00    -0.266 OA
ATOM      5  N   UNL     1      -2.644   0.693   1.032  0.00  0.00    -0.257 N 
ATOM      6  C   UNL     1      -3.761   1.415   0.665  0.00  0.00    +0.099 A 
ATOM      7  C   UNL     1      -3.934   2.740   0.916  0.00  0.00    +0.057 C 
ATOM      8  C   UNL     1      -2.833   3.482   1.647  0.00  0.00    +0.100 C 
ATOM      9  C   UNL     1      -1.627   2.652   2.039  0.00  0.00    +0.079 C 
ATOM     10  C   UNL     1      -1.605   1.342   1.710  0.00  0.00    +0.118 C 
ATOM     11  S   UNL     1      -4.819   0.240  -0.156  0.00  0.00    -0.065 S 
ENDROOT
BRANCH   1  15
ATOM     12  C   UNL     1      -0.820  -5.297  -0.211  0.00  0.00    -0.045 A 
ATOM     13  C   UNL     1      -2.110  -5.675   0.117  0.00  0.00    +0.004 A 
ATOM     14  C   UNL     1      -3.139  -4.760   0.051  0.00  0.00    +0.008 A 
ATOM     15  C   UNL     1      -2.876  -3.445  -0.348  0.00  0.00    -0.024 A 
ATOM     16  C   UNL     1      -1.569  -3.072  -0.684  0.00  0.00    +0.008 A 
ATOM     17  C   UNL     1      -0.551  -3.998  -0.608  0.00  0.00    +0.004 A 
BRANCH  12  19
ATOM     18  C   UNL     1       0.936  -6.461  -1.519  0.00  0.00    +0.012 C 
ATOM     19  C   UNL     1       0.298  -6.304  -0.137  0.00  0.00    +0.013 C 
ATOM     20  C   UNL     1       1.354  -5.822   0.860  0.00  0.00    +0.012 C 
ENDBRANCH  12  19
ENDBRANCH   1  15
BRANCH   8  21
ATOM     21  C   UNL     1      -2.367   4.617   0.772  0.00  0.00    -0.035 A 
ATOM     22  C   UNL     1      -1.837   4.353  -0.477  0.00  0.00    +0.005 A 
ATOM     23  C   UNL     1      -1.413   5.393  -1.282  0.00  0.00    +0.004 A 
ATOM     24  C   UNL     1      -1.511   6.698  -0.835  0.00  0.00    -0.045 A 
ATOM     25  C   UNL     1      -2.036   6.961   0.417  0.00  0.00    +0.004 A 
ATOM     26  C   UNL     1      -2.464   5.920   1.220  0.00  0.00    +0.005 A 
BRANCH  24  27
ATOM     27  C   UNL     1      -1.046   7.832  -1.711  0.00  0.00    +0.013 C 
ATOM     28  C   UNL     1       0.442   7.659  -2.022  0.00  0.00    +0.012 C 
ATOM     29  C   UNL     1      -1.843   7.829  -3.016  0.00  0.00    +0.012 C 
ENDBRANCH  24  27
ENDBRANCH   8  21
BRANCH   7  30
ATOM     30  C   UNL     1      -5.102   3.403   0.508  0.00  0.00    +0.241 C 
ATOM     31  O   UNL     1      -5.977   2.791  -0.080  0.00  0.00    -0.271 OA
ATOM     32  N   UNL     1      -5.255   4.717   0.766  0.00  0.00    -0.326 N 
ATOM     33  H   UNL     1      -4.559   5.204   1.233  0.00  0.00    +0.145 HD
ATOM     34  H   UNL     1      -6.062   5.176   0.484  0.00  0.00    +0.145 HD
ENDBRANCH   7  30
BRANCH  10  35
ATOM     35  N   UNL     1      -0.503   0.603   2.066  0.00  0.00    -0.343 N 
ATOM     36  H   UNL     1       0.376   1.013   2.068  0.00  0.00    +0.144 HD
ATOM     37  H   UNL     1      -0.604  -0.328   2.320  0.00  0.00    +0.144 HD
ENDBRANCH  10  35
BRANCH   9  38
ATOM     38  C   UNL     1      -0.529   3.247   2.739  0.00  0.00    +0.099 C 
ATOM     39  N   UNL     1       0.343   3.719   3.294  0.00  0.00    -0.191 NA
ENDBRANCH   9  38
TORSDOF 7
