REMARK  Name = ZINC10589721
REMARK  10 active torsions:
REMARK  status: ('A' for Active; 'I' for Inactive)
REMARK    1  A    between atoms: C_1  and  C_2
REMARK    2  A    between atoms: C_2  and  O_3
REMARK    3  A    between atoms: O_3  and  C_4
REMARK    4  A    between atoms: C_7  and  C_10
REMARK    5  A    between atoms: C_10  and  C_11
REMARK    6  A    between atoms: C_11  and  N_13
REMARK    7  A    between atoms: N_15  and  C_27
REMARK    8  A    between atoms: C_19  and  S_23
REMARK    9  A    between atoms: S_23  and  N_26
REMARK   10  A    between atoms: C_27  and  C_28
REMARK                            x       y       z     vdW  Elec       q    Type
REMARK                         _______ _______ _______ _____ _____    ______ ____
ROOT
ATOM      1  N   UNL     1       1.213  -1.663   7.679  0.00  0.00    -0.156 NA
ATOM      2  C   UNL     1       0.691  -2.796   8.144  0.00  0.00    +0.167 A 
ATOM      3  N   UNL     1      -0.217  -3.613   7.547  0.00  0.00    -0.317 N 
ATOM      4  C   UNL     1      -0.644  -4.761   8.188  0.00  0.00    +0.058 A 
ATOM      5  C   UNL     1      -1.562  -5.721   7.736  0.00  0.00    +0.029 A 
ATOM      6  C   UNL     1      -1.880  -6.810   8.511  0.00  0.00    +0.030 A 
ATOM      7  C   UNL     1      -1.307  -6.995   9.759  0.00  0.00    +0.106 A 
ATOM      8  C   UNL     1      -0.399  -6.064  10.230  0.00  0.00    +0.045 A 
ATOM      9  C   UNL     1      -0.080  -4.974   9.454  0.00  0.00    +0.041 A 
ATOM     10  S   UNL     1       1.000  -3.580   9.659  0.00  0.00    -0.052 S 
ENDROOT
BRANCH   7  11
ATOM     11  S   UNL     1      -1.731  -8.400  10.735  0.00  0.00    +0.056 S 
ATOM     12  O   UNL     1      -1.467  -8.050  12.086  0.00  0.00    -0.153 OA
ATOM     13  O   UNL     1      -3.012  -8.829  10.295  0.00  0.00    -0.153 OA
BRANCH  11  14
ATOM     14  N   UNL     1      -0.667  -9.607  10.342  0.00  0.00    -0.204 NA
ATOM     15  H   UNL     1       0.023  -9.449   9.679  0.00  0.00    +0.144 HD
ATOM     16  H   UNL     1      -0.734 -10.472  10.776  0.00  0.00    +0.144 HD
ENDBRANCH  11  14
ENDBRANCH   7  11
BRANCH   1  17
ATOM     17  C   UNL     1       0.994  -1.298   6.420  0.00  0.00    +0.243 C 
ATOM     18  O   UNL     1       1.371  -2.006   5.507  0.00  0.00    -0.273 OA
BRANCH  17  19
ATOM     19  C   UNL     1       0.277  -0.005   6.125  0.00  0.00    +0.133 C 
BRANCH  19  23
ATOM     20  C   UNL     1      -0.063   0.501   1.895  0.00  0.00    +0.121 A 
ATOM     21  C   UNL     1       1.047   0.993   2.567  0.00  0.00    +0.046 A 
ATOM     22  C   UNL     1       1.151   0.834   3.936  0.00  0.00    +0.007 A 
ATOM     23  C   UNL     1       0.157   0.173   4.634  0.00  0.00    -0.038 A 
ATOM     24  C   UNL     1      -0.947  -0.323   3.966  0.00  0.00    +0.007 A 
ATOM     25  C   UNL     1      -1.059  -0.161   2.598  0.00  0.00    +0.046 A 
BRANCH  20  26
ATOM     26  O   UNL     1      -0.171   0.662   0.550  0.00  0.00    -0.492 OA
BRANCH  26  28
ATOM     27  C   UNL     1       0.596   1.437  -1.607  0.00  0.00    +0.048 C 
ATOM     28  C   UNL     1       0.892   1.354  -0.108  0.00  0.00    +0.225 C 
ENDBRANCH  26  28
ENDBRANCH  20  26
ENDBRANCH  19  23
ENDBRANCH  17  19
ENDBRANCH   1  17
BRANCH   3  29
ATOM     29  C   UNL     1      -0.741  -3.278   6.221  0.00  0.00    +0.151 C 
BRANCH  29  30
ATOM     30  C   UNL     1       0.029  -4.037   5.171  0.00  0.00    -0.013 C 
ATOM     31  C   UNL     1      -0.604  -4.826   4.338  0.00  0.00    +0.005 C 
ENDBRANCH  29  30
ENDBRANCH   3  29
TORSDOF 9
