REMARK  Name = ZINC54444880
REMARK  2 active torsions:
REMARK  status: ('A' for Active; 'I' for Inactive)
REMARK    1  A    between atoms: C_3  and  C_6
REMARK    2  A    between atoms: C_8  and  C_11
REMARK                            x       y       z     vdW  Elec       q    Type
REMARK                         _______ _______ _______ _____ _____    ______ ____
ROOT
ATOM      1  C   UNL     1       6.735  -1.112  -0.079  0.00  0.00    +0.040 A 
ATOM      2  C   UNL     1       6.498  -2.489  -0.095  0.00  0.00    +0.015 A 
ATOM      3  C   UNL     1       7.559  -3.365  -0.113  0.00  0.00    +0.024 A 
ATOM      4  C   UNL     1       8.867  -2.882  -0.115  0.00  0.00    +0.030 A 
ATOM      5  C   UNL     1       9.108  -1.514  -0.102  0.00  0.00    -0.026 A 
ATOM      6  C   UNL     1       8.045  -0.632  -0.088  0.00  0.00    +0.018 A 
ATOM      7  C   UNL     1      10.509  -0.963  -0.116  0.00  0.00    +0.038 C 
ATOM      8  C   UNL     1      11.505  -2.019   0.362  0.00  0.00    +0.023 C 
ATOM      9  C   UNL     1      11.276  -3.311  -0.434  0.00  0.00    +0.102 C 
ATOM     10  N   UNL     1       9.923  -3.794  -0.128  0.00  0.00    -0.344 N 
ATOM     11  H   UNL     1       9.766  -4.732   0.061  0.00  0.00    +0.146 HD
ENDROOT
BRANCH   1  14
ATOM     12  C   UNL     1       3.573   0.620  -0.029  0.00  0.00    +0.238 A 
ATOM     13  N   UNL     1       4.329  -0.491  -0.048  0.00  0.00    -0.184 NA
ATOM     14  C   UNL     1       5.601  -0.167  -0.058  0.00  0.00    +0.259 A 
ATOM     15  O   UNL     1       5.694   1.175  -0.046  0.00  0.00    -0.332 OA
ATOM     16  N   UNL     1       4.363   1.669  -0.033  0.00  0.00    -0.052 NA
BRANCH  12  19
ATOM     17  C   UNL     1      -0.016   1.344   0.009  0.00  0.00    +0.042 A 
ATOM     18  C   UNL     1       1.324   1.775  -0.001  0.00  0.00    +0.053 A 
ATOM     19  C   UNL     1       2.096   0.655  -0.014  0.00  0.00    +0.175 A 
ATOM     20  O   UNL     1       1.279  -0.416  -0.012  0.00  0.00    -0.460 OA
ATOM     21  C   UNL     1       0.002  -0.004   0.002  0.00  0.00    +0.196 A 
ENDBRANCH  12  19
ENDBRANCH   1  14
TORSDOF 2
