REMARK  Name = ZINC22079554
REMARK  6 active torsions:
REMARK  status: ('A' for Active; 'I' for Inactive)
REMARK    1  A    between atoms: C_1  and  C_2
REMARK    2  A    between atoms: C_5  and  C_8
REMARK    3  A    between atoms: N_12  and  C_13
REMARK    4  A    between atoms: C_16  and  C_19
REMARK    5  A    between atoms: N_29  and  C_30
REMARK    6  A    between atoms: C_30  and  C_31
REMARK                            x       y       z     vdW  Elec       q    Type
REMARK                         _______ _______ _______ _____ _____    ______ ____
ROOT
ATOM      1  C   UNL     1       2.912  -8.230  -1.014  0.00  0.00    +0.058 A 
ATOM      2  C   UNL     1       2.361  -8.364   0.210  0.00  0.00    +0.075 A 
ATOM      3  S   UNL     1       0.645  -7.986  -0.109  0.00  0.00    -0.059 S 
ATOM      4  C   UNL     1       0.782  -7.674  -1.862  0.00  0.00    +0.152 A 
ATOM      5  N   UNL     1      -0.158  -7.336  -2.725  0.00  0.00    -0.336 N 
ATOM      6  N   UNL     1       2.125  -7.875  -2.075  0.00  0.00    -0.317 N 
ATOM      7  H   UNL     1      -1.189  -7.172  -2.379  0.00  0.00    +0.168 HD
ENDROOT
BRANCH   1  12
ATOM      8  C   UNL     1       8.548  -9.124  -1.764  0.00  0.00    +0.044 C 
ATOM      9  C   UNL     1       7.072  -8.890  -1.567  0.00  0.00    -0.050 A 
ATOM     10  C   UNL     1       6.636  -8.044  -0.563  0.00  0.00    +0.004 A 
ATOM     11  C   UNL     1       5.287  -7.820  -0.382  0.00  0.00    +0.010 A 
ATOM     12  C   UNL     1       4.360  -8.460  -1.206  0.00  0.00    -0.001 A 
ATOM     13  C   UNL     1       4.806  -9.317  -2.214  0.00  0.00    +0.010 A 
ATOM     14  C   UNL     1       6.158  -9.527  -2.389  0.00  0.00    +0.004 A 
ENDBRANCH   1  12
BRANCH   5  15
ATOM     15  C   UNL     1       0.149  -7.189  -4.047  0.00  0.00    +0.041 A 
ATOM     16  C   UNL     1       0.388  -5.914  -4.572  0.00  0.00    +0.026 A 
ATOM     17  C   UNL     1       0.701  -5.769  -5.894  0.00  0.00    +0.013 A 
ATOM     18  C   UNL     1       0.772  -6.891  -6.723  0.00  0.00    +0.019 A 
ATOM     19  C   UNL     1       0.529  -8.164  -6.200  0.00  0.00    +0.013 A 
ATOM     20  C   UNL     1       0.221  -8.312  -4.878  0.00  0.00    +0.026 A 
BRANCH  18  21
ATOM     21  C   UNL     1       1.104  -6.732  -8.154  0.00  0.00    +0.164 A 
ATOM     22  N   UNL     1       0.972  -5.637  -8.874  0.00  0.00    -0.129 NA
ATOM     23  N   UNL     1       1.365  -5.859 -10.080  0.00  0.00    -0.134 NA
ATOM     24  C   UNL     1       1.769  -7.093 -10.196  0.00  0.00    +0.134 A 
ATOM     25  N   UNL     1       1.613  -7.690  -8.983  0.00  0.00    -0.311 N 
ATOM     26  C   UNL     1       1.903  -9.086  -8.656  0.00  0.00    +0.125 C 
ATOM     27  C   UNL     1       3.021  -9.596  -9.570  0.00  0.00    +0.022 C 
ATOM     28  C   UNL     1       2.417 -10.184 -10.844  0.00  0.00    +0.002 C 
ATOM     29  C   UNL     1       1.644  -9.117 -11.614  0.00  0.00    +0.008 C 
ATOM     30  C   UNL     1       2.324  -7.757 -11.430  0.00  0.00    +0.076 C 
ENDBRANCH  18  21
ENDBRANCH   5  15
BRANCH   6  31
ATOM     31  C   UNL     1       2.701  -7.718  -3.413  0.00  0.00    +0.151 C 
BRANCH  31  32
ATOM     32  C   UNL     1       4.026  -7.007  -3.309  0.00  0.00    -0.013 C 
ATOM     33  C   UNL     1       5.057  -7.441  -3.990  0.00  0.00    +0.005 C 
ENDBRANCH  31  32
ENDBRANCH   6  31
TORSDOF 5
