REMARK  Name = ZINC38649141
REMARK  7 active torsions:
REMARK  status: ('A' for Active; 'I' for Inactive)
REMARK    1  A    between atoms: C_1  and  C_2
REMARK    2  A    between atoms: C_5  and  C_8
REMARK    3  A    between atoms: C_13  and  O_22
REMARK    4  A    between atoms: C_17  and  N_21
REMARK    5  A    between atoms: C_18  and  C_19
REMARK    6  A    between atoms: O_22  and  C_23
REMARK    7  A    between atoms: C_23  and  C_25
REMARK                            x       y       z     vdW  Elec       q    Type
REMARK                         _______ _______ _______ _____ _____    ______ ____
ROOT
ATOM      1  C   UNL     1       0.086  -4.289  -0.080  0.00  0.00    +0.098 C 
ATOM      2  C   UNL     1       1.324  -4.771   0.630  0.00  0.00    +0.008 A 
ATOM      3  C   UNL     1       2.529  -4.804  -0.049  0.00  0.00    +0.012 A 
ATOM      4  C   UNL     1       3.674  -5.243   0.586  0.00  0.00    +0.047 A 
ATOM      5  C   UNL     1       3.618  -5.653   1.911  0.00  0.00    +0.135 A 
ATOM      6  C   UNL     1       2.413  -5.621   2.594  0.00  0.00    +0.093 A 
ATOM      7  C   UNL     1       1.263  -5.179   1.953  0.00  0.00    +0.138 A 
ATOM      8  O   UNL     1       0.091  -5.154   2.636  0.00  0.00    -0.441 OA
ATOM      9  C   UNL     1      -1.073  -5.111   1.966  0.00  0.00    +0.199 C 
ATOM     10  C   UNL     1      -1.141  -4.709   0.679  0.00  0.00    +0.098 C 
ENDROOT
BRANCH   1  15
ATOM     11  C   UNL     1       0.218   1.476  -0.461  0.00  0.00    +0.044 C 
ATOM     12  C   UNL     1       0.184  -0.028  -0.362  0.00  0.00    -0.050 A 
ATOM     13  C   UNL     1       0.143  -0.795  -1.510  0.00  0.00    +0.003 A 
ATOM     14  C   UNL     1       0.112  -2.174  -1.419  0.00  0.00    +0.005 A 
ATOM     15  C   UNL     1       0.122  -2.785  -0.179  0.00  0.00    -0.035 A 
ATOM     16  C   UNL     1       0.164  -2.018   0.970  0.00  0.00    +0.005 A 
ATOM     17  C   UNL     1       0.199  -0.639   0.878  0.00  0.00    +0.003 A 
ENDBRANCH   1  15
BRANCH   9  18
ATOM     18  N   UNL     1      -2.226  -5.484   2.611  0.00  0.00    -0.328 N 
ATOM     19  H   UNL     1      -2.192  -5.775   3.536  0.00  0.00    +0.145 HD
ATOM     20  H   UNL     1      -3.074  -5.458   2.141  0.00  0.00    +0.145 HD
ENDBRANCH   9  18
BRANCH  10  21
ATOM     21  C   UNL     1      -2.414  -4.684   0.023  0.00  0.00    +0.101 C 
ATOM     22  N   UNL     1      -3.423  -4.665  -0.497  0.00  0.00    -0.191 NA
ENDBRANCH  10  21
BRANCH   5  23
ATOM     23  O   UNL     1       4.744  -6.086   2.537  0.00  0.00    -0.422 OA
BRANCH  23  24
ATOM     24  C   UNL     1       5.705  -5.181   2.808  0.00  0.00    +0.344 C 
ATOM     25  O   UNL     1       5.508  -4.002   2.589  0.00  0.00    -0.245 OA
BRANCH  24  26
ATOM     26  C   UNL     1       6.997  -5.622   3.371  0.00  0.00    +0.059 A 
ATOM     27  C   UNL     1       7.229  -6.977   3.618  0.00  0.00    +0.015 A 
ATOM     28  C   UNL     1       8.438  -7.382   4.144  0.00  0.00    +0.001 A 
ATOM     29  C   UNL     1       9.421  -6.449   4.426  0.00  0.00    +0.000 A 
ATOM     30  C   UNL     1       9.198  -5.105   4.183  0.00  0.00    +0.001 A 
ATOM     31  C   UNL     1       7.995  -4.687   3.653  0.00  0.00    +0.015 A 
ENDBRANCH  24  26
ENDBRANCH  23  24
ENDBRANCH   5  23
TORSDOF 6
