REMARK  Name = ZINC26972290
REMARK  12 active torsions:
REMARK  status: ('A' for Active; 'I' for Inactive)
REMARK    1  A    between atoms: C_1  and  C_2
REMARK    2  A    between atoms: C_3  and  C_34
REMARK    3  A    between atoms: C_4  and  O_24
REMARK    4  A    between atoms: C_5  and  C_23
REMARK    5  A    between atoms: C_9  and  C_12
REMARK    6  A    between atoms: C_12  and  C_13
REMARK    7  A    between atoms: C_13  and  N_14
REMARK    8  A    between atoms: C_19  and  O_22
REMARK    9  A    between atoms: C_20  and  C_21
REMARK   10  A    between atoms: O_24  and  C_25
REMARK   11  A    between atoms: C_25  and  C_27
REMARK   12  A    between atoms: C_30  and  N_33
REMARK                            x       y       z     vdW  Elec       q    Type
REMARK                         _______ _______ _______ _____ _____    ______ ____
ROOT
ATOM      1  C   UNL     1      -8.709   6.924  -2.426  0.00  0.00    +0.048 C 
ATOM      2  C   UNL     1      -8.033   6.585  -1.123  0.00  0.00    -0.002 A 
ATOM      3  C   UNL     1      -6.792   5.983  -1.129  0.00  0.00    -0.001 A 
ATOM      4  C   UNL     1      -6.163   5.663   0.065  0.00  0.00    +0.138 A 
ATOM      5  C   UNL     1      -6.783   5.964   1.270  0.00  0.00    -0.001 A 
ATOM      6  C   UNL     1      -8.019   6.571   1.274  0.00  0.00    +0.004 A 
ATOM      7  C   UNL     1      -8.662   6.885   0.083  0.00  0.00    +0.128 A 
ATOM      8  O   UNL     1      -9.873   7.464   0.315  0.00  0.00    -0.488 OA
ATOM      9  C   UNL     1      -9.910   7.962   1.663  0.00  0.00    +0.180 C 
ATOM     10  C   UNL     1      -8.925   7.025   2.401  0.00  0.00    +0.083 C 
ATOM     11  C   UNL     1      -6.104   5.628   2.572  0.00  0.00    +0.048 C 
ATOM     12  C   UNL     1      -6.119   5.667  -2.440  0.00  0.00    +0.048 C 
ENDROOT
BRANCH   9  13
ATOM     13  C   UNL     1     -11.318   7.841   2.250  0.00  0.00    +0.066 C 
BRANCH  13  14
ATOM     14  C   UNL     1     -12.238   8.867   1.585  0.00  0.00    +0.125 C 
BRANCH  14  15
ATOM     15  N   UNL     1     -13.585   8.751   2.148  0.00  0.00    -0.347 N 
ATOM     16  C   UNL     1     -14.507   7.991   1.509  0.00  0.00    +0.090 A 
ATOM     17  C   UNL     1     -15.758   7.859   2.004  0.00  0.00    +0.072 A 
ATOM     18  C   UNL     1     -16.105   8.532   3.197  0.00  0.00    +0.223 A 
ATOM     19  O   UNL     1     -17.231   8.433   3.664  0.00  0.00    -0.284 OA
ATOM     20  C   UNL     1     -15.121   9.325   3.840  0.00  0.00    +0.183 A 
ATOM     21  C   UNL     1     -13.884   9.413   3.296  0.00  0.00    +0.061 A 
ATOM     22  C   UNL     1     -12.830  10.253   3.970  0.00  0.00    +0.067 C 
BRANCH  20  23
ATOM     23  O   UNL     1     -15.417   9.989   4.991  0.00  0.00    -0.502 OA
ATOM     24  H   UNL     1     -14.649  10.602   5.485  0.00  0.00    +0.292 HD
ENDBRANCH  20  23
ENDBRANCH  14  15
ENDBRANCH  13  14
ENDBRANCH   9  13
BRANCH   4  25
ATOM     25  O   UNL     1      -4.943   5.062   0.055  0.00  0.00    -0.422 OA
BRANCH  25  26
ATOM     26  C   UNL     1      -4.925   3.715   0.048  0.00  0.00    +0.344 C 
ATOM     27  O   UNL     1      -5.969   3.093   0.049  0.00  0.00    -0.245 OA
BRANCH  26  28
ATOM     28  C   UNL     1      -3.639   2.995   0.037  0.00  0.00    +0.060 A 
ATOM     29  C   UNL     1      -3.618   1.597   0.029  0.00  0.00    +0.017 A 
ATOM     30  C   UNL     1      -2.420   0.930   0.019  0.00  0.00    +0.023 A 
ATOM     31  C   UNL     1      -1.224   1.645   0.017  0.00  0.00    +0.025 A 
ATOM     32  C   UNL     1      -1.241   3.037   0.030  0.00  0.00    +0.023 A 
ATOM     33  C   UNL     1      -2.436   3.709   0.035  0.00  0.00    +0.017 A 
BRANCH  31  34
ATOM     34  N   UNL     1      -0.011   0.966   0.007  0.00  0.00    -0.358 N 
ATOM     35  H   UNL     1       0.934   1.529   0.006  0.00  0.00    +0.142 HD
ATOM     36  H   UNL     1       0.004  -0.134   0.001  0.00  0.00    +0.142 HD
ENDBRANCH  31  34
ENDBRANCH  26  28
ENDBRANCH  25  26
ENDBRANCH   4  25
TORSDOF 8
