REMARK  Name = ZINC27239160
REMARK  11 active torsions:
REMARK  status: ('A' for Active; 'I' for Inactive)
REMARK    1  A    between atoms: C_1  and  C_2
REMARK    2  A    between atoms: C_5  and  C_8
REMARK    3  A    between atoms: C_8  and  C_9
REMARK    4  A    between atoms: C_8  and  C_17
REMARK    5  A    between atoms: C_8  and  O_34
REMARK    6  A    between atoms: C_14  and  O_15
REMARK    7  A    between atoms: O_15  and  C_16
REMARK    8  A    between atoms: C_17  and  C_19
REMARK    9  A    between atoms: C_17  and  O_27
REMARK   10  A    between atoms: C_19  and  N_20
REMARK   11  A    between atoms: O_27  and  C_28
REMARK                            x       y       z     vdW  Elec       q    Type
REMARK                         _______ _______ _______ _____ _____    ______ ____
ROOT
ATOM      1  C   UNL     1      -2.817   4.993   4.253  0.00  0.00    +0.154 C 
ENDROOT
BRANCH   1   6
ATOM      2  C   UNL     1      -0.559   7.639   8.868  0.00  0.00    +0.044 C 
ATOM      3  C   UNL     1      -1.148   6.949   7.664  0.00  0.00    -0.050 A 
ATOM      4  C   UNL     1      -2.492   7.093   7.374  0.00  0.00    +0.004 A 
ATOM      5  C   UNL     1      -3.032   6.460   6.270  0.00  0.00    +0.007 A 
ATOM      6  C   UNL     1      -2.228   5.683   5.457  0.00  0.00    -0.008 A 
ATOM      7  C   UNL     1      -0.885   5.536   5.750  0.00  0.00    +0.007 A 
ATOM      8  C   UNL     1      -0.344   6.172   6.851  0.00  0.00    +0.004 A 
ENDBRANCH   1   6
BRANCH   1   9
ATOM      9  C   UNL     1      -3.307   3.624   4.649  0.00  0.00    +0.033 A 
ATOM     10  C   UNL     1      -4.641   3.297   4.501  0.00  0.00    +0.010 A 
ATOM     11  C   UNL     1      -5.090   2.039   4.860  0.00  0.00    +0.001 A 
ATOM     12  C   UNL     1      -4.207   1.109   5.378  0.00  0.00    +0.004 A 
ATOM     13  C   UNL     1      -2.873   1.433   5.533  0.00  0.00    +0.046 A 
ATOM     14  C   UNL     1      -2.419   2.693   5.169  0.00  0.00    +0.126 A 
BRANCH  14  15
ATOM     15  O   UNL     1      -1.107   3.014   5.321  0.00  0.00    -0.495 OA
ATOM     16  C   UNL     1      -0.251   2.005   5.862  0.00  0.00    +0.277 C 
ENDBRANCH  14  15
ENDBRANCH   1   9
BRANCH   1  17
ATOM     17  O   UNL     1      -3.911   5.763   3.750  0.00  0.00    -0.376 OA
ATOM     18  H   UNL     1      -4.469   5.415   2.869  0.00  0.00    +0.211 HD
ENDBRANCH   1  17
BRANCH   1  19
ATOM     19  C   UNL     1      -1.747   4.858   3.168  0.00  0.00    +0.198 C 
BRANCH  19  20
ATOM     20  C   UNL     1      -2.345   4.157   1.947  0.00  0.00    -0.030 C 
BRANCH  20  21
ATOM     21  N   UNL     1      -3.485   4.934   1.446  0.00  0.00    +0.382 N 
ATOM     22  C   UNL     1      -3.027   6.123   0.692  0.00  0.00    -0.079 C 
ATOM     23  C   UNL     1      -2.721   5.816  -0.749  0.00  0.00    -0.019 C 
ATOM     24  C   UNL     1      -3.979   6.116  -1.590  0.00  0.00    -0.002 C 
ATOM     25  C   UNL     1      -4.972   5.052  -1.493  0.00  0.00    -0.002 C 
ATOM     26  C   UNL     1      -5.472   4.852  -0.047  0.00  0.00    -0.019 C 
ATOM     27  C   UNL     1      -4.436   4.069   0.713  0.00  0.00    -0.079 C 
ATOM     28  H   UNL     1      -4.050   5.330   2.303  0.00  0.00    -0.082 HD
ENDBRANCH  20  21
ENDBRANCH  19  20
BRANCH  19  29
ATOM     29  O   UNL     1      -1.282   6.156   2.793  0.00  0.00    -0.487 OA
BRANCH  29  30
ATOM     30  C   UNL     1      -0.043   6.232   2.240  0.00  0.00    +0.121 A 
ATOM     31  C   UNL     1       0.742   5.093   2.135  0.00  0.00    +0.045 A 
ATOM     32  C   UNL     1       1.999   5.172   1.568  0.00  0.00    +0.004 A 
ATOM     33  C   UNL     1       2.480   6.387   1.116  0.00  0.00    +0.000 A 
ATOM     34  C   UNL     1       1.702   7.525   1.226  0.00  0.00    +0.004 A 
ATOM     35  C   UNL     1       0.442   7.450   1.787  0.00  0.00    +0.045 A 
ENDBRANCH  29  30
ENDBRANCH  19  29
ENDBRANCH   1  19
TORSDOF 9
