REMARK  Name = ZINC39666369
REMARK  7 active torsions:
REMARK  status: ('A' for Active; 'I' for Inactive)
REMARK    1  A    between atoms: C_1  and  C_2
REMARK    2  A    between atoms: C_2  and  C_4
REMARK    3  A    between atoms: C_2  and  O_29
REMARK    4  A    between atoms: C_4  and  N_5
REMARK    5  A    between atoms: C_6  and  C_8
REMARK    6  A    between atoms: C_19  and  C_21
REMARK    7  A    between atoms: O_29  and  C_30
REMARK                            x       y       z     vdW  Elec       q    Type
REMARK                         _______ _______ _______ _____ _____    ______ ____
ROOT
ATOM      1  C   UNL     1       0.692  -4.275  -1.914  0.00  0.00    +0.100 C 
ATOM      2  C   UNL     1       1.235  -4.816  -0.572  0.00  0.00    +0.121 C 
ATOM      3  N   UNL     1       1.790  -6.149  -0.902  0.00  0.00    -0.296 N 
ATOM      4  C   UNL     1       2.442  -5.961  -2.220  0.00  0.00    +0.115 C 
ATOM      5  C   UNL     1       1.487  -5.029  -2.993  0.00  0.00    -0.004 C 
ATOM      6  C   UNL     1       0.544  -5.848  -3.869  0.00  0.00    -0.010 C 
ATOM      7  C   UNL     1       1.351  -6.543  -4.969  0.00  0.00    -0.082 C 
ATOM      8  N   UNL     1       2.050  -5.535  -5.777  0.00  0.00    +0.379 N 
ATOM      9  C   UNL     1       3.022  -4.814  -4.946  0.00  0.00    -0.082 C 
ATOM     10  C   UNL     1       2.285  -4.047  -3.845  0.00  0.00    -0.010 C 
ATOM     11  C   UNL     1       1.719  -7.278  -0.170  0.00  0.00    +0.249 C 
ATOM     12  O   UNL     1       2.230  -8.302  -0.580  0.00  0.00    -0.270 OA
ATOM     13  H   UNL     1       2.531  -5.991  -6.537  0.00  0.00    -0.086 HD
ATOM     14  H   UNL     1       1.378  -4.882  -6.151  0.00  0.00    -0.086 HD
ENDROOT
BRANCH  11  15
ATOM     15  C   UNL     1       1.020  -7.272   1.132  0.00  0.00    +0.073 A 
ATOM     16  C   UNL     1      -0.344  -7.568   1.198  0.00  0.00    +0.054 A 
ATOM     17  C   UNL     1      -0.990  -7.560   2.419  0.00  0.00    +0.021 A 
ATOM     18  C   UNL     1      -0.290  -7.259   3.574  0.00  0.00    +0.003 A 
ATOM     19  C   UNL     1       1.060  -6.965   3.516  0.00  0.00    +0.021 A 
ATOM     20  C   UNL     1       1.722  -6.975   2.304  0.00  0.00    +0.054 A 
ATOM     21 CL   UNL     1       3.418  -6.612   2.235  0.00  0.00    -0.083 Cl
ATOM     22 CL   UNL     1      -1.224  -7.944  -0.250  0.00  0.00    -0.083 Cl
ENDBRANCH  11  15
BRANCH   1  24
ATOM     23  N   UNL     1       0.125  -2.027  -2.774  0.00  0.00    -0.312 N 
ATOM     24  C   UNL     1       0.939  -2.792  -2.020  0.00  0.00    +0.218 C 
ATOM     25  O   UNL     1       1.869  -2.288  -1.427  0.00  0.00    -0.275 OA
ATOM     26  H   UNL     1      -0.618  -2.430  -3.249  0.00  0.00    +0.149 HD
BRANCH  23  27
ATOM     27  C   UNL     1       0.365  -0.585  -2.878  0.00  0.00    +0.148 C 
BRANCH  27  29
ATOM     28  C   UNL     1      -0.371   1.525  -3.995  0.00  0.00    +0.053 C 
ATOM     29  C   UNL     1      -0.693   0.044  -3.787  0.00  0.00    +0.187 C 
BRANCH  29  30
ATOM     30  O   UNL     1      -1.980  -0.083  -3.179  0.00  0.00    -0.486 OA
BRANCH  30  31
ATOM     31  C   UNL     1      -3.058  -0.060  -4.006  0.00  0.00    +0.139 A 
ATOM     32  C   UNL     1      -2.891   0.196  -5.359  0.00  0.00    +0.047 A 
ATOM     33  C   UNL     1      -3.988   0.218  -6.198  0.00  0.00    +0.004 A 
ATOM     34  C   UNL     1      -5.253  -0.013  -5.691  0.00  0.00    +0.002 A 
ATOM     35  C   UNL     1      -5.424  -0.268  -4.343  0.00  0.00    +0.023 A 
ATOM     36  C   UNL     1      -4.328  -0.298  -3.499  0.00  0.00    +0.083 A 
ATOM     37 CL   UNL     1      -4.542  -0.625  -1.808  0.00  0.00    -0.080 Cl
ENDBRANCH  30  31
ENDBRANCH  29  30
ENDBRANCH  27  29
ENDBRANCH  23  27
ENDBRANCH   1  24
TORSDOF 6
