REMARK  Name = ZINC02277994
REMARK  8 active torsions:
REMARK  status: ('A' for Active; 'I' for Inactive)
REMARK    1  A    between atoms: C_1  and  C_2
REMARK    2  A    between atoms: C_2  and  C_3
REMARK    3  A    between atoms: C_8  and  C_23
REMARK    4  A    between atoms: C_12  and  C_15
REMARK    5  A    between atoms: C_13  and  O_14
REMARK    6  A    between atoms: C_15  and  N_54
REMARK    7  A    between atoms: C_19  and  C_22
REMARK    8  A    between atoms: C_25  and  C_28
REMARK                            x       y       z     vdW  Elec       q    Type
REMARK                         _______ _______ _______ _____ _____    ______ ____
ROOT
ATOM      1  C   UNL     1      -1.694   4.899   3.580  0.00  0.00    -0.005 A 
ATOM      2  C   UNL     1      -2.704   5.681   3.097  0.00  0.00    +0.022 A 
ATOM      3  C   UNL     1      -3.769   5.094   2.414  0.00  0.00    +0.065 A 
ATOM      4  C   UNL     1      -4.875   5.907   1.878  0.00  0.00    +0.202 A 
ATOM      5  O   UNL     1      -4.901   7.119   2.012  0.00  0.00    -0.286 OA
ATOM      6  C   UNL     1      -5.949   5.185   1.172  0.00  0.00    +0.089 A 
ATOM      7  C   UNL     1      -5.860   3.832   1.058  0.00  0.00    +0.210 A 
ATOM      8  O   UNL     1      -4.838   3.135   1.559  0.00  0.00    -0.462 OA
ATOM      9  C   UNL     1      -3.809   3.702   2.220  0.00  0.00    +0.143 A 
ATOM     10  C   UNL     1      -2.774   2.921   2.718  0.00  0.00    +0.021 A 
ATOM     11  C   UNL     1      -1.727   3.518   3.400  0.00  0.00    +0.125 A 
ENDROOT
BRANCH   6  12
ATOM     12  C   UNL     1      -7.099   5.915   0.601  0.00  0.00    +0.115 A 
ATOM     13  N   UNL     1      -8.146   5.447  -0.066  0.00  0.00    -0.244 NA
ATOM     14  C   UNL     1      -9.089   6.251  -0.503  0.00  0.00    +0.046 A 
ATOM     15  C   UNL     1      -8.995   7.588  -0.284  0.00  0.00    +0.070 A 
ATOM     16  S   UNL     1      -7.450   7.668   0.613  0.00  0.00    -0.075 S 
ATOM     17  C   UNL     1     -10.271   5.690  -1.251  0.00  0.00    +0.066 C 
ENDBRANCH   6  12
BRANCH   1  19
ATOM     18  C   UNL     1       0.610   5.784   3.345  0.00  0.00    +0.009 C 
ATOM     19  C   UNL     1      -0.543   5.531   4.319  0.00  0.00    +0.035 C 
ENDBRANCH   1  19
BRANCH  11  20
ATOM     20  O   UNL     1      -0.720   2.751   3.890  0.00  0.00    -0.506 OA
ATOM     21  H   UNL     1       0.013   2.623   3.273  0.00  0.00    +0.292 HD
ENDBRANCH  11  20
BRANCH  10  22
ATOM     22  C   UNL     1      -2.794   1.427   2.523  0.00  0.00    -0.036 C 
BRANCH  22  29
ATOM     23  C   UNL     1      -2.861   1.601   0.109  0.00  0.00    -0.078 C 
ATOM     24  C   UNL     1      -2.206   1.108  -1.183  0.00  0.00    -0.018 C 
ATOM     25  C   UNL     1      -0.755   1.594  -1.231  0.00  0.00    -0.001 C 
ATOM     26  C   UNL     1      -0.013   1.086   0.008  0.00  0.00    -0.031 C 
ATOM     27  C   UNL     1      -0.731   1.580   1.266  0.00  0.00    -0.075 C 
ATOM     28  C   UNL     1       1.422   1.616  -0.003  0.00  0.00    +0.005 C 
ATOM     29  N   UNL     1      -2.114   1.058   1.264  0.00  0.00    +0.383 N 
ATOM     30  H   UNL     1      -2.084   0.034   1.189  0.00  0.00    -0.081 HD
ENDBRANCH  22  29
ENDBRANCH  10  22
TORSDOF 5
