REMARK  Name = ZINC39599838
REMARK  6 active torsions:
REMARK  status: ('A' for Active; 'I' for Inactive)
REMARK    1  A    between atoms: C_3  and  O_32
REMARK    2  A    between atoms: C_6  and  C_7
REMARK    3  A    between atoms: C_7  and  N_8
REMARK    4  A    between atoms: C_9  and  C_11
REMARK    5  A    between atoms: C_22  and  C_24
REMARK    6  A    between atoms: O_32  and  C_33
REMARK                            x       y       z     vdW  Elec       q    Type
REMARK                         _______ _______ _______ _____ _____    ______ ____
ROOT
ATOM      1  C   UNL     1      -3.185  -2.389  -3.409  0.00  0.00    +0.100 C 
ATOM      2  C   UNL     1      -3.539  -0.964  -3.891  0.00  0.00    +0.121 C 
ATOM      3  N   UNL     1      -4.807  -1.127  -4.641  0.00  0.00    -0.296 N 
ATOM      4  C   UNL     1      -5.578  -2.116  -3.852  0.00  0.00    +0.115 C 
ATOM      5  C   UNL     1      -4.526  -3.142  -3.384  0.00  0.00    -0.004 C 
ATOM      6  C   UNL     1      -4.841  -3.611  -1.967  0.00  0.00    -0.010 C 
ATOM      7  C   UNL     1      -6.149  -4.407  -1.977  0.00  0.00    -0.082 C 
ATOM      8  N   UNL     1      -6.016  -5.559  -2.878  0.00  0.00    +0.379 N 
ATOM      9  C   UNL     1      -5.806  -5.096  -4.255  0.00  0.00    -0.082 C 
ATOM     10  C   UNL     1      -4.483  -4.329  -4.341  0.00  0.00    -0.010 C 
ATOM     11  C   UNL     1      -5.175  -0.514  -5.784  0.00  0.00    +0.249 C 
ATOM     12  O   UNL     1      -6.293  -0.682  -6.231  0.00  0.00    -0.270 OA
ATOM     13  H   UNL     1      -5.229  -6.121  -2.589  0.00  0.00    -0.086 HD
ATOM     14  H   UNL     1      -6.857  -6.115  -2.836  0.00  0.00    -0.086 HD
ENDROOT
BRANCH  11  15
ATOM     15  C   UNL     1      -4.221   0.363  -6.492  0.00  0.00    +0.073 A 
ATOM     16  C   UNL     1      -3.314   1.142  -5.770  0.00  0.00    +0.036 A 
ATOM     17  C   UNL     1      -2.425   1.958  -6.438  0.00  0.00    +0.042 A 
ATOM     18  C   UNL     1      -2.429   2.008  -7.822  0.00  0.00    +0.023 A 
ATOM     19  C   UNL     1      -3.323   1.241  -8.545  0.00  0.00    +0.040 A 
ATOM     20  C   UNL     1      -4.217   0.413  -7.889  0.00  0.00    +0.136 A 
ATOM     21  F   UNL     1      -5.087  -0.341  -8.597  0.00  0.00    -0.205 F 
ATOM     22 CL   UNL     1      -1.298   2.927  -5.541  0.00  0.00    -0.084 Cl
ENDBRANCH  11  15
BRANCH   1  24
ATOM     23  N   UNL     1      -1.703  -3.286  -1.644  0.00  0.00    -0.311 N 
ATOM     24  C   UNL     1      -2.584  -2.341  -2.028  0.00  0.00    +0.218 C 
ATOM     25  O   UNL     1      -2.893  -1.452  -1.262  0.00  0.00    -0.275 OA
ATOM     26  H   UNL     1      -1.456  -3.996  -2.256  0.00  0.00    +0.149 HD
BRANCH  23  27
ATOM     27  C   UNL     1      -1.118  -3.239  -0.301  0.00  0.00    +0.139 C 
BRANCH  27  33
ATOM     28  C   UNL     1       1.162  -4.260  -0.459  0.00  0.00    +0.009 A 
ATOM     29  C   UNL     1       2.030  -5.322  -0.298  0.00  0.00    +0.046 A 
ATOM     30  C   UNL     1       1.563  -6.529   0.200  0.00  0.00    +0.130 A 
ATOM     31  C   UNL     1       0.224  -6.667   0.535  0.00  0.00    +0.046 A 
ATOM     32  C   UNL     1      -0.641  -5.602   0.372  0.00  0.00    +0.009 A 
ATOM     33  C   UNL     1      -0.173  -4.400  -0.125  0.00  0.00    -0.030 A 
BRANCH  30  34
ATOM     34  O   UNL     1       2.416  -7.575   0.359  0.00  0.00    -0.406 OA
BRANCH  34  35
ATOM     35  C   UNL     1       1.865  -8.788   0.877  0.00  0.00    +0.575 C 
ATOM     36  F   UNL     1       0.861  -9.248   0.018  0.00  0.00    -0.133 F 
ATOM     37  F   UNL     1       2.873  -9.753   0.976  0.00  0.00    -0.133 F 
ATOM     38  F   UNL     1       1.322  -8.550   2.144  0.00  0.00    -0.133 F 
ENDBRANCH  34  35
ENDBRANCH  30  34
ENDBRANCH  27  33
ENDBRANCH  23  27
ENDBRANCH   1  24
TORSDOF 6
