REMARK  Name = ZINC08384896
REMARK  10 active torsions:
REMARK  status: ('A' for Active; 'I' for Inactive)
REMARK    1  A    between atoms: C_1  and  C_2
REMARK    2  A    between atoms: C_2  and  C_10
REMARK    3  A    between atoms: C_3  and  C_4
REMARK    4  A    between atoms: C_11  and  C_12
REMARK    5  A    between atoms: C_11  and  N_25
REMARK    6  A    between atoms: N_14  and  N_15
REMARK    7  A    between atoms: C_16  and  C_17
REMARK    8  A    between atoms: C_16  and  C_18
REMARK    9  A    between atoms: C_23  and  O_24
REMARK   10  A    between atoms: C_26  and  C_28
REMARK                            x       y       z     vdW  Elec       q    Type
REMARK                         _______ _______ _______ _____ _____    ______ ____
ROOT
ATOM      1  C   UNL     1      -1.639   2.354  -0.193  0.00  0.00    +0.032 C 
ATOM      2  C   UNL     1      -2.688   1.487  -0.146  0.00  0.00    +0.098 C 
ENDROOT
BRANCH   2   3
ATOM      3  C   UNL     1      -4.020   1.923  -0.576  0.00  0.00    +0.277 C 
ATOM      4  O   UNL     1      -4.189   3.061  -0.975  0.00  0.00    -0.267 OA
ATOM      5  N   UNL     1      -5.058   1.065  -0.529  0.00  0.00    -0.202 N 
ATOM      6  H   UNL     1      -4.924   0.159  -0.211  0.00  0.00    +0.178 HD
BRANCH   5   7
ATOM      7  N   UNL     1      -6.331   1.482  -0.940  0.00  0.00    -0.184 NA
ATOM      8  C   UNL     1      -7.331   0.655  -0.894  0.00  0.00    +0.067 C 
ATOM      9  C   UNL     1      -7.123  -0.753  -0.400  0.00  0.00    +0.068 C 
BRANCH   8  10
ATOM     10  C   UNL     1      -8.670   1.093  -1.327  0.00  0.00    +0.039 A 
ATOM     11  C   UNL     1      -9.749   0.207  -1.279  0.00  0.00    +0.013 A 
ATOM     12  C   UNL     1     -10.999   0.624  -1.685  0.00  0.00    +0.001 A 
ATOM     13  C   UNL     1     -11.190   1.918  -2.139  0.00  0.00    +0.004 A 
ATOM     14  C   UNL     1     -10.132   2.804  -2.190  0.00  0.00    +0.046 A 
ATOM     15  C   UNL     1      -8.870   2.404  -1.782  0.00  0.00    +0.126 A 
BRANCH  15  16
ATOM     16  O   UNL     1      -7.830   3.276  -1.827  0.00  0.00    -0.506 OA
ATOM     17  H   UNL     1      -7.347   3.270  -2.665  0.00  0.00    +0.292 HD
ENDBRANCH  15  16
ENDBRANCH   8  10
ENDBRANCH   5   7
ENDBRANCH   2   3
BRANCH   2  18
ATOM     18  N   UNL     1      -2.495   0.182   0.312  0.00  0.00    -0.277 N 
ATOM     19  C   UNL     1      -3.176  -0.263   1.387  0.00  0.00    +0.248 C 
ATOM     20  O   UNL     1      -4.020   0.442   1.906  0.00  0.00    -0.270 OA
ATOM     21  H   UNL     1      -1.870  -0.404  -0.142  0.00  0.00    +0.155 HD
BRANCH  19  22
ATOM     22  C   UNL     1      -2.898  -1.607   1.933  0.00  0.00    +0.037 A 
ATOM     23  C   UNL     1      -1.934  -2.422   1.336  0.00  0.00    +0.013 A 
ATOM     24  C   UNL     1      -1.677  -3.674   1.854  0.00  0.00    +0.001 A 
ATOM     25  C   UNL     1      -2.378  -4.127   2.957  0.00  0.00    +0.000 A 
ATOM     26  C   UNL     1      -3.338  -3.328   3.551  0.00  0.00    +0.001 A 
ATOM     27  C   UNL     1      -3.602  -2.071   3.046  0.00  0.00    +0.013 A 
ENDBRANCH  19  22
ENDBRANCH   2  18
BRANCH   1  29
ATOM     28  C   UNL     1       0.819   2.217  -0.761  0.00  0.00    +0.044 C 
ATOM     29  C   UNL     1      -0.344   1.913   0.148  0.00  0.00    -0.048 C 
ATOM     30  C   UNL     1      -0.144   1.223   1.294  0.00  0.00    +0.011 C 
BRANCH  30  31
ATOM     31  C   UNL     1       1.223   0.891   1.724  0.00  0.00    -0.025 A 
ATOM     32  C   UNL     1       1.470  -0.289   2.433  0.00  0.00    +0.008 A 
ATOM     33  C   UNL     1       2.755  -0.595   2.827  0.00  0.00    +0.001 A 
ATOM     34  C   UNL     1       3.797   0.267   2.534  0.00  0.00    +0.000 A 
ATOM     35  C   UNL     1       3.560   1.440   1.839  0.00  0.00    +0.001 A 
ATOM     36  C   UNL     1       2.282   1.758   1.432  0.00  0.00    +0.008 A 
ENDBRANCH  30  31
ENDBRANCH   1  29
TORSDOF 8
