REMARK  Name = ZINC39467034
REMARK  6 active torsions:
REMARK  status: ('A' for Active; 'I' for Inactive)
REMARK    1  A    between atoms: C_4  and  C_7
REMARK    2  A    between atoms: C_7  and  C_8
REMARK    3  A    between atoms: P_17  and  C_33
REMARK    4  A    between atoms: C_25  and  C_26
REMARK    5  A    between atoms: C_26  and  C_27
REMARK    6  A    between atoms: C_38  and  O_39
REMARK                            x       y       z     vdW  Elec       q    Type
REMARK                         _______ _______ _______ _____ _____    ______ ____
ROOT
ATOM      1  C   UNL     1       4.057  -1.074   1.440  0.00  0.00    -0.043 C 
ATOM      2  C   UNL     1       3.820  -2.280   1.947  0.00  0.00    -0.019 C 
ATOM      3  C   UNL     1       4.337  -2.631   3.316  0.00  0.00    +0.016 C 
ATOM      4  C   UNL     1       4.507  -4.137   3.450  0.00  0.00    -0.003 C 
ATOM      5  C   UNL     1       5.577  -4.484   4.495  0.00  0.00    -0.020 C 
ATOM      6  C   UNL     1       5.170  -5.850   5.066  0.00  0.00    +0.157 C 
ATOM      7  O   UNL     1       6.128  -6.290   6.043  0.00  0.00    -0.316 OA
ATOM      8  P   UNL     1       6.519  -5.243   7.226  0.00  0.00    +0.291 P 
ATOM      9  O   UNL     1       7.825  -5.604   7.822  0.00  0.00    -0.269 OA
ATOM     10  N   UNL     1       6.615  -3.777   6.478  0.00  0.00    -0.288 NA
ATOM     11  N   UNL     1       5.657  -3.465   5.535  0.00  0.00    +0.398 N 
ATOM     12  C   UNL     1       6.096  -2.163   5.009  0.00  0.00    -0.046 C 
ATOM     13  C   UNL     1       5.694  -1.967   3.541  0.00  0.00    +0.005 C 
ATOM     14  C   UNL     1       5.599  -0.499   3.221  0.00  0.00    -0.021 C 
ATOM     15  C   UNL     1       4.822  -0.090   2.225  0.00  0.00    -0.044 C 
ATOM     16  H   UNL     1       7.322  -3.153   6.703  0.00  0.00    +0.111 HD
ATOM     17  H   UNL     1       4.756  -3.363   5.977  0.00  0.00    -0.055 HD
ENDROOT
BRANCH   8  18
ATOM     18  C   UNL     1       5.229  -5.222   8.502  0.00  0.00    +0.091 A 
ATOM     19  C   UNL     1       4.169  -4.343   8.399  0.00  0.00    +0.018 A 
ATOM     20  C   UNL     1       3.186  -4.326   9.371  0.00  0.00    +0.001 A 
ATOM     21  C   UNL     1       3.262  -5.189  10.449  0.00  0.00    +0.004 A 
ATOM     22  C   UNL     1       4.320  -6.070  10.556  0.00  0.00    +0.046 A 
ATOM     23  C   UNL     1       5.305  -6.093   9.579  0.00  0.00    +0.131 A 
BRANCH  23  24
ATOM     24  O   UNL     1       6.344  -6.963   9.680  0.00  0.00    -0.506 OA
ATOM     25  H   UNL     1       7.104  -6.613  10.164  0.00  0.00    +0.292 HD
ENDBRANCH  23  24
ENDBRANCH   8  18
BRANCH   1  26
ATOM     26  C   UNL     1       3.552  -0.717   0.065  0.00  0.00    +0.070 C 
BRANCH  26  30
ATOM     27  C   UNL     1       6.612  -1.469  -2.819  0.00  0.00    +0.000 A 
ATOM     28  C   UNL     1       5.782  -2.496  -2.408  0.00  0.00    +0.000 A 
ATOM     29  C   UNL     1       4.792  -2.252  -1.474  0.00  0.00    +0.004 A 
ATOM     30  C   UNL     1       4.632  -0.983  -0.952  0.00  0.00    -0.043 A 
ATOM     31  C   UNL     1       5.462   0.044  -1.362  0.00  0.00    +0.004 A 
ATOM     32  C   UNL     1       6.451  -0.199  -2.297  0.00  0.00    +0.000 A 
ENDBRANCH  26  30
ENDBRANCH   1  26
BRANCH  15  33
ATOM     33  C   UNL     1       4.718   1.379   1.904  0.00  0.00    +0.070 C 
BRANCH  33  34
ATOM     34  C   UNL     1       3.531   1.968   2.621  0.00  0.00    -0.043 A 
ATOM     35  C   UNL     1       2.317   2.082   1.970  0.00  0.00    +0.004 A 
ATOM     36  C   UNL     1       1.228   2.622   2.628  0.00  0.00    +0.000 A 
ATOM     37  C   UNL     1       1.352   3.047   3.938  0.00  0.00    +0.000 A 
ATOM     38  C   UNL     1       2.566   2.932   4.589  0.00  0.00    +0.000 A 
ATOM     39  C   UNL     1       3.654   2.388   3.933  0.00  0.00    +0.004 A 
ENDBRANCH  33  34
ENDBRANCH  15  33
TORSDOF 6
