REMARK  Name = ZINC39252438
REMARK  11 active torsions:
REMARK  status: ('A' for Active; 'I' for Inactive)
REMARK    1  A    between atoms: C_1  and  C_2
REMARK    2  A    between atoms: C_2  and  C_3
REMARK    3  A    between atoms: C_2  and  C_4
REMARK    4  A    between atoms: C_2  and  C_5
REMARK    5  A    between atoms: C_9  and  N_12
REMARK    6  A    between atoms: C_13  and  C_15
REMARK    7  A    between atoms: N_20  and  C_22
REMARK    8  A    between atoms: C_22  and  C_23
REMARK    9  A    between atoms: C_23  and  C_24
REMARK   10  A    between atoms: C_27  and  O_33
REMARK   11  A    between atoms: O_33  and  C_34
REMARK                            x       y       z     vdW  Elec       q    Type
REMARK                         _______ _______ _______ _____ _____    ______ ____
ROOT
ATOM      1  C   UNL     1       5.375  -4.911  -1.866  0.00  0.00    +0.101 C 
ATOM      2  C   UNL     1       5.927  -4.644  -0.447  0.00  0.00    +0.110 C 
ATOM      3  C   UNL     1       7.327  -5.215  -0.479  0.00  0.00    +0.216 C 
ATOM      4  O   UNL     1       8.000  -5.463   0.499  0.00  0.00    -0.276 OA
ATOM      5  N   UNL     1       7.718  -5.409  -1.751  0.00  0.00    -0.300 N 
ATOM      6  C   UNL     1       6.673  -5.000  -2.698  0.00  0.00    +0.121 C 
ENDROOT
BRANCH   1   8
ATOM      7  N   UNL     1       3.361  -3.485  -1.691  0.00  0.00    -0.290 N 
ATOM      8  C   UNL     1       4.512  -3.768  -2.333  0.00  0.00    +0.220 C 
ATOM      9  O   UNL     1       4.853  -3.102  -3.288  0.00  0.00    -0.275 OA
ATOM     10  H   UNL     1       3.089  -4.018  -0.927  0.00  0.00    +0.151 HD
BRANCH   7  14
ATOM     11  C   UNL     1       0.718  -0.497  -1.257  0.00  0.00    +0.135 C 
ATOM     12  N   UNL     1       2.145  -0.082  -1.263  0.00  0.00    -0.241 NA
ATOM     13  N   UNL     1       3.090  -1.065  -1.728  0.00  0.00    -0.227 NA
ATOM     14  C   UNL     1       2.523  -2.373  -2.145  0.00  0.00    +0.216 C 
ATOM     15  S   UNL     1       0.910  -2.336  -1.242  0.00  0.00    -0.101 S 
ATOM     16  H   UNL     1       2.265   0.794  -1.750  0.00  0.00    +0.142 HD
ATOM     17  H   UNL     1       3.838  -1.190  -1.062  0.00  0.00    +0.143 HD
BRANCH  11  19
ATOM     18  C   UNL     1      -0.019   1.526   0.010  0.00  0.00    +0.013 C 
ATOM     19  C   UNL     1       0.002  -0.004   0.002  0.00  0.00    -0.012 C 
ATOM     20  C   UNL     1       0.742  -0.511   1.242  0.00  0.00    +0.013 C 
ATOM     21  C   UNL     1      -1.433  -0.534   0.013  0.00  0.00    +0.013 C 
ENDBRANCH  11  19
ENDBRANCH   7  14
ENDBRANCH   1   8
BRANCH   5  22
ATOM     22  C   UNL     1       9.018  -5.959  -2.141  0.00  0.00    +0.112 C 
BRANCH  22  23
ATOM     23  C   UNL     1       8.918  -7.482  -2.245  0.00  0.00    +0.056 C 
BRANCH  23  24
ATOM     24  C   UNL     1      10.256  -8.048  -2.646  0.00  0.00    -0.021 A 
ATOM     25  C   UNL     1      11.367  -8.377  -1.750  0.00  0.00    +0.006 A 
ATOM     26  C   UNL     1      11.556  -8.292  -0.370  0.00  0.00    +0.056 A 
ATOM     27  C   UNL     1      12.757  -8.695   0.180  0.00  0.00    +0.121 A 
ATOM     28  C   UNL     1      13.774  -9.184  -0.635  0.00  0.00    +0.047 A 
ATOM     29  C   UNL     1      13.598  -9.271  -1.999  0.00  0.00    +0.030 A 
ATOM     30  C   UNL     1      12.396  -8.870  -2.572  0.00  0.00    +0.047 A 
ATOM     31  N   UNL     1      11.930  -8.839  -3.870  0.00  0.00    -0.360 N 
ATOM     32  C   UNL     1      10.652  -8.351  -3.892  0.00  0.00    +0.087 A 
ATOM     33  H   UNL     1      12.432  -9.123  -4.649  0.00  0.00    +0.165 HD
BRANCH  27  34
ATOM     34  O   UNL     1      12.947  -8.614   1.525  0.00  0.00    -0.495 OA
ATOM     35  C   UNL     1      14.212  -9.048   2.028  0.00  0.00    +0.277 C 
ENDBRANCH  27  34
ENDBRANCH  23  24
ENDBRANCH  22  23
ENDBRANCH   5  22
TORSDOF 7
