REMARK  Name = ZINC06732822
REMARK  14 active torsions:
REMARK  status: ('A' for Active; 'I' for Inactive)
REMARK    1  A    between atoms: C_1  and  C_2
REMARK    2  A    between atoms: C_2  and  O_3
REMARK    3  A    between atoms: O_3  and  C_4
REMARK    4  A    between atoms: C_4  and  C_6
REMARK    5  A    between atoms: C_7  and  C_31
REMARK    6  A    between atoms: N_8  and  C_30
REMARK    7  A    between atoms: C_12  and  O_15
REMARK    8  A    between atoms: O_15  and  C_16
REMARK    9  A    between atoms: C_16  and  C_17
REMARK   10  A    between atoms: C_17  and  C_19
REMARK   11  A    between atoms: C_17  and  O_29
REMARK   12  A    between atoms: C_19  and  N_62
REMARK   13  A    between atoms: C_20  and  N_62
REMARK   14  A    between atoms: C_26  and  C_28
REMARK                            x       y       z     vdW  Elec       q    Type
REMARK                         _______ _______ _______ _____ _____    ______ ____
ROOT
ATOM      1  C   UNL     1      -4.077  -4.675   0.381  0.00  0.00    +0.087 A 
ATOM      2  C   UNL     1      -3.589  -5.949   0.330  0.00  0.00    +0.030 A 
ATOM      3  N   UNL     1      -2.242  -5.919   0.198  0.00  0.00    -0.346 N 
ATOM      4  C   UNL     1      -1.791  -4.614   0.158  0.00  0.00    +0.050 A 
ATOM      5  C   UNL     1      -2.912  -3.777   0.270  0.00  0.00    +0.018 A 
ATOM      6  C   UNL     1      -2.756  -2.394   0.266  0.00  0.00    +0.056 A 
ATOM      7  C   UNL     1      -1.491  -1.850   0.139  0.00  0.00    +0.121 A 
ATOM      8  C   UNL     1      -0.380  -2.680   0.028  0.00  0.00    +0.048 A 
ATOM      9  C   UNL     1      -0.525  -4.050   0.037  0.00  0.00    +0.030 A 
ATOM     10  C   UNL     1      -1.385  -7.104   0.111  0.00  0.00    +0.149 C 
ATOM     11  C   UNL     1      -4.425  -7.201   0.407  0.00  0.00    +0.064 C 
ENDROOT
BRANCH   1  12
ATOM     12  C   UNL     1      -5.482  -4.278   0.520  0.00  0.00    +0.341 C 
ATOM     13  O   UNL     1      -6.167  -4.110  -0.471  0.00  0.00    -0.245 OA
BRANCH  12  14
ATOM     14  O   UNL     1      -6.015  -4.099   1.746  0.00  0.00    -0.461 OA
BRANCH  14  16
ATOM     15  C   UNL     1      -7.834  -3.553   3.270  0.00  0.00    +0.048 C 
ATOM     16  C   UNL     1      -7.411  -3.706   1.807  0.00  0.00    +0.229 C 
ENDBRANCH  14  16
ENDBRANCH  12  14
ENDBRANCH   1  12
BRANCH   7  17
ATOM     17  O   UNL     1      -1.332  -0.499   0.130  0.00  0.00    -0.489 OA
BRANCH  17  18
ATOM     18  C   UNL     1       0.002  -0.004   0.002  0.00  0.00    +0.258 C 
BRANCH  18  19
ATOM     19  C   UNL     1      -0.019   1.526   0.010  0.00  0.00    +0.135 C 
BRANCH  19  20
ATOM     20  O   UNL     1      -0.710   1.999  -1.147  0.00  0.00    -0.390 OA
ATOM     21  H   UNL     1      -0.310   1.724  -1.984  0.00  0.00    +0.210 HD
ENDBRANCH  19  20
BRANCH  19  22
ATOM     22  C   UNL     1       1.417   2.055  -0.000  0.00  0.00    -0.047 C 
BRANCH  22  23
ATOM     23  N   UNL     1       1.391   3.525   0.129  0.00  0.00    +0.383 N 
ATOM     24  H   UNL     1       0.932   3.779   1.012  0.00  0.00    -0.085 HD
ATOM     25  H   UNL     1       0.866   3.925  -0.657  0.00  0.00    -0.085 HD
BRANCH  23  26
ATOM     26  C   UNL     1       2.764   4.064   0.122  0.00  0.00    -0.069 C 
ATOM     27  C   UNL     1       3.227   4.262  -1.323  0.00  0.00    -0.016 C 
ATOM     28  C   UNL     1       4.648   4.829  -1.330  0.00  0.00    -0.002 C 
ATOM     29  C   UNL     1       4.663   6.174  -0.601  0.00  0.00    +0.000 C 
ATOM     30  C   UNL     1       4.200   5.976   0.844  0.00  0.00    +0.002 C 
ATOM     31  C   UNL     1       2.780   5.408   0.851  0.00  0.00    -0.028 C 
ATOM     32  C   UNL     1       2.317   5.210   2.296  0.00  0.00    +0.006 C 
ENDBRANCH  23  26
ENDBRANCH  22  23
ENDBRANCH  19  22
ENDBRANCH  18  19
ENDBRANCH  17  18
ENDBRANCH   7  17
TORSDOF 10
