REMARK  Name = ZINC66269743
REMARK  8 active torsions:
REMARK  status: ('A' for Active; 'I' for Inactive)
REMARK    1  A    between atoms: C_1  and  C_2
REMARK    2  A    between atoms: C_9  and  N_13
REMARK    3  A    between atoms: C_10  and  C_11
REMARK    4  A    between atoms: C_14  and  C_16
REMARK    5  A    between atoms: C_16  and  C_17
REMARK    6  A    between atoms: C_17  and  C_19
REMARK    7  A    between atoms: C_17  and  N_20
REMARK    8  A    between atoms: C_21  and  C_23
REMARK                            x       y       z     vdW  Elec       q    Type
REMARK                         _______ _______ _______ _____ _____    ______ ____
ROOT
ATOM      1  N   UNL     1       0.696  -5.849   2.431  0.00  0.00    -0.279 N 
ATOM      2  C   UNL     1       1.678  -6.098   3.319  0.00  0.00    +0.219 C 
ATOM      3  O   UNL     1       2.384  -5.194   3.713  0.00  0.00    -0.275 OA
ATOM      4  H   UNL     1       0.132  -6.573   2.116  0.00  0.00    +0.155 HD
ENDROOT
BRANCH   1  12
ATOM      5  C   UNL     1      -0.019   1.526   0.010  0.00  0.00    +0.008 C 
ATOM      6  C   UNL     1       0.002  -0.004   0.002  0.00  0.00    -0.009 C 
ATOM      7  C   UNL     1      -1.434  -0.537   0.019  0.00  0.00    +0.008 C 
ATOM      8  C   UNL     1      -1.433  -2.045  -0.237  0.00  0.00    +0.037 C 
ATOM      9  C   UNL     1      -0.464  -2.704   0.734  0.00  0.00    -0.018 A 
ATOM     10  C   UNL     1       0.485  -1.986   1.374  0.00  0.00    -0.004 A 
ATOM     11  S   UNL     1       1.344  -3.168   2.371  0.00  0.00    -0.077 S 
ATOM     12  C   UNL     1       0.493  -4.558   1.966  0.00  0.00    +0.090 A 
ATOM     13  C   UNL     1      -0.459  -4.119   1.059  0.00  0.00    +0.084 A 
ATOM     14  C   UNL     1       0.739  -0.515   1.248  0.00  0.00    +0.046 C 
BRANCH  13  15
ATOM     15  C   UNL     1      -1.399  -5.024   0.469  0.00  0.00    +0.102 C 
ATOM     16  N   UNL     1      -2.144  -5.741   0.000  0.00  0.00    -0.191 NA
ENDBRANCH  13  15
ENDBRANCH   1  12
BRANCH   2  17
ATOM     17  C   UNL     1       1.900  -7.501   3.824  0.00  0.00    +0.118 C 
BRANCH  17  18
ATOM     18  C   UNL     1       3.066  -7.508   4.815  0.00  0.00    +0.079 C 
ATOM     19  C   UNL     1       3.371  -8.948   5.232  0.00  0.00    +0.028 C 
BRANCH  18  20
ATOM     20  N   UNL     1       2.707  -6.723   5.998  0.00  0.00    -0.312 N 
ATOM     21  C   UNL     1       3.673  -6.162   6.753  0.00  0.00    +0.216 C 
ATOM     22  O   UNL     1       4.839  -6.309   6.453  0.00  0.00    -0.276 OA
ATOM     23  H   UNL     1       1.775  -6.606   6.238  0.00  0.00    +0.149 HD
BRANCH  21  24
ATOM     24  C   UNL     1       3.304  -5.354   7.970  0.00  0.00    +0.075 C 
ATOM     25  C   UNL     1       2.429  -4.171   7.550  0.00  0.00    +0.013 C 
ATOM     26  C   UNL     1       2.054  -3.350   8.786  0.00  0.00    +0.001 C 
ATOM     27  C   UNL     1       3.327  -2.830   9.458  0.00  0.00    +0.000 C 
ATOM     28  C   UNL     1       4.201  -4.014   9.878  0.00  0.00    +0.001 C 
ATOM     29  C   UNL     1       4.576  -4.834   8.642  0.00  0.00    +0.013 C 
ENDBRANCH  21  24
ENDBRANCH  18  20
ENDBRANCH  17  18
ENDBRANCH   2  17
TORSDOF 6
