REMARK  Name = ZINC12576860
REMARK  5 active torsions:
REMARK  status: ('A' for Active; 'I' for Inactive)
REMARK    1  A    between atoms: C_1  and  C_2
REMARK    2  A    between atoms: C_2  and  C_4
REMARK    3  A    between atoms: C_2  and  N_14
REMARK    4  A    between atoms: C_15  and  C_17
REMARK    5  A    between atoms: C_29  and  C_32
REMARK                            x       y       z     vdW  Elec       q    Type
REMARK                         _______ _______ _______ _____ _____    ______ ____
ROOT
ATOM      1  C   UNL     1       1.648   6.124   1.032  0.00  0.00    +0.078 C 
ATOM      2  C   UNL     1       2.448   5.548  -0.139  0.00  0.00    +0.031 C 
ATOM      3  C   UNL     1       2.520   4.025  -0.001  0.00  0.00    +0.107 C 
ATOM      4  N   UNL     1       1.161   3.468   0.009  0.00  0.00    -0.314 N 
ATOM      5  C   UNL     1       0.390   3.971   1.153  0.00  0.00    +0.107 C 
ATOM      6  C   UNL     1       0.254   5.492   1.049  0.00  0.00    +0.031 C 
ATOM      7  C   UNL     1       1.193   2.078   0.002  0.00  0.00    +0.142 A 
ATOM      8  C   UNL     1      -0.016   1.355   0.009  0.00  0.00    +0.049 A 
ATOM      9  C   UNL     1       0.002  -0.004   0.002  0.00  0.00    +0.053 A 
ATOM     10  C   UNL     1       1.241  -0.673  -0.013  0.00  0.00    +0.178 A 
ATOM     11  N   UNL     1       1.593  -1.949  -0.024  0.00  0.00    -0.128 NA
ATOM     12  N   UNL     1       2.877  -2.034  -0.036  0.00  0.00    -0.123 NA
ATOM     13  C   UNL     1       3.410  -0.837  -0.035  0.00  0.00    +0.258 A 
ATOM     14  N   UNL     1       2.402   0.060  -0.021  0.00  0.00    -0.187 N 
ATOM     15  N   UNL     1       2.348   1.456  -0.013  0.00  0.00    -0.148 NA
ENDROOT
BRANCH   1  17
ATOM     16  N   UNL     1       0.854   8.341   1.790  0.00  0.00    -0.309 N 
ATOM     17  C   UNL     1       1.523   7.617   0.870  0.00  0.00    +0.217 C 
ATOM     18  O   UNL     1       2.023   8.167  -0.088  0.00  0.00    -0.275 OA
ATOM     19  H   UNL     1       0.454   7.901   2.556  0.00  0.00    +0.149 HD
BRANCH  16  21
ATOM     20  C   UNL     1       1.973  10.475   2.211  0.00  0.00    +0.033 C 
ATOM     21  C   UNL     1       0.732   9.793   1.632  0.00  0.00    +0.100 C 
BRANCH  21  22
ATOM     22  C   UNL     1      -0.494  10.276   2.362  0.00  0.00    -0.027 A 
ATOM     23  C   UNL     1      -0.824   9.740   3.594  0.00  0.00    +0.006 A 
ATOM     24  C   UNL     1      -1.946  10.190   4.258  0.00  0.00    +0.004 A 
ATOM     25  C   UNL     1      -2.755  11.169   3.695  0.00  0.00    -0.044 A 
ATOM     26  C   UNL     1      -2.428  11.701   2.468  0.00  0.00    -0.044 A 
ATOM     27  C   UNL     1      -1.294  11.250   1.803  0.00  0.00    +0.009 A 
ATOM     28  C   UNL     1      -3.252  12.771   1.802  0.00  0.00    +0.035 C 
ATOM     29  C   UNL     1      -4.646  12.840   2.424  0.00  0.00    +0.005 C 
ATOM     30  C   UNL     1      -4.491  12.942   3.946  0.00  0.00    +0.005 C 
ATOM     31  C   UNL     1      -3.973  11.603   4.468  0.00  0.00    +0.035 C 
ENDBRANCH  21  22
ENDBRANCH  16  21
ENDBRANCH   1  17
BRANCH  13  32
ATOM     32  C   UNL     1       4.883  -0.519  -0.047  0.00  0.00    +0.454 C 
ATOM     33  F   UNL     1       5.604  -1.664  -0.401  0.00  0.00    -0.163 F 
ATOM     34  F   UNL     1       5.134   0.496  -0.976  0.00  0.00    -0.163 F 
ATOM     35  F   UNL     1       5.279  -0.094   1.226  0.00  0.00    -0.163 F 
ENDBRANCH  13  32
TORSDOF 4
