REMARK  Name = ZINC19532381
REMARK  14 active torsions:
REMARK  status: ('A' for Active; 'I' for Inactive)
REMARK    1  A    between atoms: C_1  and  C_2
REMARK    2  A    between atoms: C_2  and  O_3
REMARK    3  A    between atoms: O_3  and  C_4
REMARK    4  A    between atoms: C_4  and  C_6
REMARK    5  A    between atoms: C_10  and  N_11
REMARK    6  A    between atoms: C_12  and  C_14
REMARK    7  A    between atoms: C_14  and  S_15
REMARK    8  A    between atoms: S_15  and  C_16
REMARK    9  A    between atoms: C_19  and  N_22
REMARK   10  A    between atoms: C_23  and  C_25
REMARK   11  A    between atoms: C_26  and  C_32
REMARK   12  A    between atoms: C_26  and  C_33
REMARK   13  A    between atoms: C_28  and  C_30
REMARK   14  A    between atoms: C_28  and  C_31
REMARK                            x       y       z     vdW  Elec       q    Type
REMARK                         _______ _______ _______ _____ _____    ______ ____
ROOT
ATOM      1  C   UNL     1       3.474  12.610   0.559  0.00  0.00    +0.091 A 
ATOM      2  C   UNL     1       3.367  14.049   0.664  0.00  0.00    -0.024 A 
ATOM      3  C   UNL     1       2.109  14.536   0.766  0.00  0.00    -0.016 A 
ATOM      4  S   UNL     1       1.071  13.103   0.712  0.00  0.00    -0.079 S 
ATOM      5  C   UNL     1       2.290  11.880   0.562  0.00  0.00    +0.086 A 
ATOM      6  C   UNL     1       1.718  15.971   0.902  0.00  0.00    -0.041 C 
ATOM      7  N   UNL     1       2.858  16.861   0.714  0.00  0.00    +0.389 N 
ATOM      8  C   UNL     1       4.027  16.337   0.026  0.00  0.00    -0.069 C 
ATOM      9  C   UNL     1       4.529  15.034   0.661  0.00  0.00    +0.024 C 
ATOM     10  C   UNL     1       3.731  16.095  -1.457  0.00  0.00    -0.010 C 
ATOM     11  C   UNL     1       5.160  17.375   0.120  0.00  0.00    -0.010 C 
ATOM     12  C   UNL     1       0.613  16.297  -0.112  0.00  0.00    -0.005 C 
ATOM     13  C   UNL     1       1.143  16.185   2.316  0.00  0.00    -0.005 C 
ATOM     14  H   UNL     1       2.548  17.736   0.124  0.00  0.00    -0.084 HD
ATOM     15  H   UNL     1       3.229  17.194   1.695  0.00  0.00    -0.084 HD
ENDROOT
BRANCH   5  16
ATOM     16  N   UNL     1       2.126  10.507   0.470  0.00  0.00    -0.279 N 
ATOM     17  C   UNL     1       0.888   9.973   0.490  0.00  0.00    +0.228 C 
ATOM     18  O   UNL     1      -0.082  10.694   0.589  0.00  0.00    -0.275 OA
ATOM     19  H   UNL     1       3.006   9.853   0.380  0.00  0.00    +0.155 HD
BRANCH  17  20
ATOM     20  C   UNL     1       0.710   8.480   0.389  0.00  0.00    +0.170 C 
BRANCH  20  21
ATOM     21  S   UNL     1      -1.058   8.077   0.445  0.00  0.00    -0.116 S 
BRANCH  21  22
ATOM     22  C   UNL     1      -1.098   6.320   0.318  0.00  0.00    +0.008 A 
ATOM     23  C   UNL     1      -2.316   5.650   0.328  0.00  0.00    +0.016 A 
ATOM     24  C   UNL     1      -2.347   4.274   0.229  0.00  0.00    +0.024 A 
ATOM     25  C   UNL     1      -1.162   3.558   0.120  0.00  0.00    +0.033 A 
ATOM     26  C   UNL     1       0.055   4.226   0.116  0.00  0.00    +0.024 A 
ATOM     27  C   UNL     1       0.087   5.603   0.209  0.00  0.00    +0.016 A 
BRANCH  25  28
ATOM     28  N   UNL     1      -1.195   2.161   0.019  0.00  0.00    -0.286 N 
ATOM     29  C   UNL     1      -0.265   1.516  -0.713  0.00  0.00    +0.214 C 
ATOM     30  O   UNL     1       0.540   2.148  -1.363  0.00  0.00    -0.276 OA
ATOM     31  C   UNL     1      -0.229   0.009  -0.727  0.00  0.00    +0.109 C 
ATOM     32  H   UNL     1      -1.979   1.590   0.538  0.00  0.00    +0.155 HD
ENDBRANCH  25  28
ENDBRANCH  21  22
ENDBRANCH  20  21
ENDBRANCH  17  20
ENDBRANCH   5  16
BRANCH   1  33
ATOM     33  C   UNL     1       4.771  11.936   0.456  0.00  0.00    +0.342 C 
ATOM     34  O   UNL     1       5.263  11.727  -0.636  0.00  0.00    -0.245 OA
BRANCH  33  35
ATOM     35  O   UNL     1       5.419  11.547   1.574  0.00  0.00    -0.461 OA
BRANCH  35  37
ATOM     36  C   UNL     1       7.278  10.521   2.765  0.00  0.00    +0.048 C 
ATOM     37  C   UNL     1       6.699  10.885   1.397  0.00  0.00    +0.229 C 
ENDBRANCH  35  37
ENDBRANCH  33  35
ENDBRANCH   1  33
TORSDOF 8
