REMARK  Name = ZINC19817342
REMARK  4 active torsions:
REMARK  status: ('A' for Active; 'I' for Inactive)
REMARK    1  A    between atoms: C_1  and  C_2
REMARK    2  A    between atoms: C_2  and  C_3
REMARK    3  A    between atoms: C_2  and  C_4
REMARK    4  A    between atoms: C_7  and  C_10
REMARK                            x       y       z     vdW  Elec       q    Type
REMARK                         _______ _______ _______ _____ _____    ______ ____
ROOT
ATOM      1  C   UNL     1      -0.762   1.597  -1.226  0.00  0.00    +0.032 C 
ATOM      2  C   UNL     1      -2.163   0.984  -1.301  0.00  0.00    +0.065 C 
ATOM      3  C   UNL     1      -2.873   1.206   0.008  0.00  0.00    +0.059 A 
ATOM      4  C   UNL     1      -2.205   1.487   1.197  0.00  0.00    +0.059 A 
ATOM      5  C   UNL     1      -3.171   1.637   2.202  0.00  0.00    +0.146 A 
ATOM      6  N   UNL     1      -4.345   1.454   1.655  0.00  0.00    -0.171 NA
ATOM      7  N   UNL     1      -4.179   1.183   0.288  0.00  0.00    -0.203 N 
ATOM      8  C   UNL     1      -5.201   0.934  -0.621  0.00  0.00    +0.230 A 
ATOM      9  N   UNL     1      -6.532   0.915  -0.319  0.00  0.00    -0.322 N 
ATOM     10  H   UNL     1      -6.864   1.106   0.712  0.00  0.00    +0.169 HD
ATOM     11  C   UNL     1      -7.214   0.634  -1.488  0.00  0.00    +0.068 A 
ATOM     12  C   UNL     1      -8.556   0.487  -1.808  0.00  0.00    +0.028 A 
ATOM     13  C   UNL     1      -8.925   0.197  -3.105  0.00  0.00    +0.002 A 
ATOM     14  C   UNL     1      -7.962   0.054  -4.095  0.00  0.00    +0.002 A 
ATOM     15  C   UNL     1      -6.626   0.197  -3.796  0.00  0.00    +0.030 A 
ATOM     16  C   UNL     1      -6.235   0.490  -2.486  0.00  0.00    +0.091 A 
ATOM     17  N   UNL     1      -5.030   0.690  -1.894  0.00  0.00    -0.211 NA
ATOM     18  C   UNL     1      -0.733   1.581   1.253  0.00  0.00    +0.167 C 
ATOM     19  O   UNL     1      -0.141   2.020   2.217  0.00  0.00    -0.292 OA
ATOM     20  C   UNL     1      -0.013   1.086   0.008  0.00  0.00    +0.088 C 
ENDROOT
BRANCH   1  24
ATOM     21  C   UNL     1       1.428   0.541  -4.739  0.00  0.00    -0.045 A 
ATOM     22  C   UNL     1       1.177   1.870  -4.455  0.00  0.00    +0.004 A 
ATOM     23  C   UNL     1       0.468   2.212  -3.318  0.00  0.00    +0.004 A 
ATOM     24  C   UNL     1       0.010   1.224  -2.466  0.00  0.00    -0.043 A 
ATOM     25  C   UNL     1       0.266  -0.104  -2.747  0.00  0.00    +0.004 A 
ATOM     26  C   UNL     1       0.970  -0.447  -3.886  0.00  0.00    +0.004 A 
BRANCH  21  28
ATOM     27  C   UNL     1       3.467  -0.593  -5.579  0.00  0.00    +0.012 C 
ATOM     28  C   UNL     1       2.201   0.168  -5.978  0.00  0.00    +0.013 C 
ATOM     29  C   UNL     1       1.333  -0.720  -6.872  0.00  0.00    +0.012 C 
ENDBRANCH  21  28
ENDBRANCH   1  24
TORSDOF 2
