REMARK  Name = ZINC63805527
REMARK  8 active torsions:
REMARK  status: ('A' for Active; 'I' for Inactive)
REMARK    1  A    between atoms: C_1  and  C_2
REMARK    2  A    between atoms: C_2  and  C_3
REMARK    3  A    between atoms: C_3  and  C_4
REMARK    4  A    between atoms: C_4  and  N_5
REMARK    5  A    between atoms: C_14  and  C_18
REMARK    6  A    between atoms: C_15  and  O_17
REMARK    7  A    between atoms: N_20  and  C_21
REMARK    8  A    between atoms: C_23  and  O_33
REMARK                            x       y       z     vdW  Elec       q    Type
REMARK                         _______ _______ _______ _____ _____    ______ ____
ROOT
ATOM      1  C   UNL     1       0.828  -1.857   6.003  0.00  0.00    +0.249 C 
ATOM      2  O   UNL     1       1.448  -1.426   6.959  0.00  0.00    -0.270 OA
ATOM      3  N   UNL     1      -0.516  -1.942   6.053  0.00  0.00    -0.294 N 
ATOM      4  H   UNL     1      -1.010  -2.285   5.292  0.00  0.00    +0.150 HD
ENDROOT
BRANCH   3   5
ATOM      5  C   UNL     1      -1.232  -1.517   7.259  0.00  0.00    +0.226 C 
ATOM      6  C   UNL     1      -2.509  -2.331   7.353  0.00  0.00    +0.132 C 
ATOM      7  C   UNL     1      -3.712  -1.622   7.388  0.00  0.00    +0.036 A 
ATOM      8  C   UNL     1      -4.944  -2.300   7.476  0.00  0.00    +0.013 A 
ATOM      9  C   UNL     1      -6.103  -1.586   7.508  0.00  0.00    +0.001 A 
ATOM     10  C   UNL     1      -6.096  -0.196   7.457  0.00  0.00    +0.002 A 
ATOM     11  C   UNL     1      -4.936   0.514   7.372  0.00  0.00    +0.024 A 
ATOM     12  C   UNL     1      -3.703  -0.158   7.334  0.00  0.00    +0.044 A 
ATOM     13  N   UNL     1      -2.564   0.542   7.250  0.00  0.00    -0.283 N 
ATOM     14  C   UNL     1      -1.371  -0.013   7.210  0.00  0.00    +0.245 C 
ATOM     15  O   UNL     1      -0.378   0.688   7.134  0.00  0.00    -0.273 OA
ATOM     16  H   UNL     1      -2.622   1.510   7.218  0.00  0.00    +0.155 HD
BRANCH   6  17
ATOM     17  O   UNL     1      -2.483  -3.667   7.401  0.00  0.00    -0.508 OA
ATOM     18  H   UNL     1      -3.358  -4.075   7.460  0.00  0.00    +0.292 HD
ENDBRANCH   6  17
ENDBRANCH   3   5
BRANCH   1  28
ATOM     19  N   UNL     1       1.471  -2.526   2.420  0.00  0.00    -0.300 N 
ATOM     20  C   UNL     1       2.846  -2.737   2.385  0.00  0.00    +0.043 A 
ATOM     21  C   UNL     1       3.489  -3.125   1.222  0.00  0.00    +0.024 A 
ATOM     22  C   UNL     1       4.859  -3.305   1.223  0.00  0.00    +0.002 A 
ATOM     23  C   UNL     1       5.595  -3.101   2.380  0.00  0.00    +0.001 A 
ATOM     24  C   UNL     1       4.970  -2.722   3.549  0.00  0.00    +0.013 A 
ATOM     25  C   UNL     1       3.587  -2.546   3.564  0.00  0.00    +0.043 A 
ATOM     26  C   UNL     1       2.875  -2.176   4.799  0.00  0.00    +0.200 C 
ATOM     27  O   UNL     1       3.565  -1.751   5.881  0.00  0.00    -0.287 OA
ATOM     28  C   UNL     1       1.517  -2.266   4.842  0.00  0.00    +0.108 C 
ATOM     29  C   UNL     1       0.744  -2.791   3.666  0.00  0.00    +0.243 C 
BRANCH  29  30
ATOM     30  O   UNL     1       0.559  -4.200   3.817  0.00  0.00    -0.370 OA
ATOM     31  H   UNL     1       0.084  -4.451   4.621  0.00  0.00    +0.212 HD
ENDBRANCH  29  30
BRANCH  19  32
ATOM     32  C   UNL     1       0.763  -2.041   1.233  0.00  0.00    +0.108 C 
BRANCH  32  33
ATOM     33  C   UNL     1       0.742  -0.511   1.242  0.00  0.00    +0.019 C 
BRANCH  33  35
ATOM     34  C   UNL     1      -0.019   1.526   0.010  0.00  0.00    +0.004 C 
ATOM     35  C   UNL     1       0.002  -0.004   0.002  0.00  0.00    -0.002 C 
ENDBRANCH  33  35
ENDBRANCH  32  33
ENDBRANCH  19  32
ENDBRANCH   1  28
TORSDOF 7
