REMARK  Name = ZINC39672807
REMARK  5 active torsions:
REMARK  status: ('A' for Active; 'I' for Inactive)
REMARK    1  A    between atoms: C_3  and  C_9
REMARK    2  A    between atoms: C_13  and  C_22
REMARK    3  A    between atoms: N_24  and  C_25
REMARK    4  A    between atoms: C_25  and  C_26
REMARK    5  A    between atoms: C_26  and  N_32
REMARK                            x       y       z     vdW  Elec       q    Type
REMARK                         _______ _______ _______ _____ _____    ______ ____
ROOT
ATOM      1  C   UNL     1       4.167   2.323   0.019  0.00  0.00    +0.249 C 
ATOM      2  O   UNL     1       5.270   1.812   0.043  0.00  0.00    -0.270 OA
ATOM      3  N   UNL     1       4.047   3.660  -0.103  0.00  0.00    -0.296 N 
ATOM      4  C   UNL     1       2.807   4.469  -0.051  0.00  0.00    +0.121 C 
ATOM      5  C   UNL     1       3.201   5.739   0.735  0.00  0.00    +0.100 C 
ATOM      6  C   UNL     1       4.724   5.855   0.554  0.00  0.00    -0.004 C 
ATOM      7  C   UNL     1       5.127   4.654  -0.314  0.00  0.00    +0.115 C 
ATOM      8  C   UNL     1       5.425   5.780   1.907  0.00  0.00    -0.010 C 
ATOM      9  C   UNL     1       6.933   5.955   1.706  0.00  0.00    -0.082 C 
ATOM     10  N   UNL     1       7.196   7.251   1.067  0.00  0.00    +0.379 N 
ATOM     11  C   UNL     1       6.596   7.280  -0.272  0.00  0.00    -0.082 C 
ATOM     12  C   UNL     1       5.074   7.160  -0.155  0.00  0.00    -0.010 C 
ATOM     13  H   UNL     1       6.797   7.988   1.629  0.00  0.00    -0.086 HD
ATOM     14  H   UNL     1       8.192   7.391   0.991  0.00  0.00    -0.086 HD
ENDROOT
BRANCH   1  17
ATOM     15  C   UNL     1       0.637   1.107  -0.359  0.00  0.00    +0.039 A 
ATOM     16  C   UNL     1       1.761   1.898  -0.459  0.00  0.00    +0.019 A 
ATOM     17  C   UNL     1       2.960   1.480   0.122  0.00  0.00    +0.072 A 
ATOM     18  C   UNL     1       3.013   0.258   0.803  0.00  0.00    +0.138 A 
ATOM     19  C   UNL     1       1.879  -0.525   0.895  0.00  0.00    +0.077 A 
ATOM     20  C   UNL     1       0.694  -0.103   0.316  0.00  0.00    +0.126 A 
ATOM     21  F   UNL     1      -0.412  -0.873   0.410  0.00  0.00    -0.205 F 
ATOM     22  F   UNL     1       4.169  -0.153   1.367  0.00  0.00    -0.205 F 
ENDBRANCH   1  17
BRANCH   5  23
ATOM     23  C   UNL     1       2.508   6.948   0.162  0.00  0.00    +0.218 C 
ATOM     24  O   UNL     1       2.154   6.950  -0.998  0.00  0.00    -0.275 OA
ATOM     25  N   UNL     1       2.282   8.026   0.938  0.00  0.00    -0.313 N 
ATOM     26  H   UNL     1       2.566   8.024   1.866  0.00  0.00    +0.149 HD
BRANCH  25  27
ATOM     27  C   UNL     1       1.608   9.202   0.381  0.00  0.00    +0.126 C 
BRANCH  27  28
ATOM     28  C   UNL     1       1.367  10.226   1.492  0.00  0.00    +0.038 C 
ATOM     29  C   UNL     1       0.554  11.397   0.938  0.00  0.00    +0.024 C 
ATOM     30  C   UNL     1       1.325  12.058  -0.206  0.00  0.00    +0.002 C 
ATOM     31  C   UNL     1       2.669  12.572   0.315  0.00  0.00    +0.000 C 
ATOM     32  C   UNL     1       3.482  11.400   0.870  0.00  0.00    +0.002 C 
ATOM     33  C   UNL     1       2.711  10.739   2.013  0.00  0.00    +0.024 C 
BRANCH  28  34
ATOM     34  N   UNL     1       0.626   9.591   2.590  0.00  0.00    -0.291 NA
ATOM     35  C   UNL     1      -0.586   8.925   2.092  0.00  0.00    +0.113 C 
ATOM     36  C   UNL     1      -1.295   8.228   3.256  0.00  0.00    +0.175 C 
ATOM     37  O   UNL     1      -1.585   9.189   4.275  0.00  0.00    -0.377 OA
ATOM     38  C   UNL     1      -0.427   9.857   4.783  0.00  0.00    +0.175 C 
ATOM     39  C   UNL     1       0.290  10.570   3.634  0.00  0.00    +0.113 C 
ENDBRANCH  28  34
ENDBRANCH  27  28
ENDBRANCH  25  27
ENDBRANCH   5  23
TORSDOF 5
