REMARK  Name = ZINC11999031
REMARK  9 active torsions:
REMARK  status: ('A' for Active; 'I' for Inactive)
REMARK    1  A    between atoms: C_1  and  C_2
REMARK    2  A    between atoms: C_2  and  C_3
REMARK    3  A    between atoms: C_2  and  C_4
REMARK    4  A    between atoms: C_7  and  N_10
REMARK    5  A    between atoms: C_23  and  C_24
REMARK    6  A    between atoms: C_23  and  N_62
REMARK    7  A    between atoms: C_24  and  C_25
REMARK    8  A    between atoms: C_28  and  S_31
REMARK    9  A    between atoms: S_31  and  N_34
REMARK                            x       y       z     vdW  Elec       q    Type
REMARK                         _______ _______ _______ _____ _____    ______ ____
ROOT
ATOM      1  N   UNL     1       1.162   3.485   0.009  0.00  0.00    -0.270 N 
ATOM      2  C   UNL     1       2.435   4.189   0.113  0.00  0.00    +0.090 C 
ATOM      3  C   UNL     1       3.289   3.517   1.215  0.00  0.00    +0.187 C 
ATOM      4  S   UNL     1       2.900   4.528   2.702  0.00  0.00    -0.031 S 
ATOM      5  O   UNL     1       4.087   5.172   3.146  0.00  0.00    -0.174 OA
ATOM      6  O   UNL     1       2.149   3.739   3.615  0.00  0.00    -0.174 OA
ATOM      7  C   UNL     1       1.788   5.782   1.936  0.00  0.00    +0.152 C 
ATOM      8  C   UNL     1       2.213   5.668   0.447  0.00  0.00    -0.024 C 
ATOM      9  C   UNL     1      -0.147   5.604  -0.063  0.00  0.00    +0.020 C 
ATOM     10  C   UNL     1      -0.018   4.105  -0.085  0.00  0.00    +0.203 C 
ATOM     11  O   UNL     1      -1.023   3.434  -0.191  0.00  0.00    -0.277 OA
ATOM     12  N   UNL     1       1.151   6.209  -0.423  0.00  0.00    +0.390 N 
ATOM     13  H   UNL     1       1.369   5.977  -1.399  0.00  0.00    -0.081 HD
ENDROOT
BRANCH   1  17
ATOM     14  C   UNL     1       1.207  -0.681  -0.013  0.00  0.00    -0.045 A 
ATOM     15  C   UNL     1       0.654  -0.002   1.058  0.00  0.00    +0.006 A 
ATOM     16  C   UNL     1       0.638   1.379   1.068  0.00  0.00    +0.024 A 
ATOM     17  C   UNL     1       1.177   2.086   0.002  0.00  0.00    +0.036 A 
ATOM     18  C   UNL     1       1.733   1.402  -1.071  0.00  0.00    +0.024 A 
ATOM     19  C   UNL     1       1.745   0.021  -1.076  0.00  0.00    +0.006 A 
BRANCH  14  21
ATOM     20  C   UNL     1       0.444  -2.699  -1.235  0.00  0.00    +0.012 C 
ATOM     21  C   UNL     1       1.223  -2.188  -0.021  0.00  0.00    +0.013 C 
ATOM     22  C   UNL     1       2.668  -2.682  -0.097  0.00  0.00    +0.012 C 
ENDBRANCH  14  21
ENDBRANCH   1  17
BRANCH  12  23
ATOM     23  C   UNL     1       1.080   7.679  -0.282  0.00  0.00    -0.073 C 
BRANCH  23  24
ATOM     24  C   UNL     1      -0.187   8.189  -0.970  0.00  0.00    +0.016 C 
BRANCH  24  25
ATOM     25  C   UNL     1      -0.254   9.690  -0.852  0.00  0.00    -0.049 A 
ATOM     26  C   UNL     1      -0.892  10.270   0.229  0.00  0.00    +0.005 A 
ATOM     27  C   UNL     1      -0.949  11.647   0.340  0.00  0.00    +0.029 A 
ATOM     28  C   UNL     1      -0.377  12.443  -0.635  0.00  0.00    +0.105 A 
ATOM     29  C   UNL     1       0.256  11.863  -1.718  0.00  0.00    +0.029 A 
ATOM     30  C   UNL     1       0.318  10.486  -1.827  0.00  0.00    +0.005 A 
BRANCH  28  31
ATOM     31  S   UNL     1      -0.456  14.198  -0.497  0.00  0.00    +0.056 S 
ATOM     32  O   UNL     1      -0.625  14.490   0.883  0.00  0.00    -0.153 OA
ATOM     33  O   UNL     1       0.628  14.714  -1.258  0.00  0.00    -0.153 OA
BRANCH  31  34
ATOM     34  N   UNL     1      -1.843  14.687  -1.258  0.00  0.00    -0.204 NA
ATOM     35  H   UNL     1      -2.428  14.031  -1.669  0.00  0.00    +0.144 HD
ATOM     36  H   UNL     1      -2.071  15.629  -1.292  0.00  0.00    +0.144 HD
ENDBRANCH  31  34
ENDBRANCH  28  31
ENDBRANCH  24  25
ENDBRANCH  23  24
ENDBRANCH  12  23
TORSDOF 7
