REMARK  Name = ZINC33919105
REMARK  7 active torsions:
REMARK  status: ('A' for Active; 'I' for Inactive)
REMARK    1  A    between atoms: C_1  and  C_2
REMARK    2  A    between atoms: C_5  and  N_9
REMARK    3  A    between atoms: C_14  and  C_27
REMARK    4  A    between atoms: C_17  and  C_22
REMARK    5  A    between atoms: C_17  and  C_24
REMARK    6  A    between atoms: C_22  and  O_23
REMARK    7  A    between atoms: C_32  and  O_33
REMARK                            x       y       z     vdW  Elec       q    Type
REMARK                         _______ _______ _______ _____ _____    ______ ____
ROOT
ATOM      1  N   UNL     1      -0.302  -4.307   0.316  0.00  0.00    -0.210 N 
ATOM      2  C   UNL     1      -0.248  -4.940  -0.901  0.00  0.00    +0.229 C 
ATOM      3  O   UNL     1      -0.122  -4.432  -1.995  0.00  0.00    -0.275 OA
ATOM      4  C   UNL     1      -0.375  -6.343  -0.592  0.00  0.00    +0.077 C 
ATOM      5  C   UNL     1      -0.090  -7.666  -1.174  0.00  0.00    -0.023 C 
ATOM      6  N   UNL     1      -0.335  -8.582  -0.007  0.00  0.00    +0.397 N 
ATOM      7  C   UNL     1      -0.179  -7.781   1.244  0.00  0.00    +0.071 C 
ATOM      8  C   UNL     1       0.402  -6.436   0.781  0.00  0.00    +0.088 C 
ATOM      9  C   UNL     1      -0.156  -5.168   1.366  0.00  0.00    +0.229 C 
ATOM     10  O   UNL     1      -0.423  -4.956   2.529  0.00  0.00    -0.275 OA
ATOM     11  H   UNL     1      -1.270  -8.958  -0.058  0.00  0.00    -0.083 HD
ATOM     12  H   UNL     1       0.338  -9.334  -0.016  0.00  0.00    -0.083 HD
ENDROOT
BRANCH   1  17
ATOM     13  C   UNL     1      -1.032   1.291   0.915  0.00  0.00    +0.045 C 
ATOM     14  C   UNL     1      -0.838  -0.195   0.756  0.00  0.00    -0.032 A 
ATOM     15  C   UNL     1      -0.801  -0.755  -0.508  0.00  0.00    +0.006 A 
ATOM     16  C   UNL     1      -0.623  -2.117  -0.656  0.00  0.00    +0.024 A 
ATOM     17  C   UNL     1      -0.482  -2.924   0.464  0.00  0.00    +0.045 A 
ATOM     18  C   UNL     1      -0.520  -2.361   1.732  0.00  0.00    +0.044 A 
ATOM     19  C   UNL     1      -0.693  -0.996   1.875  0.00  0.00    +0.046 A 
ATOM     20 CL   UNL     1      -0.734  -0.289   3.460  0.00  0.00    -0.083 Cl
ENDBRANCH   1  17
BRANCH   5  21
ATOM     21  C   UNL     1      -1.036  -7.971  -2.306  0.00  0.00    -0.018 A 
ATOM     22  C   UNL     1      -2.222  -8.634  -2.056  0.00  0.00    +0.020 A 
ATOM     23  C   UNL     1      -3.092  -8.914  -3.095  0.00  0.00    +0.018 A 
ATOM     24  C   UNL     1      -2.776  -8.531  -4.386  0.00  0.00    +0.019 A 
ATOM     25  C   UNL     1      -1.591  -7.868  -4.640  0.00  0.00    +0.047 A 
ATOM     26  C   UNL     1      -0.720  -7.581  -3.599  0.00  0.00    +0.119 A 
ATOM     27 BR   UNL     1      -4.714  -9.823  -2.749  0.00  0.00    -0.050 Br
BRANCH  26  28
ATOM     28  O   UNL     1       0.444  -6.924  -3.846  0.00  0.00    -0.507 OA
ATOM     29  H   UNL     1       1.188  -7.506  -4.051  0.00  0.00    +0.292 HD
ENDBRANCH  26  28
ENDBRANCH   5  21
BRANCH   7  30
ATOM     30  C   UNL     1       0.787  -8.458   2.181  0.00  0.00    +0.348 C 
ATOM     31  O   UNL     1       1.290  -9.525   1.871  0.00  0.00    -0.248 OA
ATOM     32  O   UNL     1       1.065  -7.940   3.249  0.00  0.00    -0.248 OA
ENDBRANCH   7  30
BRANCH   7  33
ATOM     33  C   UNL     1      -1.537  -7.594   1.925  0.00  0.00    +0.155 C 
BRANCH  33  34
ATOM     34  O   UNL     1      -2.069  -8.870   2.284  0.00  0.00    -0.396 OA
ATOM     35  H   UNL     1      -2.931  -8.828   2.722  0.00  0.00    +0.209 HD
ENDBRANCH  33  34
ENDBRANCH   7  33
TORSDOF 6
