REMARK  Name = ZINC14274133
REMARK  7 active torsions:
REMARK  status: ('A' for Active; 'I' for Inactive)
REMARK    1  A    between atoms: C_1  and  C_2
REMARK    2  A    between atoms: C_2  and  C_4
REMARK    3  A    between atoms: C_2  and  N_14
REMARK    4  A    between atoms: N_14  and  C_15
REMARK    5  A    between atoms: C_15  and  N_17
REMARK    6  A    between atoms: C_18  and  C_20
REMARK    7  A    between atoms: C_23  and  C_25
REMARK                            x       y       z     vdW  Elec       q    Type
REMARK                         _______ _______ _______ _____ _____    ______ ____
ROOT
ATOM      1  N   UNL     1       2.323   0.998  -0.015  0.00  0.00    -0.261 N 
ATOM      2  C   UNL     1       3.481   1.687  -0.022  0.00  0.00    +0.285 C 
ATOM      3  O   UNL     1       3.464   2.904  -0.015  0.00  0.00    -0.266 OA
ATOM      4  H   UNL     1       2.336   0.028  -0.020  0.00  0.00    +0.157 HD
ENDROOT
BRANCH   2   5
ATOM      5  C   UNL     1       4.758   0.973  -0.038  0.00  0.00    +0.190 A 
ATOM      6  C   UNL     1       6.009   1.552  -0.052  0.00  0.00    +0.055 A 
ATOM      7  C   UNL     1       6.937   0.506  -0.062  0.00  0.00    +0.051 A 
ATOM      8  C   UNL     1       6.228  -0.661  -0.062  0.00  0.00    +0.137 A 
ATOM      9  O   UNL     1       4.917  -0.368  -0.047  0.00  0.00    -0.450 OA
BRANCH   8  10
ATOM     10  C   UNL     1       6.805  -2.020  -0.075  0.00  0.00    +0.036 A 
ATOM     11  C   UNL     1       7.781  -2.357  -1.016  0.00  0.00    +0.014 A 
ATOM     12  C   UNL     1       8.320  -3.626  -1.021  0.00  0.00    +0.021 A 
ATOM     13  C   UNL     1       7.889  -4.569  -0.102  0.00  0.00    +0.042 A 
ATOM     14  C   UNL     1       6.919  -4.244   0.830  0.00  0.00    +0.040 A 
ATOM     15  C   UNL     1       6.374  -2.975   0.849  0.00  0.00    +0.053 A 
ATOM     16 CL   UNL     1       5.157  -2.568   2.018  0.00  0.00    -0.083 Cl
ATOM     17 CL   UNL     1       8.569  -6.167  -0.120  0.00  0.00    -0.083 Cl
ENDBRANCH   8  10
ENDBRANCH   2   5
BRANCH   1  18
ATOM     18  C   UNL     1       1.147   1.655   0.000  0.00  0.00    +0.137 C 
ATOM     19  S   UNL     1       1.124   3.367   0.009  0.00  0.00    -0.018 S 
BRANCH  18  20
ATOM     20  N   UNL     1      -0.011   0.966   0.007  0.00  0.00    -0.323 N 
ATOM     21  H   UNL     1       0.002  -0.004   0.002  0.00  0.00    +0.148 HD
BRANCH  20  23
ATOM     22  C   UNL     1      -1.680   2.047  -1.416  0.00  0.00    +0.028 C 
ATOM     23  C   UNL     1      -1.290   1.681   0.017  0.00  0.00    +0.075 C 
BRANCH  23  24
ATOM     24  C   UNL     1      -2.370   0.786   0.627  0.00  0.00    -0.010 C 
ATOM     25  C   UNL     1      -1.980   0.419   2.060  0.00  0.00    +0.012 C 
ATOM     26  C   UNL     1      -3.060  -0.476   2.670  0.00  0.00    -0.010 C 
ATOM     27  C   UNL     1      -4.395   0.271   2.681  0.00  0.00    +0.007 C 
ATOM     28  C   UNL     1      -4.786   0.637   1.248  0.00  0.00    -0.010 C 
ATOM     29  C   UNL     1      -3.705   1.533   0.638  0.00  0.00    +0.012 C 
ATOM     30  C   UNL     1      -4.921  -0.638   0.414  0.00  0.00    +0.007 C 
ATOM     31  C   UNL     1      -3.586  -1.385   0.403  0.00  0.00    -0.010 C 
ATOM     32  C   UNL     1      -3.196  -1.752   1.837  0.00  0.00    +0.007 C 
ATOM     33  C   UNL     1      -2.506  -0.490  -0.206  0.00  0.00    +0.012 C 
ENDBRANCH  23  24
ENDBRANCH  20  23
ENDBRANCH  18  20
ENDBRANCH   1  18
TORSDOF 6
