REMARK  Name = ZINC65650747
REMARK  15 active torsions:
REMARK  status: ('A' for Active; 'I' for Inactive)
REMARK    1  A    between atoms: C_1  and  C_2
REMARK    2  A    between atoms: C_2  and  C_3
REMARK    3  A    between atoms: C_2  and  C_4
REMARK    4  A    between atoms: C_6  and  C_9
REMARK    5  A    between atoms: C_9  and  S_10
REMARK    6  A    between atoms: S_10  and  C_13
REMARK    7  A    between atoms: C_13  and  C_14
REMARK    8  A    between atoms: C_14  and  C_15
REMARK    9  A    between atoms: C_14  and  O_27
REMARK   10  A    between atoms: C_15  and  O_16
REMARK   11  A    between atoms: O_16  and  C_17
REMARK   12  A    between atoms: C_20  and  C_23
REMARK   13  A    between atoms: C_23  and  C_24
REMARK   14  A    between atoms: C_23  and  C_25
REMARK   15  A    between atoms: C_23  and  C_26
REMARK                            x       y       z     vdW  Elec       q    Type
REMARK                         _______ _______ _______ _____ _____    ______ ____
ROOT
ATOM      1  C   UNL     1      -5.211  -6.494  -1.649  0.00  0.00    +0.173 C 
ENDROOT
BRANCH   1   2
ATOM      2  O   UNL     1      -5.689  -6.693  -0.318  0.00  0.00    -0.387 OA
ATOM      3  H   UNL     1      -6.587  -6.365  -0.169  0.00  0.00    +0.210 HD
ENDBRANCH   1   2
BRANCH   1   4
ATOM      4  C   UNL     1      -5.203  -4.997  -1.970  0.00  0.00    +0.201 C 
BRANCH   4   5
ATOM      5  S   UNL     1      -4.006  -4.156  -0.898  0.00  0.00    -0.020 S 
ATOM      6  O   UNL     1      -2.704  -4.622  -1.226  0.00  0.00    -0.174 OA
ATOM      7  O   UNL     1      -4.458  -4.255   0.446  0.00  0.00    -0.174 OA
BRANCH   5   8
ATOM      8  C   UNL     1      -4.145  -2.425  -1.424  0.00  0.00    +0.264 C 
BRANCH   8  11
ATOM      9  C   UNL     1      -1.412  -0.526   0.013  0.00  0.00    +0.174 A 
ATOM     10  N   UNL     1      -1.960  -1.305  -0.926  0.00  0.00    -0.194 NA
ATOM     11  C   UNL     1      -3.197  -1.577  -0.615  0.00  0.00    +0.248 A 
ATOM     12  O   UNL     1      -3.481  -0.973   0.546  0.00  0.00    -0.336 OA
ATOM     13  N   UNL     1      -2.296  -0.296   0.940  0.00  0.00    -0.061 NA
BRANCH   9  15
ATOM     14  C   UNL     1      -0.019   1.526   0.010  0.00  0.00    +0.015 C 
ATOM     15  C   UNL     1       0.002  -0.004   0.002  0.00  0.00    +0.054 C 
ATOM     16  C   UNL     1       0.742  -0.511   1.242  0.00  0.00    +0.015 C 
ENDBRANCH   9  15
ENDBRANCH   8  11
ENDBRANCH   5   8
ENDBRANCH   4   5
ENDBRANCH   1   4
BRANCH   1  17
ATOM     17  C   UNL     1      -6.127  -7.222  -2.635  0.00  0.00    +0.262 C 
BRANCH  17  18
ATOM     18  O   UNL     1      -6.044  -8.630  -2.411  0.00  0.00    -0.489 OA
BRANCH  18  19
ATOM     19  C   UNL     1      -6.802  -9.428  -3.209  0.00  0.00    +0.121 A 
ATOM     20  C   UNL     1      -7.604  -8.866  -4.191  0.00  0.00    +0.046 A 
ATOM     21  C   UNL     1      -8.374  -9.679  -5.001  0.00  0.00    +0.008 A 
ATOM     22  C   UNL     1      -8.345 -11.051  -4.833  0.00  0.00    -0.042 A 
ATOM     23  C   UNL     1      -7.546 -11.613  -3.855  0.00  0.00    +0.008 A 
ATOM     24  C   UNL     1      -6.770 -10.805  -3.046  0.00  0.00    +0.046 A 
BRANCH  22  25
ATOM     25  C   UNL     1      -9.185 -11.935  -5.718  0.00  0.00    -0.013 C 
ATOM     26  C   UNL     1      -8.776 -11.732  -7.178  0.00  0.00    +0.015 C 
ATOM     27  C   UNL     1      -8.971 -13.399  -5.328  0.00  0.00    +0.015 C 
ATOM     28  C   UNL     1     -10.661 -11.572  -5.547  0.00  0.00    +0.015 C 
ENDBRANCH  22  25
ENDBRANCH  18  19
ENDBRANCH  17  18
ENDBRANCH   1  17
TORSDOF 10
