REMARK  Name = ZINC66607971
REMARK  9 active torsions:
REMARK  status: ('A' for Active; 'I' for Inactive)
REMARK    1  A    between atoms: C_1  and  C_2
REMARK    2  A    between atoms: C_5  and  C_12
REMARK    3  A    between atoms: C_8  and  C_10
REMARK    4  A    between atoms: C_8  and  C_11
REMARK    5  A    between atoms: C_12  and  C_13
REMARK    6  A    between atoms: N_15  and  C_16
REMARK    7  A    between atoms: C_20  and  N_22
REMARK    8  A    between atoms: N_22  and  S_23
REMARK    9  A    between atoms: S_23  and  N_26
REMARK                            x       y       z     vdW  Elec       q    Type
REMARK                         _______ _______ _______ _____ _____    ______ ____
ROOT
ATOM      1  C   UNL     1       0.742  -1.979  -3.764  0.00  0.00    +0.217 C 
ATOM      2  O   UNL     1      -0.210  -1.234  -3.665  0.00  0.00    -0.275 OA
ATOM      3  N   UNL     1       1.101  -2.457  -4.971  0.00  0.00    -0.285 N 
ATOM      4  H   UNL     1       1.907  -2.990  -5.062  0.00  0.00    +0.155 HD
ENDROOT
BRANCH   3   5
ATOM      5  C   UNL     1       0.313  -2.184  -6.095  0.00  0.00    +0.035 A 
ATOM      6  C   UNL     1       0.908  -2.029  -7.341  0.00  0.00    +0.023 A 
ATOM      7  C   UNL     1       0.131  -1.759  -8.450  0.00  0.00    +0.004 A 
ATOM      8  C   UNL     1      -1.240  -1.641  -8.325  0.00  0.00    +0.024 A 
ATOM      9  C   UNL     1      -1.841  -1.795  -7.082  0.00  0.00    +0.051 A 
ATOM     10  C   UNL     1      -1.063  -2.072  -5.966  0.00  0.00    +0.047 A 
BRANCH   9  11
ATOM     11  N   UNL     1      -3.227  -1.676  -6.957  0.00  0.00    -0.207 N 
ATOM     12  H   UNL     1      -3.605  -1.158  -6.229  0.00  0.00    +0.175 HD
BRANCH  11  13
ATOM     13  S   UNL     1      -4.224  -2.421  -8.049  0.00  0.00    +0.107 S 
ATOM     14  O   UNL     1      -5.556  -2.138  -7.641  0.00  0.00    -0.138 OA
ATOM     15  O   UNL     1      -3.735  -2.084  -9.340  0.00  0.00    -0.138 OA
BRANCH  13  16
ATOM     16  N   UNL     1      -4.012  -4.053  -7.873  0.00  0.00    -0.191 NA
ATOM     17  H   UNL     1      -3.386  -4.393  -7.213  0.00  0.00    +0.146 HD
ATOM     18  H   UNL     1      -4.512  -4.671  -8.429  0.00  0.00    +0.146 HD
ENDBRANCH  13  16
ENDBRANCH  11  13
ENDBRANCH   9  11
ENDBRANCH   3   5
BRANCH   1  19
ATOM     19  C   UNL     1       1.522  -2.371  -2.535  0.00  0.00    +0.099 C 
BRANCH  19  23
ATOM     20  C   UNL     1       0.624   2.011  -0.308  0.00  0.00    +0.007 C 
ATOM     21  C   UNL     1       0.461   0.494  -0.192  0.00  0.00    -0.013 C 
ATOM     22  C   UNL     1       1.073  -0.180  -1.422  0.00  0.00    +0.007 C 
ATOM     23  C   UNL     1       0.911  -1.697  -1.306  0.00  0.00    -0.002 C 
ATOM     24  C   UNL     1       1.624  -2.191  -0.045  0.00  0.00    +0.010 C 
ATOM     25  C   UNL     1       1.012  -1.517   1.184  0.00  0.00    -0.034 C 
ATOM     26  C   UNL     1       1.175   0.000   1.068  0.00  0.00    +0.009 C 
ATOM     27  C   UNL     1       1.725  -2.011   2.445  0.00  0.00    +0.011 C 
ATOM     28  C   UNL     1      -0.475  -1.865   1.270  0.00  0.00    +0.011 C 
ENDBRANCH  19  23
ENDBRANCH   1  19
TORSDOF 6
