REMARK  Name = ZINC06409950
REMARK  15 active torsions:
REMARK  status: ('A' for Active; 'I' for Inactive)
REMARK    1  A    between atoms: C_1  and  C_2
REMARK    2  A    between atoms: C_7  and  C_14
REMARK    3  A    between atoms: C_14  and  C_16
REMARK    4  A    between atoms: C_14  and  N_78
REMARK    5  A    between atoms: N_20  and  C_21
REMARK    6  A    between atoms: C_21  and  C_22
REMARK    7  A    between atoms: C_21  and  C_23
REMARK    8  A    between atoms: C_21  and  C_24
REMARK    9  A    between atoms: C_25  and  C_26
REMARK   10  A    between atoms: C_25  and  N_78
REMARK   11  A    between atoms: C_32  and  C_33
REMARK   12  A    between atoms: C_32  and  N_78
REMARK   13  A    between atoms: C_36  and  C_39
REMARK   14  A    between atoms: C_39  and  C_40
REMARK   15  A    between atoms: C_39  and  C_41
REMARK                            x       y       z     vdW  Elec       q    Type
REMARK                         _______ _______ _______ _____ _____    ______ ____
ROOT
ATOM      1  C   UNL     1       5.412  -1.653  -1.177  0.00  0.00    +0.040 C 
ENDROOT
BRANCH   1   8
ATOM      2  C   UNL     1      10.836   1.187   3.936  0.00  0.00    +0.044 C 
ATOM      3  C   UNL     1       9.801   0.465   3.112  0.00  0.00    -0.048 A 
ATOM      4  C   UNL     1       9.344  -0.781   3.521  0.00  0.00    +0.004 A 
ATOM      5  C   UNL     1       8.407  -1.452   2.788  0.00  0.00    +0.010 A 
ATOM      6  C   UNL     1       7.903  -0.879   1.615  0.00  0.00    -0.001 A 
ATOM      7  C   UNL     1       6.898  -1.571   0.806  0.00  0.00    +0.017 A 
ATOM      8  C   UNL     1       6.446  -0.968  -0.321  0.00  0.00    +0.011 A 
ATOM      9  C   UNL     1       6.946   0.297  -0.699  0.00  0.00    +0.251 A 
ATOM     10  O   UNL     1       6.530   0.820  -1.718  0.00  0.00    -0.268 OA
ATOM     11  N   UNL     1       7.865   0.943   0.041  0.00  0.00    -0.322 N 
ATOM     12  H   UNL     1       8.184   1.813  -0.246  0.00  0.00    +0.169 HD
ATOM     13  C   UNL     1       8.364   0.383   1.198  0.00  0.00    +0.049 A 
ATOM     14  C   UNL     1       9.319   1.048   1.960  0.00  0.00    +0.029 A 
ENDBRANCH   1   8
BRANCH   1  15
ATOM     15  C   UNL     1       6.010  -1.982  -2.520  0.00  0.00    +0.143 A 
ATOM     16  N   UNL     1       6.228  -1.147  -3.506  0.00  0.00    -0.115 NA
ATOM     17  N   UNL     1       6.751  -1.808  -4.480  0.00  0.00    -0.023 NA
ATOM     18  N   UNL     1       6.864  -3.046  -4.144  0.00  0.00    -0.043 NA
ATOM     19  N   UNL     1       6.418  -3.193  -2.943  0.00  0.00    -0.225 N 
BRANCH  19  20
ATOM     20  C   UNL     1       6.366  -4.444  -2.181  0.00  0.00    +0.059 C 
ATOM     21  C   UNL     1       4.908  -4.801  -1.887  0.00  0.00    +0.036 C 
ATOM     22  C   UNL     1       7.011  -5.565  -2.998  0.00  0.00    +0.036 C 
ATOM     23  C   UNL     1       7.125  -4.270  -0.864  0.00  0.00    +0.036 C 
ENDBRANCH  19  20
ENDBRANCH   1  15
BRANCH   1  24
ATOM     24  N   UNL     1       4.267  -0.739  -1.377  0.00  0.00    +0.395 N 
ATOM     25  H   UNL     1       4.553   0.020  -2.006  0.00  0.00    -0.079 HD
BRANCH  24  26
ATOM     26  C   UNL     1       3.851  -0.160  -0.083  0.00  0.00    -0.041 C 
BRANCH  26  27
ATOM     27  C   UNL     1       2.904   0.983  -0.345  0.00  0.00    -0.064 A 
ATOM     28  C   UNL     1       1.538   0.775  -0.288  0.00  0.00    +0.002 A 
ATOM     29  C   UNL     1       0.669   1.823  -0.529  0.00  0.00    +0.000 A 
ATOM     30  C   UNL     1       1.166   3.079  -0.827  0.00  0.00    +0.000 A 
ATOM     31  C   UNL     1       2.532   3.286  -0.883  0.00  0.00    +0.000 A 
ATOM     32  C   UNL     1       3.401   2.238  -0.642  0.00  0.00    +0.002 A 
ENDBRANCH  26  27
ENDBRANCH  24  26
BRANCH  24  33
ATOM     33  C   UNL     1       3.139  -1.471  -1.990  0.00  0.00    -0.041 C 
BRANCH  33  34
ATOM     34  C   UNL     1       3.348  -1.518  -3.481  0.00  0.00    -0.064 A 
ATOM     35  C   UNL     1       3.014  -0.426  -4.260  0.00  0.00    +0.002 A 
ATOM     36  C   UNL     1       3.210  -0.467  -5.628  0.00  0.00    +0.004 A 
ATOM     37  C   UNL     1       3.732  -1.603  -6.218  0.00  0.00    -0.045 A 
ATOM     38  C   UNL     1       4.061  -2.697  -5.439  0.00  0.00    +0.004 A 
ATOM     39  C   UNL     1       3.869  -2.654  -4.071  0.00  0.00    +0.002 A 
BRANCH  37  40
ATOM     40  C   UNL     1       3.942  -1.649  -7.709  0.00  0.00    +0.013 C 
ATOM     41  C   UNL     1       2.622  -1.344  -8.420  0.00  0.00    +0.012 C 
ATOM     42  C   UNL     1       4.989  -0.607  -8.109  0.00  0.00    +0.012 C 
ENDBRANCH  37  40
ENDBRANCH  33  34
ENDBRANCH  24  33
ENDBRANCH   1  24
TORSDOF 9
