REMARK  Name = ZINC08928043
REMARK  6 active torsions:
REMARK  status: ('A' for Active; 'I' for Inactive)
REMARK    1  A    between atoms: C_1  and  C_2
REMARK    2  A    between atoms: C_2  and  N_51
REMARK    3  A    between atoms: C_10  and  O_28
REMARK    4  A    between atoms: C_12  and  C_15
REMARK    5  A    between atoms: C_18  and  C_20
REMARK    6  A    between atoms: C_23  and  C_27
REMARK                            x       y       z     vdW  Elec       q    Type
REMARK                         _______ _______ _______ _____ _____    ______ ____
ROOT
ATOM      1  C   UNL     1       2.373   0.256   0.426  0.00  0.00    -0.074 C 
ATOM      2  C   UNL     1       2.465   1.721  -0.010  0.00  0.00    +0.018 C 
ATOM      3  C   UNL     1       1.060   2.313   0.004  0.00  0.00    -0.027 A 
ATOM      4  C   UNL     1      -0.018   1.492   0.010  0.00  0.00    -0.021 A 
ATOM      5  S   UNL     1      -1.418   2.579   0.022  0.00  0.00    -0.080 S 
ATOM      6  C   UNL     1      -0.591   4.077   0.024  0.00  0.00    +0.080 A 
ATOM      7  C   UNL     1       0.768   3.733   0.014  0.00  0.00    +0.067 A 
ATOM      8  C   UNL     1       1.750   4.848   0.021  0.00  0.00    +0.220 C 
ATOM      9  N   UNL     1       1.301   6.052  -0.209  0.00  0.00    -0.220 NA
ATOM     10  C   UNL     1      -0.082   6.375  -0.536  0.00  0.00    +0.260 C 
ATOM     11  N   UNL     1      -1.018   5.382   0.025  0.00  0.00    -0.311 N 
ATOM     12  C   UNL     1       0.002  -0.004   0.002  0.00  0.00    -0.035 C 
ATOM     13  H   UNL     1      -1.886   5.637   0.375  0.00  0.00    +0.149 HD
ATOM     14  N   UNL     1       1.363  -0.438  -0.399  0.00  0.00    +0.383 N 
ATOM     15  H   UNL     1       1.513  -0.197  -1.385  0.00  0.00    -0.081 HD
ENDROOT
BRANCH  10  16
ATOM     16  C   UNL     1      -0.238   6.406  -2.035  0.00  0.00    +0.148 A 
ATOM     17  C   UNL     1       0.732   6.707  -2.920  0.00  0.00    +0.049 A 
ATOM     18  C   UNL     1       0.162   6.616  -4.205  0.00  0.00    +0.050 A 
ATOM     19  C   UNL     1      -1.141   6.268  -4.031  0.00  0.00    +0.135 A 
ATOM     20  O   UNL     1      -1.369   6.144  -2.710  0.00  0.00    -0.456 OA
BRANCH  19  21
ATOM     21  C   UNL     1      -2.134   6.062  -5.106  0.00  0.00    +0.019 A 
ATOM     22  C   UNL     1      -1.766   6.228  -6.442  0.00  0.00    +0.012 A 
ATOM     23  C   UNL     1      -2.696   6.030  -7.441  0.00  0.00    +0.005 A 
ATOM     24  C   UNL     1      -3.995   5.676  -7.122  0.00  0.00    -0.032 A 
ATOM     25  C   UNL     1      -4.369   5.515  -5.798  0.00  0.00    +0.045 A 
ATOM     26  C   UNL     1      -3.446   5.705  -4.789  0.00  0.00    +0.031 A 
ATOM     27 CL   UNL     1      -6.001   5.072  -5.407  0.00  0.00    -0.083 Cl
ATOM     28  C   UNL     1      -5.007   5.467  -8.218  0.00  0.00    +0.045 C 
ENDBRANCH  19  21
ENDBRANCH  10  16
BRANCH  14  30
ATOM     29  C   UNL     1       0.591  -2.597  -1.256  0.00  0.00    -0.017 C 
ATOM     30  C   UNL     1       1.495  -1.902  -0.236  0.00  0.00    -0.082 C 
ENDBRANCH  14  30
BRANCH   8  31
ATOM     31  O   UNL     1       3.063   4.623   0.258  0.00  0.00    -0.492 OA
ATOM     32  H   UNL     1       3.608   5.422   0.239  0.00  0.00    +0.294 HD
ENDBRANCH   8  31
TORSDOF 4
