REMARK  Name = ZINC06867706
REMARK  8 active torsions:
REMARK  status: ('A' for Active; 'I' for Inactive)
REMARK    1  A    between atoms: C_1  and  C_2
REMARK    2  A    between atoms: C_2  and  C_3
REMARK    3  A    between atoms: C_10  and  S_15
REMARK    4  A    between atoms: S_15  and  N_18
REMARK    5  A    between atoms: N_18  and  C_19
REMARK    6  A    between atoms: C_22  and  C_25
REMARK    7  A    between atoms: C_25  and  C_26
REMARK    8  A    between atoms: C_25  and  C_27
REMARK                            x       y       z     vdW  Elec       q    Type
REMARK                         _______ _______ _______ _____ _____    ______ ____
ROOT
ATOM      1  C   UNL     1      -0.059  -0.446   0.073  0.00  0.00    +0.137 C 
ATOM      2  C   UNL     1      -1.159   0.581   0.147  0.00  0.00    +0.231 C 
ATOM      3  O   UNL     1      -2.304   0.193   0.250  0.00  0.00    -0.274 OA
ATOM      4  N   UNL     1      -0.936   1.890   0.107  0.00  0.00    -0.284 N 
ATOM      5  C   UNL     1       0.304   2.521   0.108  0.00  0.00    +0.049 A 
ATOM      6  C   UNL     1       0.390   3.851  -0.291  0.00  0.00    +0.053 A 
ATOM      7  C   UNL     1       1.610   4.497  -0.306  0.00  0.00    +0.110 A 
ATOM      8  C   UNL     1       2.761   3.830   0.074  0.00  0.00    +0.030 A 
ATOM      9  C   UNL     1       2.691   2.509   0.476  0.00  0.00    +0.018 A 
ATOM     10  C   UNL     1       1.468   1.858   0.495  0.00  0.00    +0.030 A 
ATOM     11  S   UNL     1       1.370   0.172   1.014  0.00  0.00    -0.111 S 
ATOM     12  H   UNL     1      -1.717   2.464   0.068  0.00  0.00    +0.155 HD
ENDROOT
BRANCH   7  13
ATOM     13  S   UNL     1       1.702   6.182  -0.814  0.00  0.00    +0.072 S 
ATOM     14  O   UNL     1       0.386   6.707  -0.718  0.00  0.00    -0.150 OA
ATOM     15  O   UNL     1       2.804   6.754  -0.122  0.00  0.00    -0.150 OA
BRANCH  13  16
ATOM     16  N   UNL     1       2.098   6.188  -2.422  0.00  0.00    -0.216 N 
ATOM     17  H   UNL     1       2.936   6.579  -2.713  0.00  0.00    +0.174 HD
BRANCH  16  18
ATOM     18  C   UNL     1       1.225   5.628  -3.358  0.00  0.00    +0.048 A 
ATOM     19  C   UNL     1       1.525   4.405  -3.945  0.00  0.00    +0.025 A 
ATOM     20  C   UNL     1       0.657   3.853  -4.867  0.00  0.00    +0.006 A 
ATOM     21  C   UNL     1      -0.503   4.521  -5.213  0.00  0.00    -0.045 A 
ATOM     22  C   UNL     1      -0.801   5.741  -4.635  0.00  0.00    +0.006 A 
ATOM     23  C   UNL     1       0.059   6.297  -3.708  0.00  0.00    +0.025 A 
BRANCH  21  24
ATOM     24  C   UNL     1      -1.445   3.918  -6.223  0.00  0.00    +0.013 C 
ATOM     25  C   UNL     1      -0.714   3.731  -7.554  0.00  0.00    +0.012 C 
ATOM     26  C   UNL     1      -1.936   2.560  -5.716  0.00  0.00    +0.012 C 
ENDBRANCH  21  24
ENDBRANCH  16  18
ENDBRANCH  13  16
ENDBRANCH   7  13
BRANCH   1  28
ATOM     27  C   UNL     1       1.371  -1.794  -1.470  0.00  0.00    +0.005 C 
ATOM     28  C   UNL     1       0.343  -0.664  -1.387  0.00  0.00    +0.020 C 
ENDBRANCH   1  28
TORSDOF 5
