REMARK  Name = ZINC09455724
REMARK  2 active torsions:
REMARK  status: ('A' for Active; 'I' for Inactive)
REMARK    1  A    between atoms: C_6  and  C_7
REMARK    2  A    between atoms: N_13  and  C_14
REMARK                            x       y       z     vdW  Elec       q    Type
REMARK                         _______ _______ _______ _____ _____    ______ ____
ROOT
ATOM      1  C   UNL     1       1.405   2.302   0.001  0.00  0.00    +0.081 C 
ATOM      2  N   UNL     1       2.344   1.688   0.638  0.00  0.00    -0.151 NA
ATOM      3  N   UNL     1       2.239   0.621   1.321  0.00  0.00    -0.127 NA
ATOM      4  C   UNL     1       1.273  -0.259   1.202  0.00  0.00    +0.176 C 
ATOM      5  S   UNL     1       0.002  -0.004   0.002  0.00  0.00    -0.083 S 
ATOM      6  C   UNL     1      -0.022   1.811   0.012  0.00  0.00    +0.135 C 
ATOM      7  N   UNL     1       1.251  -1.373   2.005  0.00  0.00    -0.320 N 
ATOM      8  H   UNL     1       0.536  -2.022   1.914  0.00  0.00    +0.148 HD
ENDROOT
BRANCH   1  14
ATOM      9  C   UNL     1       0.738   4.204  -1.459  0.00  0.00    +0.011 A 
ATOM     10  C   UNL     1       1.048   5.341  -2.169  0.00  0.00    +0.024 A 
ATOM     11  C   UNL     1       2.359   5.818  -2.198  0.00  0.00    +0.037 A 
ATOM     12  C   UNL     1       3.348   5.131  -1.500  0.00  0.00    -0.017 A 
ATOM     13  C   UNL     1       3.050   4.000  -0.782  0.00  0.00    +0.015 A 
ATOM     14  C   UNL     1       1.735   3.517  -0.759  0.00  0.00    -0.001 A 
ATOM     15  C   UNL     1       4.635   5.891  -1.728  0.00  0.00    +0.133 C 
ATOM     16  C   UNL     1       4.227   7.047  -2.616  0.00  0.00    +0.222 C 
ATOM     17  O   UNL     1       4.955   7.916  -3.047  0.00  0.00    -0.275 OA
ATOM     18  N   UNL     1       2.907   6.931  -2.837  0.00  0.00    -0.285 N 
ATOM     19  H   UNL     1       2.393   7.549  -3.380  0.00  0.00    +0.155 HD
ENDBRANCH   1  14
BRANCH   7  20
ATOM     20  C   UNL     1       2.307  -1.581   2.999  0.00  0.00    +0.072 C 
ATOM     21  C   UNL     1       3.501  -2.316   2.355  0.00  0.00    +0.022 C 
ATOM     22  C   UNL     1       4.006  -3.266   3.470  0.00  0.00    +0.002 C 
ATOM     23  C   UNL     1       2.692  -3.738   4.140  0.00  0.00    +0.002 C 
ATOM     24  C   UNL     1       1.793  -2.484   4.133  0.00  0.00    +0.022 C 
ENDBRANCH   7  20
TORSDOF 2
