REMARK  Name = ZINC36667765
REMARK  4 active torsions:
REMARK  status: ('A' for Active; 'I' for Inactive)
REMARK    1  A    between atoms: C_6  and  C_7
REMARK    2  A    between atoms: N_9  and  N_10
REMARK    3  A    between atoms: C_11  and  C_13
REMARK    4  A    between atoms: C_13  and  C_14
REMARK                            x       y       z     vdW  Elec       q    Type
REMARK                         _______ _______ _______ _____ _____    ______ ____
ROOT
ATOM      1  C   UNL     1      -1.265  -0.758   0.009  0.00  0.00    +0.260 C 
ATOM      2  O   UNL     1      -1.249  -1.974   0.003  0.00  0.00    -0.269 OA
ATOM      3  N   UNL     1      -2.441  -0.100   0.024  0.00  0.00    -0.230 N 
ATOM      4  H   UNL     1      -2.454   0.870   0.029  0.00  0.00    +0.173 HD
ENDROOT
BRANCH   1  10
ATOM      5  C   UNL     1      -0.017   1.393   0.010  0.00  0.00    +0.014 A 
ATOM      6  C   UNL     1       1.166   2.101   0.002  0.00  0.00    +0.017 A 
ATOM      7  C   UNL     1       2.377   1.422  -0.013  0.00  0.00    +0.029 A 
ATOM      8  C   UNL     1       2.404   0.026  -0.018  0.00  0.00    +0.048 A 
ATOM      9  C   UNL     1       1.223  -0.688  -0.012  0.00  0.00    +0.037 A 
ATOM     10  C   UNL     1       0.002  -0.004   0.002  0.00  0.00    +0.040 A 
ATOM     11  N   UNL     1       3.640  -0.640  -0.029  0.00  0.00    -0.285 N 
ATOM     12  C   UNL     1       4.589  -0.318   0.859  0.00  0.00    +0.218 C 
ATOM     13  O   UNL     1       5.710  -0.759   0.717  0.00  0.00    -0.275 OA
ATOM     14  C   UNL     1       4.292   0.577   2.026  0.00  0.00    +0.107 C 
ATOM     15  C   UNL     1       4.554   2.047   1.657  0.00  0.00    +0.083 C 
ATOM     16  S   UNL     1       3.901   2.311  -0.026  0.00  0.00    -0.123 S 
ATOM     17  H   UNL     1       3.808  -1.337  -0.683  0.00  0.00    +0.155 HD
ENDBRANCH   1  10
BRANCH   3  18
ATOM     18  N   UNL     1      -3.645  -0.817   0.031  0.00  0.00    -0.234 N 
ATOM     19  C   UNL     1      -4.821  -0.159   0.045  0.00  0.00    +0.230 C 
ATOM     20  O   UNL     1      -4.837   1.054   0.052  0.00  0.00    -0.274 OA
ATOM     21  H   UNL     1      -3.632  -1.787   0.025  0.00  0.00    +0.173 HD
BRANCH  19  22
ATOM     22  C   UNL     1      -6.116  -0.930   0.053  0.00  0.00    +0.104 C 
BRANCH  22  23
ATOM     23  C   UNL     1      -7.292   0.049   0.069  0.00  0.00    -0.020 C 
ATOM     24  C   UNL     1      -7.211   0.923   1.322  0.00  0.00    +0.011 C 
ATOM     25  C   UNL     1      -8.387   1.901   1.338  0.00  0.00    -0.010 C 
ATOM     26  C   UNL     1      -9.702   1.119   1.346  0.00  0.00    +0.007 C 
ATOM     27  C   UNL     1      -9.783   0.245   0.092  0.00  0.00    -0.010 C 
ATOM     28  C   UNL     1      -8.607  -0.734   0.076  0.00  0.00    +0.011 C 
ATOM     29  C   UNL     1      -9.725   1.132  -1.153  0.00  0.00    +0.007 C 
ATOM     30  C   UNL     1      -8.410   1.915  -1.161  0.00  0.00    -0.010 C 
ATOM     31  C   UNL     1      -8.329   2.789   0.093  0.00  0.00    +0.007 C 
ATOM     32  C   UNL     1      -7.234   0.936  -1.177  0.00  0.00    +0.011 C 
ENDBRANCH  22  23
ENDBRANCH  19  22
ENDBRANCH   3  18
TORSDOF 4
