REMARK  Name = ZINC21775513
REMARK  5 active torsions:
REMARK  status: ('A' for Active; 'I' for Inactive)
REMARK    1  A    between atoms: C_1  and  C_2
REMARK    2  A    between atoms: C_5  and  C_8
REMARK    3  A    between atoms: C_13  and  C_18
REMARK    4  A    between atoms: C_21  and  O_24
REMARK    5  A    between atoms: O_24  and  C_25
REMARK                            x       y       z     vdW  Elec       q    Type
REMARK                         _______ _______ _______ _____ _____    ______ ____
ROOT
ATOM      1  C   UNL     1      -0.076   5.774   0.032  0.00  0.00    +0.177 C 
ATOM      2  C   UNL     1      -0.785   6.261   1.278  0.00  0.00    +0.041 C 
ATOM      3  C   UNL     1      -2.026   6.790   1.238  0.00  0.00    +0.020 C 
ATOM      4  C   UNL     1      -2.717   7.244   2.502  0.00  0.00    +0.060 C 
ATOM      5  C   UNL     1      -1.676   7.744   3.506  0.00  0.00    +0.032 C 
ATOM      6  C   UNL     1      -0.694   6.603   3.792  0.00  0.00    +0.088 C 
ATOM      7  C   UNL     1      -0.091   6.140   2.495  0.00  0.00    +0.164 C 
ATOM      8  O   UNL     1       1.021   5.650   2.499  0.00  0.00    -0.292 OA
ATOM      9  N   UNL     1      -2.716   6.937   0.057  0.00  0.00    -0.286 N 
ATOM     10  C   UNL     1      -2.015   6.795  -1.128  0.00  0.00    +0.240 A 
ATOM     11  N   UNL     1      -0.769   6.253  -1.154  0.00  0.00    -0.201 N 
ATOM     12  N   UNL     1      -0.379   6.278  -2.492  0.00  0.00    -0.042 NA
ATOM     13  N   UNL     1      -1.363   6.799  -3.152  0.00  0.00    -0.021 NA
ATOM     14  N   UNL     1      -2.328   7.103  -2.354  0.00  0.00    -0.092 NA
ATOM     15  H   UNL     1      -3.793   7.160   0.073  0.00  0.00    +0.155 HD
ENDROOT
BRANCH   1  20
ATOM     16  C   UNL     1       0.002  -0.004   0.002  0.00  0.00    +0.044 C 
ATOM     17  C   UNL     1      -0.018   1.503   0.010  0.00  0.00    -0.050 A 
ATOM     18  C   UNL     1      -1.225   2.178   0.020  0.00  0.00    +0.004 A 
ATOM     19  C   UNL     1      -1.244   3.560   0.032  0.00  0.00    +0.006 A 
ATOM     20  C   UNL     1      -0.056   4.267   0.025  0.00  0.00    -0.018 A 
ATOM     21  C   UNL     1       1.151   3.592   0.010  0.00  0.00    +0.006 A 
ATOM     22  C   UNL     1       1.169   2.210   0.003  0.00  0.00    +0.004 A 
ENDBRANCH   1  20
BRANCH   5  23
ATOM     23  C   UNL     1      -2.360   8.158   4.783  0.00  0.00    -0.043 A 
ATOM     24  C   UNL     1      -3.102   7.237   5.499  0.00  0.00    +0.007 A 
ATOM     25  C   UNL     1      -3.725   7.613   6.673  0.00  0.00    +0.046 A 
ATOM     26  C   UNL     1      -3.616   8.919   7.127  0.00  0.00    +0.120 A 
ATOM     27  C   UNL     1      -2.876   9.843   6.404  0.00  0.00    +0.046 A 
ATOM     28  C   UNL     1      -2.250   9.461   5.234  0.00  0.00    +0.007 A 
BRANCH  26  29
ATOM     29  O   UNL     1      -4.234   9.293   8.278  0.00  0.00    -0.495 OA
ATOM     30  C   UNL     1      -4.979   8.290   8.971  0.00  0.00    +0.277 C 
ENDBRANCH  26  29
ENDBRANCH   5  23
TORSDOF 3
