REMARK  Name = ZINC09215913
REMARK  4 active torsions:
REMARK  status: ('A' for Active; 'I' for Inactive)
REMARK    1  A    between atoms: C_1  and  C_2
REMARK    2  A    between atoms: C_5  and  N_8
REMARK    3  A    between atoms: C_26  and  C_36
REMARK    4  A    between atoms: C_39  and  O_42
REMARK                            x       y       z     vdW  Elec       q    Type
REMARK                         _______ _______ _______ _____ _____    ______ ____
ROOT
ATOM      1  N   UNL     1       0.386   2.778  -1.918  0.00  0.00    -0.210 N 
ATOM      2  C   UNL     1       1.560   2.819  -1.279  0.00  0.00    +0.230 C 
ATOM      3  O   UNL     1       2.542   3.421  -1.656  0.00  0.00    -0.274 OA
ATOM      4  C   UNL     1       1.472   1.994  -0.011  0.00  0.00    +0.091 C 
ATOM      5  C   UNL     1       2.207   0.632  -0.343  0.00  0.00    +0.007 C 
ATOM      6  C   UNL     1       1.375  -0.276   0.673  0.00  0.00    +0.010 C 
ATOM      7  C   UNL     1      -0.037   0.013   0.018  0.00  0.00    +0.016 C 
ATOM      8  C   UNL     1      -0.024   1.562   0.020  0.00  0.00    +0.092 C 
ATOM      9  C   UNL     1      -0.566   2.080  -1.288  0.00  0.00    +0.230 C 
ATOM     10  O   UNL     1      -1.690   1.893  -1.705  0.00  0.00    -0.274 OA
ATOM     11  C   UNL     1       0.290  -0.482  -1.410  0.00  0.00    +0.061 C 
ATOM     12  C   UNL     1       1.597   0.293  -1.697  0.00  0.00    +0.019 C 
ATOM     13  C   UNL     1       2.352  -0.280  -2.840  0.00  0.00    +0.063 C 
ATOM     14  C   UNL     1       1.465  -0.238  -4.057  0.00  0.00    +0.032 A 
ATOM     15  C   UNL     1       0.123  -0.095  -4.140  0.00  0.00    +0.087 A 
ATOM     16  N   UNL     1      -0.400  -0.076  -5.412  0.00  0.00    -0.311 N 
ATOM     17  H   UNL     1      -1.356   0.028  -5.538  0.00  0.00    +0.170 HD
ATOM     18  C   UNL     1       0.407  -0.202  -6.484  0.00  0.00    +0.289 A 
ATOM     19  O   UNL     1       0.112  -0.209  -7.666  0.00  0.00    -0.260 OA
ATOM     20  S   UNL     1       1.974  -0.353  -5.753  0.00  0.00    -0.030 S 
ATOM     21  S   UNL     1      -0.890   0.059  -2.673  0.00  0.00    -0.103 S 
ENDROOT
BRANCH   1  26
ATOM     22  C   UNL     1      -0.487   5.361  -6.896  0.00  0.00    +0.044 C 
ATOM     23  C   UNL     1      -0.256   4.676  -5.575  0.00  0.00    -0.050 A 
ATOM     24  C   UNL     1      -1.235   3.859  -5.040  0.00  0.00    +0.005 A 
ATOM     25  C   UNL     1      -1.025   3.229  -3.829  0.00  0.00    +0.024 A 
ATOM     26  C   UNL     1       0.170   3.416  -3.148  0.00  0.00    +0.044 A 
ATOM     27  C   UNL     1       1.149   4.241  -3.685  0.00  0.00    +0.024 A 
ATOM     28  C   UNL     1       0.936   4.864  -4.899  0.00  0.00    +0.005 A 
ENDBRANCH   1  26
BRANCH  13  29
ATOM     29  C   UNL     1       3.595   0.536  -3.088  0.00  0.00    -0.039 A 
ATOM     30  C   UNL     1       3.489   1.883  -3.380  0.00  0.00    +0.008 A 
ATOM     31  C   UNL     1       4.627   2.634  -3.603  0.00  0.00    +0.045 A 
ATOM     32  C   UNL     1       5.876   2.033  -3.544  0.00  0.00    +0.117 A 
ATOM     33  C   UNL     1       5.979   0.680  -3.257  0.00  0.00    +0.045 A 
ATOM     34  C   UNL     1       4.838  -0.066  -3.029  0.00  0.00    +0.008 A 
BRANCH  32  35
ATOM     35  O   UNL     1       6.997   2.768  -3.769  0.00  0.00    -0.507 OA
ATOM     36  H   UNL     1       7.271   2.794  -4.696  0.00  0.00    +0.292 HD
ENDBRANCH  32  35
ENDBRANCH  13  29
TORSDOF 3
