REMARK  Name = ZINC35702560
REMARK  8 active torsions:
REMARK  status: ('A' for Active; 'I' for Inactive)
REMARK    1  A    between atoms: C_1  and  C_2
REMARK    2  A    between atoms: C_2  and  C_3
REMARK    3  A    between atoms: C_3  and  C_5
REMARK    4  A    between atoms: C_3  and  S_17
REMARK    5  A    between atoms: S_17  and  C_18
REMARK    6  A    between atoms: C_24  and  C_37
REMARK    7  A    between atoms: N_28  and  C_29
REMARK    8  A    between atoms: C_29  and  C_30
REMARK                            x       y       z     vdW  Elec       q    Type
REMARK                         _______ _______ _______ _____ _____    ______ ____
ROOT
ATOM      1  C   UNL     1      -0.182   1.579  -3.045  0.00  0.00    +0.212 A 
ATOM      2  N   UNL     1      -0.760   2.157  -4.090  0.00  0.00    -0.201 NA
ATOM      3  C   UNL     1      -0.631   3.469  -4.262  0.00  0.00    +0.165 A 
ATOM      4  C   UNL     1       0.123   4.197  -3.318  0.00  0.00    +0.138 A 
ATOM      5  C   UNL     1       0.094   5.602  -3.760  0.00  0.00    +0.029 A 
ATOM      6  C   UNL     1       0.642   6.779  -3.256  0.00  0.00    +0.015 A 
ATOM      7  C   UNL     1       0.431   7.970  -3.916  0.00  0.00    -0.050 A 
ATOM      8  C   UNL     1      -0.324   8.001  -5.077  0.00  0.00    +0.005 A 
ATOM      9  C   UNL     1      -0.873   6.843  -5.587  0.00  0.00    +0.027 A 
ATOM     10  C   UNL     1      -0.671   5.631  -4.936  0.00  0.00    +0.053 A 
ATOM     11  N   UNL     1      -1.094   4.341  -5.215  0.00  0.00    -0.319 N 
ATOM     12  C   UNL     1       1.024   9.245  -3.372  0.00  0.00    +0.044 C 
ATOM     13  N   UNL     1       0.675   3.560  -2.295  0.00  0.00    -0.143 NA
ATOM     14  N   UNL     1       0.519   2.288  -2.166  0.00  0.00    -0.122 NA
ENDROOT
BRANCH   1  15
ATOM     15  S   UNL     1      -0.353  -0.159  -2.814  0.00  0.00    -0.072 S 
BRANCH  15  16
ATOM     16  C   UNL     1       0.699  -0.517  -1.381  0.00  0.00    +0.140 C 
BRANCH  16  17
ATOM     17  C   UNL     1       2.143  -0.295  -1.749  0.00  0.00    +0.229 C 
ATOM     18  O   UNL     1       2.478  -0.290  -2.915  0.00  0.00    -0.274 OA
ATOM     19  N   UNL     1       3.063  -0.102  -0.783  0.00  0.00    -0.296 N 
ATOM     20  C   UNL     1       4.481   0.124  -1.110  0.00  0.00    +0.113 C 
ATOM     21  C   UNL     1       4.850   1.534  -0.650  0.00  0.00    +0.054 C 
ATOM     22  C   UNL     1       4.366   1.783   0.754  0.00  0.00    -0.041 A 
ATOM     23  C   UNL     1       4.966   2.812   1.470  0.00  0.00    +0.004 A 
ATOM     24  C   UNL     1       4.563   3.100   2.757  0.00  0.00    +0.000 A 
ATOM     25  C   UNL     1       3.553   2.360   3.343  0.00  0.00    +0.000 A 
ATOM     26  C   UNL     1       2.957   1.335   2.636  0.00  0.00    +0.005 A 
ATOM     27  C   UNL     1       3.366   1.041   1.342  0.00  0.00    -0.027 A 
ATOM     28  C   UNL     1       2.691  -0.102   0.636  0.00  0.00    +0.143 C 
ENDBRANCH  16  17
BRANCH  16  30
ATOM     29  C   UNL     1      -0.930  -2.164  -0.444  0.00  0.00    +0.005 C 
ATOM     30  C   UNL     1       0.500  -1.973  -0.953  0.00  0.00    +0.020 C 
ENDBRANCH  16  30
ENDBRANCH  15  16
ENDBRANCH   1  15
BRANCH  11  31
ATOM     31  C   UNL     1      -1.918   3.962  -6.366  0.00  0.00    +0.162 C 
BRANCH  31  32
ATOM     32  C   UNL     1      -3.375   4.050  -5.991  0.00  0.00    +0.007 A 
ATOM     33  C   UNL     1      -4.045   2.924  -5.552  0.00  0.00    +0.008 A 
ATOM     34  C   UNL     1      -5.381   3.004  -5.208  0.00  0.00    +0.000 A 
ATOM     35  C   UNL     1      -6.049   4.211  -5.303  0.00  0.00    +0.003 A 
ATOM     36  C   UNL     1      -5.381   5.338  -5.741  0.00  0.00    +0.039 A 
ATOM     37  C   UNL     1      -4.041   5.260  -6.081  0.00  0.00    +0.128 A 
ATOM     38  F   UNL     1      -3.386   6.363  -6.505  0.00  0.00    -0.205 F 
ENDBRANCH  31  32
ENDBRANCH  11  31
TORSDOF 6
