REMARK  Name = ZINC09318054
REMARK  1 active torsions:
REMARK  status: ('A' for Active; 'I' for Inactive)
REMARK    1  A    between atoms: C_15  and  C_17
REMARK                            x       y       z     vdW  Elec       q    Type
REMARK                         _______ _______ _______ _____ _____    ______ ____
ROOT
ATOM      1  C   UNL     1      -0.017   1.380   0.010  0.00  0.00    +0.000 A 
ATOM      2  C   UNL     1       1.168   2.095   0.002  0.00  0.00    +0.001 A 
ATOM      3  C   UNL     1       2.379   1.432  -0.020  0.00  0.00    +0.010 A 
ATOM      4  C   UNL     1       2.402   0.041  -0.042  0.00  0.00    -0.001 A 
ATOM      5  C   UNL     1       1.206  -0.675  -0.017  0.00  0.00    -0.038 A 
ATOM      6  C   UNL     1       0.002  -0.004   0.002  0.00  0.00    +0.004 A 
ATOM      7  C   UNL     1       1.250  -2.180   0.008  0.00  0.00    +0.040 C 
ATOM      8  C   UNL     1       2.428  -2.675  -0.828  0.00  0.00    +0.039 C 
ATOM      9  C   UNL     1       3.706  -1.981  -0.419  0.00  0.00    -0.023 C 
ATOM     10  C   UNL     1       3.686  -0.699  -0.066  0.00  0.00    +0.043 C 
ATOM     11  N   UNL     1       4.862  -0.032   0.285  0.00  0.00    -0.269 N 
ATOM     12  C   UNL     1       6.041  -0.672   0.290  0.00  0.00    +0.305 C 
ATOM     13  O   UNL     1       7.048  -0.063   0.597  0.00  0.00    -0.252 OA
ATOM     14  N   UNL     1       6.132  -1.968  -0.035  0.00  0.00    -0.289 N 
ATOM     15  C   UNL     1       4.986  -2.772  -0.423  0.00  0.00    +0.133 C 
ATOM     16  H   UNL     1       4.825   0.907   0.528  0.00  0.00    +0.156 HD
ATOM     17  H   UNL     1       7.005  -2.390  -0.010  0.00  0.00    +0.151 HD
ENDROOT
BRANCH  15  18
ATOM     18  C   UNL     1       5.218  -3.317  -1.809  0.00  0.00    -0.019 A 
ATOM     19  C   UNL     1       5.755  -2.503  -2.789  0.00  0.00    +0.009 A 
ATOM     20  C   UNL     1       5.970  -2.998  -4.062  0.00  0.00    +0.050 A 
ATOM     21  C   UNL     1       5.648  -4.313  -4.358  0.00  0.00    +0.166 A 
ATOM     22  C   UNL     1       5.108  -5.133  -3.370  0.00  0.00    +0.167 A 
ATOM     23  C   UNL     1       4.900  -4.631  -2.096  0.00  0.00    +0.055 A 
ATOM     24  O   UNL     1       4.879  -6.367  -3.905  0.00  0.00    -0.453 OA
ATOM     25  C   UNL     1       4.904  -6.178  -5.333  0.00  0.00    +0.466 C 
ATOM     26  O   UNL     1       5.759  -5.034  -5.511  0.00  0.00    -0.453 OA
ENDBRANCH  15  18
TORSDOF 1
