REMARK  Name = ZINC34774311
REMARK  11 active torsions:
REMARK  status: ('A' for Active; 'I' for Inactive)
REMARK    1  A    between atoms: C_1  and  C_2
REMARK    2  A    between atoms: C_2  and  N_3
REMARK    3  A    between atoms: N_3  and  C_4
REMARK    4  A    between atoms: C_4  and  C_5
REMARK    5  A    between atoms: C_6  and  C_8
REMARK    6  A    between atoms: C_8  and  N_9
REMARK    7  A    between atoms: C_17  and  C_29
REMARK    8  A    between atoms: C_22  and  S_24
REMARK    9  A    between atoms: S_24  and  C_25
REMARK   10  A    between atoms: C_25  and  C_26
REMARK   11  A    between atoms: C_26  and  C_28
REMARK                            x       y       z     vdW  Elec       q    Type
REMARK                         _______ _______ _______ _____ _____    ______ ____
ROOT
ATOM      1  N   UNL     1      -1.014  -1.746  -4.175  0.00  0.00    +0.387 N 
ATOM      2  C   UNL     1      -0.818  -2.852  -5.120  0.00  0.00    -0.059 C 
ATOM      3  C   UNL     1      -1.770  -2.683  -6.308  0.00  0.00    +0.088 C 
ATOM      4  N   UNL     1      -3.143  -2.561  -5.791  0.00  0.00    -0.318 N 
ATOM      5  C   UNL     1      -3.396  -1.584  -4.721  0.00  0.00    +0.088 C 
ATOM      6  C   UNL     1      -2.367  -1.806  -3.607  0.00  0.00    -0.059 C 
ATOM      7  C   UNL     1      -4.165  -3.343  -6.298  0.00  0.00    +0.134 A 
ATOM      8  C   UNL     1      -4.711  -3.067  -7.581  0.00  0.00    +0.055 A 
ATOM      9  C   UNL     1      -4.356  -2.022  -8.537  0.00  0.00    +0.002 A 
ATOM     10  C   UNL     1      -5.025  -1.959  -9.711  0.00  0.00    +0.056 A 
ATOM     11  S   UNL     1      -6.183  -3.310  -9.603  0.00  0.00    -0.076 S 
ATOM     12  C   UNL     1      -5.747  -3.926  -7.998  0.00  0.00    +0.115 A 
ATOM     13  N   UNL     1      -6.171  -4.916  -7.236  0.00  0.00    -0.214 NA
ATOM     14  C   UNL     1      -5.625  -5.126  -6.046  0.00  0.00    +0.191 A 
ATOM     15  N   UNL     1      -4.641  -4.357  -5.595  0.00  0.00    -0.206 NA
ATOM     16  H   UNL     1      -0.891  -0.868  -4.658  0.00  0.00    -0.081 HD
ENDROOT
BRANCH   9  17
ATOM     17  C   UNL     1      -3.282  -1.048  -8.227  0.00  0.00    -0.017 A 
ATOM     18  C   UNL     1      -3.392  -0.217  -7.113  0.00  0.00    +0.008 A 
ATOM     19  C   UNL     1      -2.389   0.687  -6.829  0.00  0.00    +0.001 A 
ATOM     20  C   UNL     1      -1.277   0.770  -7.647  0.00  0.00    +0.000 A 
ATOM     21  C   UNL     1      -1.163  -0.052  -8.754  0.00  0.00    +0.001 A 
ATOM     22  C   UNL     1      -2.156  -0.964  -9.045  0.00  0.00    +0.008 A 
ENDBRANCH   9  17
BRANCH   1  23
ATOM     23  C   UNL     1      -0.026  -1.848  -3.092  0.00  0.00    +0.019 C 
BRANCH  23  25
ATOM     24  N   UNL     1       2.432  -1.718  -2.842  0.00  0.00    -0.304 N 
ATOM     25  C   UNL     1       1.359  -1.663  -3.657  0.00  0.00    +0.199 C 
ATOM     26  O   UNL     1       1.509  -1.466  -4.844  0.00  0.00    -0.278 OA
BRANCH  24  28
ATOM     27  C   UNL     1       2.090  -0.617  -0.685  0.00  0.00    +0.024 C 
ATOM     28  C   UNL     1       2.251  -1.956  -1.408  0.00  0.00    +0.104 C 
ENDBRANCH  24  28
BRANCH  24  29
ATOM     29  C   UNL     1       3.778  -1.538  -3.391  0.00  0.00    +0.104 C 
ATOM     30  C   UNL     1       4.345  -2.897  -3.806  0.00  0.00    +0.024 C 
ENDBRANCH  24  29
ENDBRANCH  23  25
ENDBRANCH   1  23
BRANCH  14  31
ATOM     31  S   UNL     1      -6.211  -6.455  -5.048  0.00  0.00    -0.082 S 
BRANCH  31  32
ATOM     32  C   UNL     1      -7.519  -7.213  -6.050  0.00  0.00    +0.107 C 
BRANCH  32  33
ATOM     33  C   UNL     1      -8.113  -8.379  -5.302  0.00  0.00    -0.069 C 
ATOM     34  C   UNL     1      -9.292  -8.267  -4.743  0.00  0.00    +0.008 C 
ATOM     35  C   UNL     1      -7.349  -9.674  -5.197  0.00  0.00    +0.039 C 
ENDBRANCH  32  33
ENDBRANCH  31  32
ENDBRANCH  14  31
TORSDOF 8
