REMARK  Name = ZINC20080955
REMARK  8 active torsions:
REMARK  status: ('A' for Active; 'I' for Inactive)
REMARK    1  A    between atoms: C_1  and  C_2
REMARK    2  A    between atoms: C_2  and  C_3
REMARK    3  A    between atoms: C_3  and  N_4
REMARK    4  A    between atoms: N_7  and  C_10
REMARK    5  A    between atoms: C_10  and  C_12
REMARK    6  A    between atoms: C_10  and  C_27
REMARK    7  A    between atoms: N_31  and  C_32
REMARK    8  A    between atoms: C_32  and  C_33
REMARK                            x       y       z     vdW  Elec       q    Type
REMARK                         _______ _______ _______ _____ _____    ______ ____
ROOT
ATOM      1  C   UNL     1       1.671   2.149  -2.527  0.00  0.00    +0.162 C 
ENDROOT
BRANCH   1   2
ATOM      2  C   UNL     1       1.384   3.511  -3.104  0.00  0.00    +0.042 A 
ATOM      3  C   UNL     1       0.122   3.830  -3.490  0.00  0.00    +0.021 A 
ATOM      4  C   UNL     1      -0.124   5.160  -4.046  0.00  0.00    +0.003 A 
ATOM      5  C   UNL     1      -1.406   5.544  -4.460  0.00  0.00    +0.059 A 
ATOM      6  C   UNL     1      -1.607   6.804  -4.979  0.00  0.00    +0.167 A 
ATOM      7  C   UNL     1      -0.536   7.699  -5.094  0.00  0.00    +0.168 A 
ATOM      8  C   UNL     1       0.732   7.328  -4.688  0.00  0.00    +0.075 A 
ATOM      9  C   UNL     1       0.952   6.061  -4.162  0.00  0.00    +0.053 A 
ATOM     10  N   UNL     1       2.211   5.675  -3.751  0.00  0.00    -0.322 N 
ATOM     11  H   UNL     1       3.058   6.371  -3.843  0.00  0.00    +0.169 HD
ATOM     12  C   UNL     1       2.425   4.452  -3.235  0.00  0.00    +0.254 A 
ATOM     13  O   UNL     1       3.550   4.147  -2.877  0.00  0.00    -0.268 OA
ATOM     14  O   UNL     1      -1.002   8.864  -5.631  0.00  0.00    -0.453 OA
ATOM     15  C   UNL     1      -2.431   8.823  -5.462  0.00  0.00    +0.466 C 
ATOM     16  O   UNL     1      -2.736   7.416  -5.445  0.00  0.00    -0.453 OA
ENDBRANCH   1   2
BRANCH   1  20
ATOM     17  N   UNL     1       3.889  -0.498  -4.960  0.00  0.00    +0.381 N 
ATOM     18  C   UNL     1       4.232  -0.423  -3.533  0.00  0.00    -0.063 C 
ATOM     19  C   UNL     1       3.055   0.176  -2.759  0.00  0.00    +0.067 C 
ATOM     20  N   UNL     1       2.748   1.509  -3.295  0.00  0.00    -0.292 NA
ATOM     21  C   UNL     1       2.405   1.434  -4.722  0.00  0.00    +0.067 C 
ATOM     22  C   UNL     1       3.581   0.836  -5.496  0.00  0.00    -0.063 C 
ATOM     23  H   UNL     1       2.988  -1.121  -5.061  0.00  0.00    -0.082 HD
BRANCH  17  24
ATOM     24  C   UNL     1       4.966  -1.138  -5.728  0.00  0.00    -0.079 C 
BRANCH  24  26
ATOM     25  C   UNL     1       5.813  -1.643  -8.023  0.00  0.00    +0.002 C 
ATOM     26  C   UNL     1       4.691  -0.976  -7.224  0.00  0.00    -0.022 C 
ENDBRANCH  24  26
ENDBRANCH  17  24
ENDBRANCH   1  20
BRANCH   1  27
ATOM     27  C   UNL     1       2.096   2.292  -1.089  0.00  0.00    +0.173 A 
ATOM     28  N   UNL     1       3.257   2.717  -0.654  0.00  0.00    -0.111 NA
ATOM     29  N   UNL     1       3.232   2.696   0.634  0.00  0.00    -0.023 NA
ATOM     30  N   UNL     1       2.083   2.275   1.032  0.00  0.00    -0.044 NA
ATOM     31  N   UNL     1       1.356   2.010  -0.000  0.00  0.00    -0.223 N 
BRANCH  31  32
ATOM     32  C   UNL     1      -0.018   1.503   0.010  0.00  0.00    +0.182 C 
BRANCH  32  33
ATOM     33  C   UNL     1       0.002  -0.004   0.002  0.00  0.00    -0.026 A 
ATOM     34  C   UNL     1      -0.006  -0.688  -1.199  0.00  0.00    +0.008 A 
ATOM     35  C   UNL     1       0.018  -2.070  -1.208  0.00  0.00    +0.038 A 
ATOM     36  C   UNL     1       0.039  -2.769  -0.013  0.00  0.00    +0.123 A 
ATOM     37  C   UNL     1       0.041  -2.083   1.189  0.00  0.00    +0.038 A 
ATOM     38  C   UNL     1       0.023  -0.701   1.196  0.00  0.00    +0.008 A 
ATOM     39  F   UNL     1       0.057  -4.120  -0.021  0.00  0.00    -0.205 F 
ENDBRANCH  32  33
ENDBRANCH  31  32
ENDBRANCH   1  27
TORSDOF 7
