REMARK  Name = ZINC37906524
REMARK  4 active torsions:
REMARK  status: ('A' for Active; 'I' for Inactive)
REMARK    1  A    between atoms: C_1  and  C_2
REMARK    2  A    between atoms: C_2  and  C_4
REMARK    3  A    between atoms: C_2  and  N_10
REMARK    4  A    between atoms: N_10  and  C_11
REMARK                            x       y       z     vdW  Elec       q    Type
REMARK                         _______ _______ _______ _____ _____    ______ ____
ROOT
ATOM      1  C   UNL     1       2.096  -0.603   1.173  0.00  0.00    +0.041 A 
ATOM      2  C   UNL     1       2.806  -0.353   0.008  0.00  0.00    +0.024 A 
ATOM      3  C   UNL     1       4.187  -0.465  -0.014  0.00  0.00    +0.003 A 
ATOM      4  C   UNL     1       4.885  -0.826   1.120  0.00  0.00    +0.014 A 
ATOM      5  C   UNL     1       4.198  -1.083   2.304  0.00  0.00    +0.057 A 
ATOM      6  C   UNL     1       2.789  -0.966   2.335  0.00  0.00    +0.074 A 
ATOM      7  C   UNL     1       2.097  -1.238   3.598  0.00  0.00    +0.274 A 
ATOM      8  O   UNL     1       0.884  -1.155   3.670  0.00  0.00    -0.266 OA
ATOM      9  N   UNL     1       2.826  -1.583   4.679  0.00  0.00    -0.239 N 
ATOM     10  H   UNL     1       2.371  -1.764   5.516  0.00  0.00    +0.192 HD
ATOM     11  N   UNL     1       4.217  -1.688   4.626  0.00  0.00    -0.128 NA
ATOM     12  C   UNL     1       4.896  -1.471   3.535  0.00  0.00    +0.295 A 
ATOM     13  O   UNL     1       6.248  -1.588   3.541  0.00  0.00    -0.264 OA
ENDROOT
BRANCH   1  14
ATOM     14  N   UNL     1       0.711  -0.489   1.189  0.00  0.00    -0.335 N 
ATOM     15  H   UNL     1       0.212  -0.746   1.980  0.00  0.00    +0.147 HD
BRANCH  14  17
ATOM     16  C   UNL     1      -0.017   1.547   0.046  0.00  0.00    +0.034 C 
ATOM     17  C   UNL     1       0.004   0.018   0.010  0.00  0.00    +0.116 C 
BRANCH  17  18
ATOM     18  C   UNL     1      -1.410  -0.504   0.009  0.00  0.00    +0.056 A 
ATOM     19  C   UNL     1      -2.167  -0.754  -1.084  0.00  0.00    +0.046 A 
ATOM     20  C   UNL     1      -3.410  -1.225  -0.648  0.00  0.00    +0.134 A 
ATOM     21  N   UNL     1      -3.399  -1.256   0.660  0.00  0.00    -0.182 NA
ATOM     22  H   UNL     1      -1.858  -0.734   2.021  0.00  0.00    +0.189 HD
ATOM     23  N   UNL     1      -2.146  -0.810   1.098  0.00  0.00    -0.280 N 
ENDBRANCH  17  18
ENDBRANCH  14  17
ENDBRANCH   1  14
TORSDOF 3
