REMARK  Name = ZINC03366477
REMARK  8 active torsions:
REMARK  status: ('A' for Active; 'I' for Inactive)
REMARK    1  A    between atoms: C_1  and  C_2
REMARK    2  A    between atoms: C_2  and  C_4
REMARK    3  A    between atoms: C_2  and  S_10
REMARK    4  A    between atoms: S_10  and  C_11
REMARK    5  A    between atoms: C_14  and  C_17
REMARK    6  A    between atoms: N_15  and  N_16
REMARK    7  A    between atoms: C_20  and  O_23
REMARK    8  A    between atoms: O_23  and  C_24
REMARK                            x       y       z     vdW  Elec       q    Type
REMARK                         _______ _______ _______ _____ _____    ______ ____
ROOT
ATOM      1  C   UNL     1      -5.041   0.619   0.777  0.00  0.00    +0.209 A 
ATOM      2  N   UNL     1      -5.122  -0.655   0.462  0.00  0.00    -0.121 NA
ATOM      3  N   UNL     1      -6.351  -1.030   0.452  0.00  0.00    -0.127 NA
ATOM      4  C   UNL     1      -7.131  -0.018   0.750  0.00  0.00    +0.182 A 
ATOM      5  N   UNL     1      -6.317   1.070   0.968  0.00  0.00    -0.224 N 
ENDROOT
BRANCH   4   6
ATOM      6  C   UNL     1      -8.607  -0.042   0.836  0.00  0.00    +0.021 A 
ATOM      7  C   UNL     1      -9.282  -1.259   0.938  0.00  0.00    +0.015 A 
ATOM      8  C   UNL     1     -10.658  -1.277   1.023  0.00  0.00    +0.046 A 
ATOM      9  C   UNL     1     -11.373  -0.086   0.996  0.00  0.00    +0.127 A 
ATOM     10  C   UNL     1     -10.705   1.127   0.889  0.00  0.00    +0.046 A 
ATOM     11  C   UNL     1      -9.329   1.153   0.809  0.00  0.00    +0.015 A 
BRANCH   9  12
ATOM     12  O   UNL     1     -12.729  -0.108   1.074  0.00  0.00    -0.434 OA
BRANCH  12  13
ATOM     13  C   UNL     1     -13.352  -1.390   1.182  0.00  0.00    +0.541 C 
ATOM     14  F   UNL     1     -13.027  -2.162   0.062  0.00  0.00    -0.166 F 
ATOM     15  F   UNL     1     -12.898  -2.032   2.339  0.00  0.00    -0.166 F 
ENDBRANCH  12  13
ENDBRANCH   9  12
ENDBRANCH   4   6
BRANCH   5  16
ATOM     16  N   UNL     1      -6.703   2.336   1.304  0.00  0.00    -0.295 N 
ATOM     17  H   UNL     1      -6.950   2.869   0.484  0.00  0.00    +0.163 HD
ATOM     18  H   UNL     1      -7.464   2.318   1.967  0.00  0.00    +0.163 HD
ENDBRANCH   5  16
BRANCH   1  19
ATOM     19  S   UNL     1      -3.564   1.569   0.918  0.00  0.00    -0.072 S 
BRANCH  19  21
ATOM     20  C   UNL     1      -2.514  -0.156  -0.921  0.00  0.00    +0.029 C 
ATOM     21  C   UNL     1      -2.335   0.299   0.529  0.00  0.00    +0.137 C 
BRANCH  21  22
ATOM     22  C   UNL     1      -0.951   0.868   0.710  0.00  0.00    +0.233 C 
ATOM     23  O   UNL     1      -0.784   2.069   0.707  0.00  0.00    -0.274 OA
ATOM     24  N   UNL     1       0.101   0.042   0.875  0.00  0.00    -0.239 N 
ATOM     25  C   UNL     1       1.339   0.550   1.031  0.00  0.00    +0.303 C 
ATOM     26  O   UNL     1       1.507   1.754   1.028  0.00  0.00    -0.253 OA
ATOM     27  N   UNL     1       2.392  -0.277   1.191  0.00  0.00    -0.313 N 
ATOM     28  H   UNL     1      -0.033  -0.919   0.877  0.00  0.00    +0.159 HD
ATOM     29  H   UNL     1       2.258  -1.237   1.193  0.00  0.00    +0.146 HD
ATOM     30  H   UNL     1       3.283   0.089   1.303  0.00  0.00    +0.146 HD
ENDBRANCH  21  22
ENDBRANCH  19  21
ENDBRANCH   1  19
TORSDOF 7
