REMARK  Name = ZINC00601301
REMARK  5 active torsions:
REMARK  status: ('A' for Active; 'I' for Inactive)
REMARK    1  A    between atoms: C_4  and  C_7
REMARK    2  A    between atoms: C_7  and  C_8
REMARK    3  A    between atoms: C_13  and  C_25
REMARK    4  A    between atoms: C_14  and  S_21
REMARK    5  A    between atoms: S_21  and  N_24
REMARK                            x       y       z     vdW  Elec       q    Type
REMARK                         _______ _______ _______ _____ _____    ______ ____
ROOT
ATOM      1  C   UNL     1       4.236  -1.062   1.355  0.00  0.00    +0.164 C 
ATOM      2  N   UNL     1       5.584  -1.614   1.244  0.00  0.00    -0.326 N 
ATOM      3  C   UNL     1       5.857  -2.861   0.689  0.00  0.00    +0.056 A 
ATOM      4  C   UNL     1       7.140  -3.116   0.208  0.00  0.00    +0.039 A 
ATOM      5  C   UNL     1       7.446  -4.348  -0.333  0.00  0.00    +0.083 A 
ATOM      6  C   UNL     1       6.484  -5.339  -0.400  0.00  0.00    +0.119 A 
ATOM      7  C   UNL     1       5.207  -5.091   0.070  0.00  0.00    +0.059 A 
ATOM      8  C   UNL     1       4.895  -3.858   0.604  0.00  0.00    +0.128 A 
ATOM      9  S   UNL     1       3.251  -3.534   1.167  0.00  0.00    +0.062 S 
ATOM     10  O   UNL     1       2.453  -3.312   0.012  0.00  0.00    -0.153 OA
ATOM     11  O   UNL     1       2.941  -4.524   2.137  0.00  0.00    -0.153 OA
ATOM     12  N   UNL     1       3.356  -2.074   1.974  0.00  0.00    -0.170 NA
ATOM     13  H   UNL     1       6.327  -1.085   1.574  0.00  0.00    +0.148 HD
ATOM     14  H   UNL     1       2.873  -1.901   2.797  0.00  0.00    +0.150 HD
ENDROOT
BRANCH   5  15
ATOM     15  C   UNL     1       8.835  -4.614  -0.853  0.00  0.00    +0.419 C 
ATOM     16  F   UNL     1       9.625  -3.473  -0.680  0.00  0.00    -0.166 F 
ATOM     17  F   UNL     1       9.400  -5.683  -0.149  0.00  0.00    -0.166 F 
ATOM     18  F   UNL     1       8.770  -4.934  -2.214  0.00  0.00    -0.166 F 
ENDBRANCH   5  15
BRANCH   6  19
ATOM     19  S   UNL     1       6.884  -6.913  -1.083  0.00  0.00    +0.057 S 
ATOM     20  O   UNL     1       8.092  -7.330  -0.462  0.00  0.00    -0.153 OA
ATOM     21  O   UNL     1       5.695  -7.690  -1.035  0.00  0.00    -0.153 OA
BRANCH  19  22
ATOM     22  N   UNL     1       7.232  -6.678  -2.685  0.00  0.00    -0.203 NA
ATOM     23  H   UNL     1       7.189  -5.786  -3.065  0.00  0.00    +0.144 HD
ATOM     24  H   UNL     1       7.478  -7.431  -3.244  0.00  0.00    +0.144 HD
ENDBRANCH  19  22
ENDBRANCH   6  19
BRANCH   1  25
ATOM     25  C   UNL     1       3.711  -0.707  -0.038  0.00  0.00    +0.075 C 
BRANCH  25  29
ATOM     26  C   UNL     1       6.038   2.482  -1.670  0.00  0.00    +0.000 A 
ATOM     27  C   UNL     1       6.344   1.171  -1.986  0.00  0.00    +0.000 A 
ATOM     28  C   UNL     1       5.591   0.139  -1.458  0.00  0.00    +0.004 A 
ATOM     29  C   UNL     1       4.533   0.418  -0.613  0.00  0.00    -0.044 A 
ATOM     30  C   UNL     1       4.228   1.728  -0.296  0.00  0.00    +0.004 A 
ATOM     31  C   UNL     1       4.980   2.760  -0.826  0.00  0.00    +0.000 A 
ENDBRANCH  25  29
ENDBRANCH   1  25
TORSDOF 5
