REMARK  Name = ZINC07977466
REMARK  5 active torsions:
REMARK  status: ('A' for Active; 'I' for Inactive)
REMARK    1  A    between atoms: C_1  and  C_2
REMARK    2  A    between atoms: C_6  and  C_7
REMARK    3  A    between atoms: N_8  and  N_9
REMARK    4  A    between atoms: C_10  and  C_16
REMARK    5  A    between atoms: N_14  and  C_15
REMARK                            x       y       z     vdW  Elec       q    Type
REMARK                         _______ _______ _______ _____ _____    ______ ____
ROOT
ATOM      1  N   UNL     1       2.353   4.267   0.103  0.00  0.00    -0.208 N 
ATOM      2  C   UNL     1       1.204   3.593  -0.212  0.00  0.00    +0.082 A 
ATOM      3  C   UNL     1       0.038   4.266  -0.302  0.00  0.00    +0.077 A 
ATOM      4  S   UNL     1       0.540   5.940   0.060  0.00  0.00    -0.056 S 
ATOM      5  C   UNL     1       2.281   5.630   0.309  0.00  0.00    +0.189 A 
ATOM      6  N   UNL     1       3.237   6.472   0.612  0.00  0.00    -0.263 NA
ATOM      7  C   UNL     1       2.931   7.894   0.793  0.00  0.00    +0.173 C 
ENDROOT
BRANCH   2   8
ATOM      8  C   UNL     1       1.239   2.133  -0.447  0.00  0.00    +0.003 A 
ATOM      9  C   UNL     1       2.387   1.537  -0.971  0.00  0.00    +0.014 A 
ATOM     10  C   UNL     1       2.421   0.174  -1.190  0.00  0.00    +0.048 A 
ATOM     11  C   UNL     1       1.315  -0.605  -0.891  0.00  0.00    +0.142 A 
ATOM     12  C   UNL     1       0.165  -0.015  -0.367  0.00  0.00    +0.076 A 
ATOM     13  C   UNL     1       0.124   1.349  -0.145  0.00  0.00    +0.037 A 
ATOM     14  N   UNL     1      -0.945  -0.820  -0.072  0.00  0.00    -0.280 N 
ATOM     15  C   UNL     1      -0.781  -2.159   0.004  0.00  0.00    +0.255 C 
ATOM     16  O   UNL     1      -1.732  -2.877   0.229  0.00  0.00    -0.272 OA
ATOM     17  C   UNL     1       0.589  -2.756  -0.193  0.00  0.00    +0.325 C 
ATOM     18  O   UNL     1       1.339  -1.948  -1.103  0.00  0.00    -0.481 OA
ATOM     19  H   UNL     1      -1.817  -0.422   0.076  0.00  0.00    +0.155 HD
ENDBRANCH   2   8
BRANCH   1  21
ATOM     20  C   UNL     1       4.532   4.084   0.938  0.00  0.00    +0.148 C 
ATOM     21  N   UNL     1       3.575   3.590   0.208  0.00  0.00    -0.171 NA
BRANCH  20  27
ATOM     22  C   UNL     1       6.995   5.014   2.545  0.00  0.00    +0.045 C 
ATOM     23  C   UNL     1       6.990   3.804   1.648  0.00  0.00    -0.035 A 
ATOM     24  C   UNL     1       8.118   3.030   1.502  0.00  0.00    +0.011 A 
ATOM     25  C   UNL     1       8.082   1.949   0.679  0.00  0.00    +0.046 A 
ATOM     26  S   UNL     1       6.403   1.988   0.074  0.00  0.00    -0.095 S 
ATOM     27  C   UNL     1       5.849   3.440   0.953  0.00  0.00    +0.035 A 
ENDBRANCH  20  27
ENDBRANCH   1  21
TORSDOF 3
