REMARK  Name = ZINC21430660
REMARK  11 active torsions:
REMARK  status: ('A' for Active; 'I' for Inactive)
REMARK    1  A    between atoms: C_1  and  C_2
REMARK    2  A    between atoms: C_2  and  C_4
REMARK    3  A    between atoms: C_2  and  S_17
REMARK    4  A    between atoms: N_6  and  C_7
REMARK    5  A    between atoms: C_10  and  S_13
REMARK    6  A    between atoms: S_13  and  N_16
REMARK    7  A    between atoms: S_17  and  C_18
REMARK    8  A    between atoms: N_22  and  C_23
REMARK    9  A    between atoms: C_26  and  C_29
REMARK   10  A    between atoms: C_29  and  C_30
REMARK   11  A    between atoms: C_29  and  C_31
REMARK                            x       y       z     vdW  Elec       q    Type
REMARK                         _______ _______ _______ _____ _____    ______ ____
ROOT
ATOM      1  C   UNL     1      -0.030   1.532   0.018  0.00  0.00    +0.029 C 
ATOM      2  C   UNL     1      -0.000   0.002   0.002  0.00  0.00    +0.137 C 
ENDROOT
BRANCH   2   3
ATOM      3  C   UNL     1      -1.411  -0.527   0.013  0.00  0.00    +0.230 C 
ATOM      4  O   UNL     1      -1.935  -0.837   1.062  0.00  0.00    -0.274 OA
ATOM      5  N   UNL     1      -2.090  -0.657  -1.144  0.00  0.00    -0.285 N 
ATOM      6  H   UNL     1      -1.697  -0.348  -1.975  0.00  0.00    +0.155 HD
BRANCH   5   7
ATOM      7  C   UNL     1      -3.363  -1.239  -1.147  0.00  0.00    +0.034 A 
ATOM      8  C   UNL     1      -3.765  -2.028  -2.216  0.00  0.00    +0.025 A 
ATOM      9  C   UNL     1      -5.022  -2.600  -2.216  0.00  0.00    +0.030 A 
ATOM     10  C   UNL     1      -5.880  -2.388  -1.152  0.00  0.00    +0.105 A 
ATOM     11  C   UNL     1      -5.482  -1.602  -0.086  0.00  0.00    +0.030 A 
ATOM     12  C   UNL     1      -4.224  -1.032  -0.077  0.00  0.00    +0.025 A 
BRANCH  10  13
ATOM     13  S   UNL     1      -7.482  -3.120  -1.155  0.00  0.00    +0.056 S 
ATOM     14  O   UNL     1      -8.294  -2.325  -0.301  0.00  0.00    -0.153 OA
ATOM     15  O   UNL     1      -7.816  -3.362  -2.515  0.00  0.00    -0.153 OA
BRANCH  13  16
ATOM     16  N   UNL     1      -7.345  -4.603  -0.431  0.00  0.00    -0.204 NA
ATOM     17  H   UNL     1      -8.097  -4.977   0.055  0.00  0.00    +0.144 HD
ATOM     18  H   UNL     1      -6.513  -5.098  -0.492  0.00  0.00    +0.144 HD
ENDBRANCH  13  16
ENDBRANCH  10  13
ENDBRANCH   5   7
ENDBRANCH   2   3
BRANCH   2  19
ATOM     19  S   UNL     1       0.882  -0.600   1.468  0.00  0.00    -0.075 S 
BRANCH  19  20
ATOM     20  C   UNL     1       2.533  -0.027   1.238  0.00  0.00    +0.174 A 
ATOM     21  N   UNL     1       2.966   0.679   0.219  0.00  0.00    -0.230 NA
ATOM     22  C   UNL     1       4.275   0.935   0.380  0.00  0.00    +0.131 A 
ATOM     23  C   UNL     1       4.679   0.376   1.533  0.00  0.00    +0.113 A 
ATOM     24  N   UNL     1       3.576  -0.236   2.090  0.00  0.00    -0.295 N 
BRANCH  24  25
ATOM     25  C   UNL     1       3.537  -0.941   3.302  0.00  0.00    +0.048 A 
ATOM     26  C   UNL     1       2.553  -0.657   4.239  0.00  0.00    +0.026 A 
ATOM     27  C   UNL     1       2.516  -1.353   5.432  0.00  0.00    +0.006 A 
ATOM     28  C   UNL     1       3.458  -2.331   5.692  0.00  0.00    -0.045 A 
ATOM     29  C   UNL     1       4.439  -2.616   4.760  0.00  0.00    +0.006 A 
ATOM     30  C   UNL     1       4.477  -1.928   3.563  0.00  0.00    +0.026 A 
BRANCH  28  31
ATOM     31  C   UNL     1       3.416  -3.088   6.995  0.00  0.00    +0.013 C 
ATOM     32  C   UNL     1       3.235  -4.581   6.712  0.00  0.00    +0.012 C 
ATOM     33  C   UNL     1       4.726  -2.868   7.755  0.00  0.00    +0.012 C 
ENDBRANCH  28  31
ENDBRANCH  24  25
ENDBRANCH  19  20
ENDBRANCH   2  19
TORSDOF 8
