REMARK  Name = ZINC27529029
REMARK  8 active torsions:
REMARK  status: ('A' for Active; 'I' for Inactive)
REMARK    1  A    between atoms: C_3  and  N_25
REMARK    2  A    between atoms: C_6  and  C_7
REMARK    3  A    between atoms: C_7  and  C_8
REMARK    4  A    between atoms: C_8  and  N_9
REMARK    5  A    between atoms: N_12  and  C_15
REMARK    6  A    between atoms: C_15  and  C_16
REMARK    7  A    between atoms: N_25  and  C_26
REMARK    8  A    between atoms: C_26  and  C_27
REMARK                            x       y       z     vdW  Elec       q    Type
REMARK                         _______ _______ _______ _____ _____    ______ ____
ROOT
ATOM      1  C   UNL     1       9.365  -4.444  -3.939  0.00  0.00    +0.005 A 
ATOM      2  C   UNL     1      10.257  -4.831  -4.920  0.00  0.00    +0.023 A 
ATOM      3  C   UNL     1      11.334  -5.645  -4.596  0.00  0.00    +0.027 A 
ATOM      4  C   UNL     1      11.514  -6.063  -3.283  0.00  0.00    +0.023 A 
ATOM      5  C   UNL     1      10.622  -5.668  -2.306  0.00  0.00    +0.005 A 
ATOM      6  C   UNL     1       9.550  -4.857  -2.633  0.00  0.00    -0.049 A 
ENDROOT
BRANCH   3   7
ATOM      7  N   UNL     1      12.235  -6.043  -5.587  0.00  0.00    -0.343 N 
ATOM      8  H   UNL     1      13.087  -6.688  -5.328  0.00  0.00    +0.146 HD
BRANCH   7   9
ATOM      9  C   UNL     1      12.043  -5.601  -6.970  0.00  0.00    +0.109 C 
BRANCH   9  10
ATOM     10  C   UNL     1      13.159  -6.173  -7.847  0.00  0.00    +0.060 C 
ATOM     11  C   UNL     1      14.517  -5.522  -7.498  0.00  0.00    +0.129 C 
ATOM     12  C   UNL     1      15.116  -5.205  -8.861  0.00  0.00    +0.308 C 
ATOM     13  O   UNL     1      16.291  -5.176  -9.136  0.00  0.00    -0.251 OA
ATOM     14  O   UNL     1      14.092  -4.965  -9.701  0.00  0.00    -0.458 OA
ATOM     15  C   UNL     1      12.949  -5.779  -9.321  0.00  0.00    +0.118 C 
ATOM     16  C   UNL     1      11.658  -4.976  -9.461  0.00  0.00    +0.048 C 
ATOM     17  C   UNL     1      11.456  -4.585 -10.927  0.00  0.00    +0.004 C 
ATOM     18  C   UNL     1      11.379  -5.849 -11.785  0.00  0.00    +0.000 C 
ATOM     19  C   UNL     1      12.682  -6.639 -11.650  0.00  0.00    +0.004 C 
ATOM     20  C   UNL     1      12.887  -7.036 -10.186  0.00  0.00    +0.048 C 
ENDBRANCH   9  10
ENDBRANCH   7   9
ENDBRANCH   3   7
BRANCH   6  21
ATOM     21  C   UNL     1       8.579  -4.428  -1.564  0.00  0.00    +0.016 C 
BRANCH  21  22
ATOM     22  C   UNL     1       9.054  -3.114  -0.940  0.00  0.00    -0.074 C 
BRANCH  22  23
ATOM     23  N   UNL     1       8.107  -2.696   0.102  0.00  0.00    +0.382 N 
ATOM     24  C   UNL     1       8.396  -1.330   0.559  0.00  0.00    -0.063 C 
ATOM     25  C   UNL     1       7.441  -0.962   1.696  0.00  0.00    +0.066 C 
ATOM     26  N   UNL     1       6.054  -1.074   1.223  0.00  0.00    -0.302 NA
ATOM     27  C   UNL     1       5.765  -2.440   0.767  0.00  0.00    +0.066 C 
ATOM     28  C   UNL     1       6.720  -2.808  -0.371  0.00  0.00    -0.063 C 
ATOM     29  H   UNL     1       8.229  -3.374   0.960  0.00  0.00    -0.082 HD
BRANCH  26  30
ATOM     30  C   UNL     1       5.107  -0.655   2.265  0.00  0.00    +0.119 C 
BRANCH  30  31
ATOM     31  C   UNL     1       3.725  -0.548   1.674  0.00  0.00    -0.030 A 
ATOM     32  C   UNL     1       2.885  -1.646   1.677  0.00  0.00    +0.009 A 
ATOM     33  C   UNL     1       1.617  -1.553   1.135  0.00  0.00    +0.050 A 
ATOM     34  C   UNL     1       1.183  -0.356   0.589  0.00  0.00    +0.166 A 
ATOM     35  C   UNL     1       2.028   0.751   0.586  0.00  0.00    +0.167 A 
ATOM     36  C   UNL     1       3.298   0.650   1.131  0.00  0.00    +0.054 A 
ATOM     37  O   UNL     1       1.376   1.797  -0.001  0.00  0.00    -0.453 OA
ATOM     38  C   UNL     1      -0.018   1.436   0.010  0.00  0.00    +0.466 C 
ATOM     39  O   UNL     1       0.002  -0.004   0.002  0.00  0.00    -0.453 OA
ENDBRANCH  30  31
ENDBRANCH  26  30
ENDBRANCH  22  23
ENDBRANCH  21  22
ENDBRANCH   6  21
TORSDOF 8
