REMARK  Name = ZINC38018518
REMARK  6 active torsions:
REMARK  status: ('A' for Active; 'I' for Inactive)
REMARK    1  A    between atoms: C_1  and  C_2
REMARK    2  A    between atoms: C_5  and  O_22
REMARK    3  A    between atoms: C_8  and  C_21
REMARK    4  A    between atoms: C_11  and  N_13
REMARK    5  A    between atoms: N_13  and  C_14
REMARK    6  A    between atoms: C_14  and  C_15
REMARK                            x       y       z     vdW  Elec       q    Type
REMARK                         _______ _______ _______ _____ _____    ______ ____
ROOT
ATOM      1  C   UNL     1      -0.109   1.633   0.268  0.00  0.00    +0.044 C 
ATOM      2  C   UNL     1      -0.044   0.130   0.179  0.00  0.00    -0.047 A 
ATOM      3  C   UNL     1      -0.012  -0.484  -1.058  0.00  0.00    +0.007 A 
ATOM      4  C   UNL     1       0.048  -1.862  -1.144  0.00  0.00    +0.046 A 
ATOM      5  C   UNL     1       0.076  -2.625   0.013  0.00  0.00    +0.119 A 
ATOM      6  C   UNL     1       0.044  -2.007   1.257  0.00  0.00    -0.016 A 
ATOM      7  C   UNL     1      -0.010  -0.628   1.338  0.00  0.00    -0.037 A 
ATOM      8  C   UNL     1      -0.028  -0.201   2.790  0.00  0.00    +0.015 C 
ATOM      9  C   UNL     1      -0.413  -1.470   3.579  0.00  0.00    -0.003 C 
ATOM     10  C   UNL     1       0.065  -2.601   2.649  0.00  0.00    -0.036 C 
ATOM     11  C   UNL     1       1.356   0.292   3.216  0.00  0.00    +0.012 C 
ENDROOT
BRANCH  10  12
ATOM     12  N   UNL     1       1.431  -3.000   3.013  0.00  0.00    +0.387 N 
ATOM     13  H   UNL     1       1.802  -3.613   2.303  0.00  0.00    -0.085 HD
ATOM     14  H   UNL     1       2.013  -2.179   3.086  0.00  0.00    -0.085 HD
BRANCH  12  15
ATOM     15  C   UNL     1       1.409  -3.701   4.303  0.00  0.00    -0.039 C 
BRANCH  15  16
ATOM     16  C   UNL     1       2.788  -4.222   4.616  0.00  0.00    -0.026 A 
ATOM     17  C   UNL     1       3.795  -3.617   5.292  0.00  0.00    +0.010 A 
ATOM     18  C   UNL     1       4.990  -4.292   5.461  0.00  0.00    +0.023 A 
ATOM     19  C   UNL     1       5.117  -5.540   4.945  0.00  0.00    +0.055 A 
ATOM     20  S   UNL     1       3.516  -5.798   4.200  0.00  0.00    -0.088 S 
ATOM     21 BR   UNL     1       6.604  -6.707   5.006  0.00  0.00    -0.043 Br
ENDBRANCH  15  16
ENDBRANCH  12  15
ENDBRANCH  10  12
BRANCH   5  22
ATOM     22  O   UNL     1       0.134  -3.980  -0.069  0.00  0.00    -0.507 OA
ATOM     23  H   UNL     1       1.031  -4.330  -0.167  0.00  0.00    +0.292 HD
ENDBRANCH   5  22
TORSDOF 4
