REMARK  Name = ZINC27671554
REMARK  6 active torsions:
REMARK  status: ('A' for Active; 'I' for Inactive)
REMARK    1  A    between atoms: C_1  and  C_2
REMARK    2  A    between atoms: C_2  and  C_4
REMARK    3  A    between atoms: C_2  and  S_17
REMARK    4  A    between atoms: N_6  and  C_7
REMARK    5  A    between atoms: S_17  and  C_18
REMARK    6  A    between atoms: C_21  and  C_24
REMARK                            x       y       z     vdW  Elec       q    Type
REMARK                         _______ _______ _______ _____ _____    ______ ____
ROOT
ATOM      1  C   UNL     1      -0.838   7.790  -1.569  0.00  0.00    +0.029 C 
ATOM      2  C   UNL     1      -2.132   7.259  -0.950  0.00  0.00    +0.137 C 
ENDROOT
BRANCH   2   3
ATOM      3  C   UNL     1      -2.112   5.752  -0.958  0.00  0.00    +0.227 C 
ATOM      4  O   UNL     1      -2.637   5.143  -1.866  0.00  0.00    -0.275 OA
ATOM      5  N   UNL     1      -1.510   5.081   0.044  0.00  0.00    -0.309 N 
ATOM      6  H   UNL     1      -1.033   5.633   0.867  0.00  0.00    +0.149 HD
BRANCH   5   7
ATOM      7  C   UNL     1      -1.490   3.616   0.036  0.00  0.00    +0.035 C 
ATOM      8  C   UNL     1      -0.773   3.123  -1.223  0.00  0.00    +0.029 C 
ATOM      9  C   UNL     1      -0.753   1.593  -1.232  0.00  0.00    -0.008 C 
ATOM     10  C   UNL     1      -0.013   1.086   0.008  0.00  0.00    +0.007 C 
ATOM     11  C   UNL     1      -0.729   1.579   1.267  0.00  0.00    -0.008 C 
ATOM     12  C   UNL     1      -0.750   3.109   1.275  0.00  0.00    +0.029 C 
ATOM     13  C   UNL     1      -2.164   1.050   1.278  0.00  0.00    +0.007 C 
ATOM     14  C   UNL     1      -2.904   1.556   0.038  0.00  0.00    -0.008 C 
ATOM     15  C   UNL     1      -2.188   1.063  -1.221  0.00  0.00    +0.007 C 
ATOM     16  C   UNL     1      -2.925   3.086   0.047  0.00  0.00    +0.029 C 
ENDBRANCH   5   7
ENDBRANCH   2   3
BRANCH   2  17
ATOM     17  S   UNL     1      -3.547   7.848  -1.912  0.00  0.00    -0.074 S 
BRANCH  17  18
ATOM     18  C   UNL     1      -3.419   9.580  -1.615  0.00  0.00    +0.185 A 
ATOM     19  N   UNL     1      -4.247  10.550  -2.104  0.00  0.00    -0.201 NA
ATOM     20  H   UNL     1      -1.669   9.755  -0.311  0.00  0.00    +0.191 HD
ATOM     21  C   UNL     1      -3.761  11.738  -1.610  0.00  0.00    +0.182 A 
ATOM     22  N   UNL     1      -2.705  11.450  -0.885  0.00  0.00    -0.152 NA
ATOM     23  N   UNL     1      -2.509  10.180  -0.880  0.00  0.00    -0.253 N 
BRANCH  21  24
ATOM     24  C   UNL     1      -4.322  13.085  -1.849  0.00  0.00    +0.021 A 
ATOM     25  C   UNL     1      -5.447  13.241  -2.660  0.00  0.00    +0.013 A 
ATOM     26  C   UNL     1      -5.968  14.500  -2.877  0.00  0.00    +0.021 A 
ATOM     27  C   UNL     1      -5.372  15.608  -2.299  0.00  0.00    +0.041 A 
ATOM     28  C   UNL     1      -4.253  15.460  -1.497  0.00  0.00    +0.021 A 
ATOM     29  C   UNL     1      -3.725  14.206  -1.270  0.00  0.00    +0.013 A 
ATOM     30 CL   UNL     1      -6.030  17.189  -2.580  0.00  0.00    -0.084 Cl
ENDBRANCH  21  24
ENDBRANCH  17  18
ENDBRANCH   2  17
TORSDOF 5
