REMARK  Name = ZINC13639961
REMARK  8 active torsions:
REMARK  status: ('A' for Active; 'I' for Inactive)
REMARK    1  A    between atoms: C_1  and  C_2
REMARK    2  A    between atoms: C_2  and  C_3
REMARK    3  A    between atoms: C_2  and  N_4
REMARK    4  A    between atoms: N_4  and  S_5
REMARK    5  A    between atoms: S_5  and  C_8
REMARK    6  A    between atoms: C_21  and  C_24
REMARK    7  A    between atoms: C_27  and  O_31
REMARK    8  A    between atoms: C_29  and  O_30
REMARK                            x       y       z     vdW  Elec       q    Type
REMARK                         _______ _______ _______ _____ _____    ______ ____
ROOT
ATOM      1  C   UNL     1      -3.868   5.297   2.048  0.00  0.00    +0.106 A 
ATOM      2  C   UNL     1      -3.304   5.638   3.264  0.00  0.00    +0.030 A 
ATOM      3  C   UNL     1      -1.996   5.287   3.534  0.00  0.00    +0.025 A 
ATOM      4  C   UNL     1      -1.253   4.594   2.586  0.00  0.00    +0.031 A 
ATOM      5  C   UNL     1      -1.814   4.251   1.365  0.00  0.00    -0.018 A 
ATOM      6  C   UNL     1      -3.130   4.611   1.106  0.00  0.00    +0.034 A 
ATOM      7  C   UNL     1      -1.052   3.508   0.315  0.00  0.00    +0.049 C 
ATOM      8  C   UNL     1      -1.491   2.064   0.249  0.00  0.00    -0.023 C 
ATOM      9  C   UNL     1      -0.463   1.289   0.004  0.00  0.00    -0.030 C 
ATOM     10  C   UNL     1       0.801   2.114  -0.144  0.00  0.00    +0.033 C 
ATOM     11  C   UNL     1       0.459   3.435   0.606  0.00  0.00    +0.029 C 
ATOM     12  C   UNL     1       0.691   3.184   2.099  0.00  0.00    +0.108 C 
ATOM     13  N   UNL     1       0.070   4.242   2.875  0.00  0.00    -0.336 N 
ATOM     14  H   UNL     1       0.564   4.698   3.574  0.00  0.00    +0.147 HD
ENDROOT
BRANCH  12  15
ATOM     15  C   UNL     1       0.066   1.870   2.493  0.00  0.00    +0.015 A 
ATOM     16  C   UNL     1      -1.251   1.829   2.908  0.00  0.00    +0.012 A 
ATOM     17  C   UNL     1      -1.827   0.626   3.270  0.00  0.00    +0.046 A 
ATOM     18  C   UNL     1      -1.083  -0.544   3.216  0.00  0.00    +0.120 A 
ATOM     19  C   UNL     1       0.238  -0.506   2.799  0.00  0.00    +0.091 A 
ATOM     20  C   UNL     1       0.812   0.702   2.432  0.00  0.00    +0.125 A 
BRANCH  20  21
ATOM     21  O   UNL     1       2.106   0.742   2.018  0.00  0.00    -0.506 OA
ATOM     22  H   UNL     1       2.744   0.878   2.732  0.00  0.00    +0.292 HD
ENDBRANCH  20  21
BRANCH  18  23
ATOM     23  O   UNL     1      -1.650  -1.727   3.572  0.00  0.00    -0.507 OA
ATOM     24  H   UNL     1      -2.074  -2.196   2.840  0.00  0.00    +0.292 HD
ENDBRANCH  18  23
ENDBRANCH  12  15
BRANCH   1  25
ATOM     25  S   UNL     1      -5.537   5.743   1.700  0.00  0.00    +0.059 S 
ATOM     26  O   UNL     1      -6.002   4.834   0.712  0.00  0.00    -0.153 OA
ATOM     27  O   UNL     1      -6.185   5.902   2.955  0.00  0.00    -0.153 OA
BRANCH  25  28
ATOM     28  N   UNL     1      -5.506   7.239   0.991  0.00  0.00    -0.187 NA
ATOM     29  H   UNL     1      -5.907   7.998   1.442  0.00  0.00    +0.148 HD
BRANCH  28  31
ATOM     30  C   UNL     1      -5.645   8.466  -1.120  0.00  0.00    +0.025 C 
ATOM     31  C   UNL     1      -4.874   7.416  -0.319  0.00  0.00    +0.070 C 
ATOM     32  C   UNL     1      -3.428   7.879  -0.129  0.00  0.00    +0.025 C 
ENDBRANCH  28  31
ENDBRANCH  25  28
ENDBRANCH   1  25
TORSDOF 6
