REMARK  Name = ZINC03909014
REMARK  5 active torsions:
REMARK  status: ('A' for Active; 'I' for Inactive)
REMARK    1  A    between atoms: C_1  and  C_2
REMARK    2  A    between atoms: C_6  and  C_7
REMARK    3  A    between atoms: C_7  and  N_9
REMARK    4  A    between atoms: N_9  and  N_10
REMARK    5  A    between atoms: N_10  and  C_11
REMARK                            x       y       z     vdW  Elec       q    Type
REMARK                         _______ _______ _______ _____ _____    ______ ____
ROOT
ATOM      1  N   UNL     1      -1.070  -4.942   0.093  0.00  0.00    -0.266 N 
ATOM      2  H   UNL     1      -1.918  -4.470   0.100  0.00  0.00    +0.170 HD
ENDROOT
BRANCH   1   3
ATOM      3  C   UNL     1       0.123  -4.230  -0.024  0.00  0.00    +0.055 C 
ATOM      4  C   UNL     1       1.282  -4.884  -0.145  0.00  0.00    +0.035 C 
BRANCH   3  10
ATOM      5  C   UNL     1       0.021   1.502   0.094  0.00  0.00    +0.086 C 
ATOM      6  C   UNL     1       0.055  -0.003   0.048  0.00  0.00    +0.110 A 
ATOM      7  C   UNL     1       0.622  -0.617  -1.009  0.00  0.00    +0.093 A 
ATOM      8  C   UNL     1       0.663  -2.025  -1.067  0.00  0.00    +0.198 A 
ATOM      9  O   UNL     1       1.229  -2.657  -2.120  0.00  0.00    -0.287 OA
ATOM     10  C   UNL     1       0.107  -2.753  -0.012  0.00  0.00    +0.128 A 
ATOM     11  C   UNL     1      -0.472  -2.046   1.066  0.00  0.00    +0.350 A 
ATOM     12  O   UNL     1      -0.965  -2.654   2.000  0.00  0.00    -0.244 OA
ATOM     13  O   UNL     1      -0.474  -0.702   1.062  0.00  0.00    -0.427 OA
ENDBRANCH   3  10
ENDBRANCH   1   3
BRANCH   1  14
ATOM     14  N   UNL     1      -1.045  -6.339   0.201  0.00  0.00    -0.264 N 
ATOM     15  H   UNL     1      -0.198  -6.811   0.194  0.00  0.00    +0.170 HD
BRANCH  14  16
ATOM     16  C   UNL     1      -2.243  -7.053   0.318  0.00  0.00    +0.080 A 
ATOM     17  C   UNL     1      -3.457  -6.380   0.321  0.00  0.00    +0.030 A 
ATOM     18  C   UNL     1      -4.638  -7.087   0.437  0.00  0.00    +0.040 A 
ATOM     19  C   UNL     1      -4.613  -8.467   0.549  0.00  0.00    +0.126 A 
ATOM     20  C   UNL     1      -3.405  -9.142   0.546  0.00  0.00    +0.078 A 
ATOM     21  C   UNL     1      -2.220  -8.440   0.424  0.00  0.00    +0.148 A 
ATOM     22  F   UNL     1      -1.040  -9.099   0.415  0.00  0.00    -0.203 F 
ATOM     23  F   UNL     1      -5.770  -9.155   0.663  0.00  0.00    -0.205 F 
ENDBRANCH  14  16
ENDBRANCH   1  14
TORSDOF 4
