REMARK  Name = ZINC42016732
REMARK  5 active torsions:
REMARK  status: ('A' for Active; 'I' for Inactive)
REMARK    1  A    between atoms: C_1  and  C_2
REMARK    2  A    between atoms: C_3  and  C_9
REMARK    3  A    between atoms: C_7  and  N_8
REMARK    4  A    between atoms: N_13  and  C_14
REMARK    5  A    between atoms: C_14  and  C_15
REMARK                            x       y       z     vdW  Elec       q    Type
REMARK                         _______ _______ _______ _____ _____    ______ ____
ROOT
ATOM      1  C   UNL     1      -0.008   0.046  -2.488  0.00  0.00    +0.183 A 
ATOM      2  N   UNL     1      -0.111   1.350  -2.635  0.00  0.00    -0.108 NA
ATOM      3  N   UNL     1      -0.091   1.665  -3.880  0.00  0.00    -0.023 NA
ATOM      4  N   UNL     1       0.024   0.608  -4.609  0.00  0.00    -0.043 NA
ATOM      5  N   UNL     1       0.088  -0.488  -3.731  0.00  0.00    -0.221 N 
ENDROOT
BRANCH   1   8
ATOM      6  C   UNL     1       0.009   1.502   0.011  0.00  0.00    +0.046 C 
ATOM      7  C   UNL     1       0.014  -0.005   0.002  0.00  0.00    -0.019 A 
ATOM      8  C   UNL     1       0.006  -0.697  -1.207  0.00  0.00    +0.025 A 
ATOM      9  C   UNL     1       0.011  -2.092  -1.208  0.00  0.00    +0.012 A 
ATOM     10  C   UNL     1       0.023  -2.783  -0.013  0.00  0.00    +0.002 A 
ATOM     11  C   UNL     1       0.031  -2.097   1.187  0.00  0.00    +0.023 A 
ATOM     12  C   UNL     1       0.033  -0.707   1.198  0.00  0.00    +0.028 A 
BRANCH  12  13
ATOM     13  N   UNL     1       0.047  -0.018   2.413  0.00  0.00    -0.358 N 
ATOM     14  H   UNL     1       0.044   0.952   2.420  0.00  0.00    +0.142 HD
ATOM     15  H   UNL     1       0.060  -0.509   3.249  0.00  0.00    +0.142 HD
ENDBRANCH  12  13
ENDBRANCH   1   8
BRANCH   5  16
ATOM     16  C   UNL     1       0.226  -1.903  -4.083  0.00  0.00    +0.182 C 
BRANCH  16  17
ATOM     17  C   UNL     1       0.420  -2.034  -5.572  0.00  0.00    -0.026 A 
ATOM     18  C   UNL     1      -0.677  -2.065  -6.411  0.00  0.00    +0.008 A 
ATOM     19  C   UNL     1      -0.500  -2.184  -7.777  0.00  0.00    +0.038 A 
ATOM     20  C   UNL     1       0.777  -2.272  -8.303  0.00  0.00    +0.123 A 
ATOM     21  C   UNL     1       1.876  -2.242  -7.461  0.00  0.00    +0.038 A 
ATOM     22  C   UNL     1       1.696  -2.117  -6.097  0.00  0.00    +0.008 A 
ATOM     23  F   UNL     1       0.951  -2.390  -9.638  0.00  0.00    -0.205 F 
ENDBRANCH  16  17
ENDBRANCH   5  16
TORSDOF 4
