REMARK  Name = ZINC20764484
REMARK  8 active torsions:
REMARK  status: ('A' for Active; 'I' for Inactive)
REMARK    1  A    between atoms: C_1  and  C_2
REMARK    2  A    between atoms: C_2  and  O_3
REMARK    3  A    between atoms: O_3  and  C_4
REMARK    4  A    between atoms: C_7  and  C_10
REMARK    5  A    between atoms: C_12  and  C_26
REMARK    6  A    between atoms: C_15  and  C_18
REMARK    7  A    between atoms: C_23  and  O_24
REMARK    8  A    between atoms: C_29  and  C_32
REMARK                            x       y       z     vdW  Elec       q    Type
REMARK                         _______ _______ _______ _____ _____    ______ ____
ROOT
ATOM      1  C   UNL     1      -0.018   1.470   0.010  0.00  0.00    +0.040 C 
ATOM      2  N   UNL     1      -1.152   2.065   0.019  0.00  0.00    -0.299 NA
ATOM      3  C   UNL     1      -1.316   3.513   0.044  0.00  0.00    +0.081 C 
ATOM      4  N   UNL     1      -0.077   4.181  -0.373  0.00  0.00    +0.401 N 
ATOM      5  C   UNL     1       1.065   3.665   0.402  0.00  0.00    -0.028 C 
ATOM      6  C   UNL     1       1.294   2.204   0.002  0.00  0.00    +0.044 C 
ATOM      7  H   UNL     1       0.099   3.992  -1.442  0.00  0.00    -0.081 HD
ATOM      8  H   UNL     1      -0.168   5.263  -0.203  0.00  0.00    -0.081 HD
ENDROOT
BRANCH   5   9
ATOM      9  C   UNL     1       2.297   4.476   0.094  0.00  0.00    -0.018 A 
ATOM     10  C   UNL     1       2.350   5.244  -1.054  0.00  0.00    +0.020 A 
ATOM     11  C   UNL     1       3.479   5.992  -1.335  0.00  0.00    +0.018 A 
ATOM     12  C   UNL     1       4.561   5.966  -0.473  0.00  0.00    +0.019 A 
ATOM     13  C   UNL     1       4.513   5.196   0.673  0.00  0.00    +0.047 A 
ATOM     14  C   UNL     1       3.380   4.449   0.959  0.00  0.00    +0.119 A 
ATOM     15 BR   UNL     1       3.546   7.046  -2.904  0.00  0.00    -0.050 Br
BRANCH  14  16
ATOM     16  O   UNL     1       3.332   3.690   2.086  0.00  0.00    -0.507 OA
ATOM     17  H   UNL     1       4.192   3.669   2.772  0.00  0.00    +0.292 HD
ENDBRANCH  14  16
ENDBRANCH   5   9
BRANCH   1  21
ATOM     18  C   UNL     1       0.040  -2.775  -0.014  0.00  0.00    +0.121 A 
ATOM     19  C   UNL     1      -1.174  -2.098   0.002  0.00  0.00    +0.046 A 
ATOM     20  C   UNL     1      -1.197  -0.721   0.010  0.00  0.00    +0.013 A 
ATOM     21  C   UNL     1       0.002  -0.004   0.002  0.00  0.00    -0.004 A 
ATOM     22  C   UNL     1       1.220  -0.688  -0.019  0.00  0.00    +0.013 A 
ATOM     23  C   UNL     1       1.235  -2.066  -0.022  0.00  0.00    +0.046 A 
BRANCH  18  24
ATOM     24  O   UNL     1       0.058  -4.132  -0.021  0.00  0.00    -0.492 OA
BRANCH  24  26
ATOM     25  C   UNL     1       1.160  -6.283  -0.043  0.00  0.00    +0.048 C 
ATOM     26  C   UNL     1       1.340  -4.763  -0.037  0.00  0.00    +0.225 C 
ENDBRANCH  24  26
ENDBRANCH  18  24
ENDBRANCH   1  21
BRANCH   3  27
ATOM     27  C   UNL     1      -2.429   3.900  -0.896  0.00  0.00    -0.040 A 
ATOM     28  C   UNL     1      -2.416   5.138  -1.510  0.00  0.00    +0.004 A 
ATOM     29  C   UNL     1      -3.434   5.491  -2.376  0.00  0.00    +0.012 A 
ATOM     30  C   UNL     1      -4.471   4.609  -2.620  0.00  0.00    +0.055 A 
ATOM     31  C   UNL     1      -4.486   3.373  -2.002  0.00  0.00    +0.012 A 
ATOM     32  C   UNL     1      -3.465   3.018  -1.140  0.00  0.00    +0.004 A 
BRANCH  30  33
ATOM     33  C   UNL     1      -5.583   4.996  -3.559  0.00  0.00    +0.417 C 
ATOM     34  F   UNL     1      -6.603   5.628  -2.840  0.00  0.00    -0.166 F 
ATOM     35  F   UNL     1      -5.088   5.870  -4.534  0.00  0.00    -0.166 F 
ATOM     36  F   UNL     1      -6.092   3.848  -4.177  0.00  0.00    -0.166 F 
ENDBRANCH  30  33
ENDBRANCH   3  27
TORSDOF 7
