REMARK  Name = ZINC16216508
REMARK  7 active torsions:
REMARK  status: ('A' for Active; 'I' for Inactive)
REMARK    1  A    between atoms: C_1  and  O_2
REMARK    2  A    between atoms: O_2  and  C_3
REMARK    3  A    between atoms: C_6  and  C_9
REMARK    4  A    between atoms: N_15  and  C_22
REMARK    5  A    between atoms: C_17  and  C_18
REMARK    6  A    between atoms: C_29  and  N_33
REMARK    7  A    between atoms: C_30  and  C_31
REMARK                            x       y       z     vdW  Elec       q    Type
REMARK                         _______ _______ _______ _____ _____    ______ ____
ROOT
ATOM      1  C   UNL     1       1.147   3.593   0.011  0.00  0.00    +0.079 C 
ATOM      2  C   UNL     1       1.847   4.093   1.278  0.00  0.00    +0.118 C 
ATOM      3  C   UNL     1       2.331   5.540   1.092  0.00  0.00    +0.294 C 
ATOM      4  N   UNL     1       1.136   6.319   1.414  0.00  0.00    -0.185 N 
ATOM      5  N   UNL     1       0.414   5.536   2.332  0.00  0.00    -0.176 NA
ATOM      6  C   UNL     1       0.736   4.279   2.315  0.00  0.00    +0.148 C 
ATOM      7  O   UNL     1       2.952   5.811  -0.124  0.00  0.00    -0.455 OA
ATOM      8  C   UNL     1       2.633   5.153  -1.248  0.00  0.00    +0.194 C 
ATOM      9  C   UNL     1       1.806   4.095  -1.234  0.00  0.00    +0.094 C 
ENDROOT
BRANCH   1  13
ATOM     10  C   UNL     1       1.213  -0.680  -0.013  0.00  0.00    +0.120 A 
ATOM     11  C   UNL     1       0.002  -0.004   0.002  0.00  0.00    +0.046 A 
ATOM     12  C   UNL     1      -0.017   1.377   0.010  0.00  0.00    +0.008 A 
ATOM     13  C   UNL     1       1.171   2.086   0.002  0.00  0.00    -0.038 A 
ATOM     14  C   UNL     1       2.379   1.415  -0.013  0.00  0.00    +0.008 A 
ATOM     15  C   UNL     1       2.403   0.033  -0.021  0.00  0.00    +0.046 A 
BRANCH  10  17
ATOM     16  C   UNL     1       2.518  -2.668  -0.036  0.00  0.00    +0.277 C 
ATOM     17  O   UNL     1       1.234  -2.039  -0.020  0.00  0.00    -0.495 OA
ENDBRANCH  10  17
ENDBRANCH   1  13
BRANCH   4  18
ATOM     18  C   UNL     1       0.785   7.575   0.915  0.00  0.00    +0.055 A 
ATOM     19  C   UNL     1       1.619   8.223   0.011  0.00  0.00    +0.025 A 
ATOM     20  C   UNL     1       1.267   9.463  -0.483  0.00  0.00    +0.002 A 
ATOM     21  C   UNL     1       0.092  10.065  -0.072  0.00  0.00    +0.000 A 
ATOM     22  C   UNL     1      -0.738   9.426   0.831  0.00  0.00    +0.002 A 
ATOM     23  C   UNL     1      -0.395   8.183   1.326  0.00  0.00    +0.025 A 
ENDBRANCH   4  18
BRANCH   6  24
ATOM     24  C   UNL     1       0.135   3.185   3.159  0.00  0.00    +0.432 C 
ATOM     25  F   UNL     1      -0.851   3.726   3.991  0.00  0.00    -0.165 F 
ATOM     26  F   UNL     1      -0.436   2.216   2.328  0.00  0.00    -0.165 F 
ATOM     27  F   UNL     1       1.134   2.598   3.942  0.00  0.00    -0.165 F 
ENDBRANCH   6  24
BRANCH   8  28
ATOM     28  N   UNL     1       3.151   5.584  -2.444  0.00  0.00    -0.329 N 
ATOM     29  H   UNL     1       3.739   6.356  -2.468  0.00  0.00    +0.145 HD
ATOM     30  H   UNL     1       2.929   5.118  -3.265  0.00  0.00    +0.145 HD
ENDBRANCH   8  28
BRANCH   9  31
ATOM     31  C   UNL     1       1.578   3.398  -2.464  0.00  0.00    +0.100 C 
ATOM     32  N   UNL     1       1.396   2.845  -3.440  0.00  0.00    -0.191 NA
ENDBRANCH   9  31
TORSDOF 6
