REMARK  Name = ZINC38690832
REMARK  11 active torsions:
REMARK  status: ('A' for Active; 'I' for Inactive)
REMARK    1  A    between atoms: C_1  and  C_2
REMARK    2  A    between atoms: C_2  and  C_3
REMARK    3  A    between atoms: C_2  and  C_4
REMARK    4  A    between atoms: C_7  and  N_10
REMARK    5  A    between atoms: C_14  and  C_15
REMARK    6  A    between atoms: C_17  and  C_25
REMARK    7  A    between atoms: C_25  and  C_26
REMARK    8  A    between atoms: C_26  and  N_27
REMARK    9  A    between atoms: C_28  and  C_30
REMARK   10  A    between atoms: C_30  and  C_31
REMARK   11  A    between atoms: C_31  and  C_32
REMARK                            x       y       z     vdW  Elec       q    Type
REMARK                         _______ _______ _______ _____ _____    ______ ____
ROOT
ATOM      1  C   UNL     1      -6.916  -4.595  -3.089  0.00  0.00    +0.130 C 
ATOM      2  C   UNL     1      -7.059  -6.078  -3.350  0.00  0.00    -0.033 C 
ATOM      3  C   UNL     1      -5.825  -6.607  -3.189  0.00  0.00    -0.000 A 
ATOM      4  C   UNL     1      -5.308  -7.976  -3.302  0.00  0.00    +0.010 A 
ATOM      5  C   UNL     1      -3.993  -8.202  -3.077  0.00  0.00    +0.001 A 
ATOM      6  C   UNL     1      -3.114  -7.163  -2.741  0.00  0.00    +0.002 A 
ATOM      7  C   UNL     1      -3.515  -5.880  -2.619  0.00  0.00    +0.026 A 
ATOM      8  C   UNL     1      -4.876  -5.528  -2.833  0.00  0.00    +0.043 A 
ATOM      9  N   UNL     1      -5.500  -4.375  -2.776  0.00  0.00    -0.374 N 
ATOM     10  H   UNL     1      -5.094  -3.520  -2.562  0.00  0.00    +0.161 HD
ENDROOT
BRANCH   1  15
ATOM     11  N   UNL     1     -10.365  -2.182  -3.573  0.00  0.00    -0.188 N 
ATOM     12  C   UNL     1      -9.303  -3.010  -3.473  0.00  0.00    +0.263 C 
ATOM     13  O   UNL     1      -8.751  -3.448  -4.464  0.00  0.00    -0.269 OA
ATOM     14  C   UNL     1      -8.833  -3.366  -2.112  0.00  0.00    +0.100 C 
ATOM     15  C   UNL     1      -7.776  -4.188  -1.921  0.00  0.00    +0.020 C 
ATOM     16  C   UNL     1      -9.574  -2.779  -0.975  0.00  0.00    +0.276 C 
ATOM     17  O   UNL     1      -9.215  -3.049   0.297  0.00  0.00    -0.268 OA
ATOM     18  N   UNL     1     -10.595  -1.985  -1.234  0.00  0.00    -0.123 NA
ATOM     19  C   UNL     1     -10.970  -1.696  -2.480  0.00  0.00    +0.340 C 
ATOM     20  O   UNL     1     -11.920  -0.950  -2.634  0.00  0.00    -0.250 OA
BRANCH  11  24
ATOM     21  C   UNL     1     -11.777  -1.109  -7.345  0.00  0.00    -0.045 A 
ATOM     22  C   UNL     1     -10.835  -0.320  -6.710  0.00  0.00    +0.006 A 
ATOM     23  C   UNL     1     -10.365  -0.673  -5.460  0.00  0.00    +0.024 A 
ATOM     24  C   UNL     1     -10.840  -1.821  -4.841  0.00  0.00    +0.046 A 
ATOM     25  C   UNL     1     -11.787  -2.611  -5.480  0.00  0.00    +0.024 A 
ATOM     26  C   UNL     1     -12.256  -2.250  -6.728  0.00  0.00    +0.006 A 
BRANCH  21  28
ATOM     27  C   UNL     1     -12.943   0.660  -8.634  0.00  0.00    +0.012 C 
ATOM     28  C   UNL     1     -12.288  -0.721  -8.709  0.00  0.00    +0.013 C 
ATOM     29  C   UNL     1     -11.121  -0.679  -9.697  0.00  0.00    +0.012 C 
ENDBRANCH  21  28
ENDBRANCH  11  24
ENDBRANCH   1  15
BRANCH   2  30
ATOM     30  C   UNL     1      -8.321  -6.816  -3.715  0.00  0.00    +0.052 C 
BRANCH  30  31
ATOM     31  C   UNL     1      -8.010  -8.304  -3.887  0.00  0.00    +0.108 C 
BRANCH  31  32
ATOM     32  N   UNL     1      -9.236  -9.022  -4.242  0.00  0.00    -0.315 N 
ATOM     33  C   UNL     1      -9.203 -10.354  -4.445  0.00  0.00    +0.214 C 
ATOM     34  O   UNL     1      -8.158 -10.959  -4.333  0.00  0.00    -0.276 OA
ATOM     35  H   UNL     1     -10.073  -8.539  -4.332  0.00  0.00    +0.149 HD
BRANCH  33  36
ATOM     36  C   UNL     1     -10.465 -11.092  -4.810  0.00  0.00    +0.107 C 
BRANCH  36  37
ATOM     37  C   UNL     1     -10.154 -12.581  -4.982  0.00  0.00    +0.134 C 
BRANCH  37  38
ATOM     38  C   UNL     1     -11.416 -13.319  -5.347  0.00  0.00    +0.356 C 
ATOM     39  O   UNL     1     -12.467 -12.711  -5.459  0.00  0.00    -0.246 OA
ATOM     40  O   UNL     1     -11.386 -14.524  -5.530  0.00  0.00    -0.246 OA
ENDBRANCH  37  38
ENDBRANCH  36  37
ENDBRANCH  33  36
ENDBRANCH  31  32
ENDBRANCH  30  31
ENDBRANCH   2  30
TORSDOF 9
