REMARK  Name = ZINC44714152
REMARK  9 active torsions:
REMARK  status: ('A' for Active; 'I' for Inactive)
REMARK    1  A    between atoms: C_1  and  C_2
REMARK    2  A    between atoms: C_3  and  C_9
REMARK    3  A    between atoms: C_4  and  C_8
REMARK    4  A    between atoms: C_9  and  C_11
REMARK    5  A    between atoms: C_9  and  N_12
REMARK    6  A    between atoms: C_13  and  C_15
REMARK    7  A    between atoms: C_26  and  C_28
REMARK    8  A    between atoms: C_31  and  O_34
REMARK    9  A    between atoms: O_34  and  C_35
REMARK                            x       y       z     vdW  Elec       q    Type
REMARK                         _______ _______ _______ _____ _____    ______ ____
ROOT
ATOM      1  C   UNL     1       2.940  -2.291  -5.375  0.00  0.00    +0.100 C 
ATOM      2  C   UNL     1       2.028  -3.453  -5.831  0.00  0.00    +0.121 C 
ATOM      3  N   UNL     1       1.514  -3.028  -7.155  0.00  0.00    -0.296 N 
ATOM      4  C   UNL     1       2.673  -2.375  -7.808  0.00  0.00    +0.115 C 
ATOM      5  C   UNL     1       3.364  -1.588  -6.676  0.00  0.00    -0.004 C 
ATOM      6  C   UNL     1       2.886  -0.140  -6.673  0.00  0.00    -0.010 C 
ATOM      7  C   UNL     1       3.368   0.554  -7.950  0.00  0.00    -0.082 C 
ATOM      8  N   UNL     1       4.834   0.501  -8.014  0.00  0.00    +0.379 N 
ATOM      9  C   UNL     1       5.281  -0.893  -8.110  0.00  0.00    -0.082 C 
ATOM     10  C   UNL     1       4.880  -1.649  -6.839  0.00  0.00    -0.010 C 
ATOM     11  C   UNL     1       0.273  -3.197  -7.652  0.00  0.00    +0.248 C 
ATOM     12  O   UNL     1      -0.611  -3.638  -6.943  0.00  0.00    -0.270 OA
ATOM     13  H   UNL     1       5.153   1.011  -8.825  0.00  0.00    -0.086 HD
ATOM     14  H   UNL     1       5.221   0.921  -7.182  0.00  0.00    -0.086 HD
ENDROOT
BRANCH  11  15
ATOM     15  C   UNL     1      -0.013  -2.847  -9.057  0.00  0.00    +0.055 A 
ATOM     16  C   UNL     1       1.029  -2.735  -9.989  0.00  0.00    +0.020 A 
ATOM     17  C   UNL     1       0.711  -2.406 -11.291  0.00  0.00    +0.068 A 
ATOM     18  C   UNL     1      -0.621  -2.197 -11.634  0.00  0.00    +0.220 A 
ATOM     19  N   UNL     1      -1.583  -2.309 -10.730  0.00  0.00    -0.220 NA
ATOM     20  C   UNL     1      -1.325  -2.627  -9.479  0.00  0.00    +0.127 A 
BRANCH  18  21
ATOM     21  O   UNL     1      -0.939  -1.873 -12.910  0.00  0.00    -0.438 OA
BRANCH  21  22
ATOM     22  C   UNL     1      -2.255  -1.770 -13.234  0.00  0.00    +0.130 A 
ATOM     23  C   UNL     1      -2.968  -0.629 -12.894  0.00  0.00    +0.046 A 
ATOM     24  C   UNL     1      -4.305  -0.527 -13.224  0.00  0.00    +0.004 A 
ATOM     25  C   UNL     1      -4.934  -1.562 -13.892  0.00  0.00    +0.000 A 
ATOM     26  C   UNL     1      -4.227  -2.700 -14.232  0.00  0.00    +0.004 A 
ATOM     27  C   UNL     1      -2.888  -2.804 -13.909  0.00  0.00    +0.046 A 
ENDBRANCH  21  22
ENDBRANCH  18  21
ENDBRANCH  11  15
BRANCH   1  29
ATOM     28  N   UNL     1       2.829  -0.608  -3.567  0.00  0.00    -0.308 N 
ATOM     29  C   UNL     1       2.176  -1.341  -4.490  0.00  0.00    +0.219 C 
ATOM     30  O   UNL     1       0.973  -1.235  -4.609  0.00  0.00    -0.275 OA
ATOM     31  H   UNL     1       3.790  -0.692  -3.472  0.00  0.00    +0.149 HD
BRANCH  28  32
ATOM     32  C   UNL     1       2.086   0.317  -2.706  0.00  0.00    +0.104 C 
ATOM     33  C   UNL     1       1.533  -0.443  -1.499  0.00  0.00    +0.033 C 
BRANCH  32  36
ATOM     34  C   UNL     1       1.430   3.375  -2.642  0.00  0.00    +0.065 C 
ATOM     35  C   UNL     1       2.722   2.734  -2.204  0.00  0.00    +0.038 A 
ATOM     36  C   UNL     1       3.006   1.411  -2.232  0.00  0.00    +0.015 A 
ATOM     37  C   UNL     1       4.305   1.240  -1.743  0.00  0.00    +0.065 A 
ATOM     38  N   UNL     1       4.784   2.417  -1.432  0.00  0.00    -0.179 NA
ATOM     39  N   UNL     1       3.805   3.377  -1.720  0.00  0.00    -0.281 N 
ATOM     40  H   UNL     1       3.890   4.335  -1.591  0.00  0.00    +0.189 HD
ATOM     41  C   UNL     1       5.029  -0.074  -1.598  0.00  0.00    +0.068 C 
ENDBRANCH  32  36
ENDBRANCH  28  32
ENDBRANCH   1  29
TORSDOF 6
