REMARK  Name = ZINC08793253
REMARK  13 active torsions:
REMARK  status: ('A' for Active; 'I' for Inactive)
REMARK    1  A    between atoms: C_1  and  C_2
REMARK    2  A    between atoms: C_7  and  C_8
REMARK    3  A    between atoms: C_7  and  C_9
REMARK    4  A    between atoms: C_10  and  S_14
REMARK    5  A    between atoms: S_14  and  C_15
REMARK    6  A    between atoms: C_18  and  C_28
REMARK    7  A    between atoms: N_19  and  C_20
REMARK    8  A    between atoms: C_23  and  O_26
REMARK    9  A    between atoms: O_26  and  C_27
REMARK   10  A    between atoms: C_28  and  N_29
REMARK   11  A    between atoms: C_30  and  C_32
REMARK   12  A    between atoms: C_35  and  O_38
REMARK   13  A    between atoms: O_38  and  C_39
REMARK                            x       y       z     vdW  Elec       q    Type
REMARK                         _______ _______ _______ _____ _____    ______ ____
ROOT
ATOM      1  C   UNL     1       1.028  -3.232  -3.306  0.00  0.00    +0.197 A 
ATOM      2  N   UNL     1       2.039  -2.445  -3.592  0.00  0.00    -0.122 NA
ATOM      3  N   UNL     1       2.410  -2.634  -4.807  0.00  0.00    -0.132 NA
ATOM      4  C   UNL     1       1.666  -3.545  -5.368  0.00  0.00    +0.156 A 
ATOM      5  N   UNL     1       0.761  -3.964  -4.430  0.00  0.00    -0.273 N 
ENDROOT
BRANCH   5   6
ATOM      6  C   UNL     1      -0.235  -4.940  -4.590  0.00  0.00    +0.050 A 
ATOM      7  C   UNL     1       0.119  -6.264  -4.809  0.00  0.00    +0.030 A 
ATOM      8  C   UNL     1      -0.862  -7.224  -4.967  0.00  0.00    +0.047 A 
ATOM      9  C   UNL     1      -2.200  -6.865  -4.907  0.00  0.00    +0.120 A 
ATOM     10  C   UNL     1      -2.555  -5.542  -4.688  0.00  0.00    +0.047 A 
ATOM     11  C   UNL     1      -1.575  -4.582  -4.524  0.00  0.00    +0.030 A 
BRANCH   9  12
ATOM     12  O   UNL     1      -3.165  -7.810  -5.062  0.00  0.00    -0.495 OA
ATOM     13  C   UNL     1      -4.522  -7.370  -4.989  0.00  0.00    +0.277 C 
ENDBRANCH   9  12
ENDBRANCH   5   6
BRANCH   1  14
ATOM     14  S   UNL     1       0.180  -3.332  -1.765  0.00  0.00    -0.074 S 
BRANCH  14  23
ATOM     15  C   UNL     1      -0.019   1.526   0.010  0.00  0.00    +0.019 C 
ATOM     16  C   UNL     1       0.002  -0.004   0.002  0.00  0.00    +0.033 C 
ATOM     17  C   UNL     1      -1.390  -0.703   0.064  0.00  0.00    +0.015 C 
ATOM     18  C   UNL     1      -1.085  -2.137   0.556  0.00  0.00    +0.006 C 
ATOM     19  C   UNL     1       0.465  -2.165   0.735  0.00  0.00    +0.016 C 
ATOM     20  C   UNL     1       0.727  -0.692   1.212  0.00  0.00    -0.019 C 
ATOM     21  C   UNL     1       2.220  -0.359   1.253  0.00  0.00    +0.012 C 
ATOM     22  C   UNL     1       0.040  -0.388   2.544  0.00  0.00    +0.012 C 
ATOM     23  C   UNL     1       1.022  -2.111  -0.721  0.00  0.00    +0.124 C 
ATOM     24  C   UNL     1       0.731  -0.657  -1.181  0.00  0.00    +0.153 C 
ATOM     25  O   UNL     1       0.996  -0.153  -2.246  0.00  0.00    -0.296 OA
ENDBRANCH  14  23
ENDBRANCH   1  14
BRANCH   4  26
ATOM     26  C   UNL     1       1.784  -4.047  -6.784  0.00  0.00    +0.181 C 
BRANCH  26  27
ATOM     27  N   UNL     1       2.702  -5.188  -6.822  0.00  0.00    -0.304 N 
ATOM     28  C   UNL     1       2.962  -5.805  -7.992  0.00  0.00    +0.244 C 
ATOM     29  O   UNL     1       2.435  -5.414  -9.016  0.00  0.00    -0.270 OA
ATOM     30  H   UNL     1       3.123  -5.500  -6.005  0.00  0.00    +0.149 HD
BRANCH  28  31
ATOM     31  C   UNL     1       3.887  -6.954  -8.031  0.00  0.00    +0.037 A 
ATOM     32  C   UNL     1       4.490  -7.409  -6.854  0.00  0.00    +0.016 A 
ATOM     33  C   UNL     1       5.352  -8.482  -6.895  0.00  0.00    +0.046 A 
ATOM     34  C   UNL     1       5.623  -9.113  -8.103  0.00  0.00    +0.120 A 
ATOM     35  C   UNL     1       5.026  -8.664  -9.275  0.00  0.00    +0.046 A 
ATOM     36  C   UNL     1       4.159  -7.595  -9.243  0.00  0.00    +0.016 A 
BRANCH  34  37
ATOM     37  O   UNL     1       6.474 -10.169  -8.139  0.00  0.00    -0.495 OA
ATOM     38  C   UNL     1       6.709 -10.771  -9.414  0.00  0.00    +0.277 C 
ENDBRANCH  34  37
ENDBRANCH  28  31
ENDBRANCH  26  27
ENDBRANCH   4  26
TORSDOF 8
