REMARK  Name = ZINC02318944
REMARK  10 active torsions:
REMARK  status: ('A' for Active; 'I' for Inactive)
REMARK    1  A    between atoms: C_1  and  N_2
REMARK    2  A    between atoms: C_3  and  C_24
REMARK    3  A    between atoms: C_6  and  S_7
REMARK    4  A    between atoms: S_7  and  C_8
REMARK    5  A    between atoms: C_8  and  C_9
REMARK    6  A    between atoms: N_11  and  N_12
REMARK    7  A    between atoms: C_13  and  C_14
REMARK    8  A    between atoms: C_18  and  C_21
REMARK    9  A    between atoms: C_19  and  O_20
REMARK   10  A    between atoms: C_21  and  C_22
REMARK                            x       y       z     vdW  Elec       q    Type
REMARK                         _______ _______ _______ _____ _____    ______ ____
ROOT
ATOM      1  C   UNL     1       0.540  -1.629   5.144  0.00  0.00    +0.242 C 
ATOM      2  O   UNL     1       0.578  -0.484   5.543  0.00  0.00    -0.273 OA
ATOM      3  N   UNL     1       0.630  -2.650   6.019  0.00  0.00    -0.206 N 
ATOM      4  H   UNL     1       0.600  -3.566   5.700  0.00  0.00    +0.177 HD
ENDROOT
BRANCH   3   5
ATOM      5  N   UNL     1       0.769  -2.389   7.388  0.00  0.00    -0.188 NA
ATOM      6  C   UNL     1       0.856  -3.373   8.231  0.00  0.00    +0.142 C 
BRANCH   6   7
ATOM      7  C   UNL     1       1.002  -3.098   9.671  0.00  0.00    +0.036 A 
ATOM      8  C   UNL     1       1.102  -4.154  10.581  0.00  0.00    +0.013 A 
ATOM      9  C   UNL     1       1.238  -3.890  11.928  0.00  0.00    +0.001 A 
ATOM     10  C   UNL     1       1.276  -2.583  12.383  0.00  0.00    +0.007 A 
ATOM     11  C   UNL     1       1.177  -1.530  11.493  0.00  0.00    -0.002 A 
ATOM     12  C   UNL     1       1.046  -1.777  10.136  0.00  0.00    +0.129 A 
BRANCH  12  13
ATOM     13  O   UNL     1       0.955  -0.743   9.261  0.00  0.00    -0.506 OA
ATOM     14  H   UNL     1       0.049  -0.445   9.096  0.00  0.00    +0.292 HD
ENDBRANCH  12  13
BRANCH  11  15
ATOM     15  C   UNL     1       1.220  -0.111  11.999  0.00  0.00    +0.065 C 
BRANCH  15  16
ATOM     16  C   UNL     1      -0.187   0.394  12.196  0.00  0.00    -0.030 C 
ATOM     17  C   UNL     1      -0.553   0.874  13.359  0.00  0.00    +0.004 C 
ENDBRANCH  15  16
ENDBRANCH  11  15
ENDBRANCH   6   7
ENDBRANCH   3   5
BRANCH   1  18
ATOM     18  C   UNL     1       0.391  -1.910   3.671  0.00  0.00    +0.174 C 
BRANCH  18  19
ATOM     19  S   UNL     1       0.296  -0.342   2.763  0.00  0.00    -0.077 S 
BRANCH  19  25
ATOM     20  C   UNL     1       0.012   1.461   0.007  0.00  0.00    +0.153 C 
ATOM     21  N   UNL     1       0.015  -0.004   0.001  0.00  0.00    -0.305 N 
ATOM     22  C   UNL     1      -0.087  -0.831  -1.094  0.00  0.00    +0.165 A 
ATOM     23  N   UNL     1      -0.042  -2.065  -0.651  0.00  0.00    -0.128 NA
ATOM     24  N   UNL     1       0.080  -2.067   0.629  0.00  0.00    -0.122 NA
ATOM     25  C   UNL     1       0.126  -0.834   1.080  0.00  0.00    +0.192 A 
BRANCH  22  26
ATOM     26  C   UNL     1      -0.223  -0.408  -2.504  0.00  0.00    +0.020 A 
ATOM     27  C   UNL     1       0.143   0.883  -2.888  0.00  0.00    +0.011 A 
ATOM     28  C   UNL     1       0.013   1.272  -4.205  0.00  0.00    +0.002 A 
ATOM     29  C   UNL     1      -0.479   0.385  -5.146  0.00  0.00    +0.015 A 
ATOM     30  C   UNL     1      -0.844  -0.897  -4.773  0.00  0.00    +0.019 A 
ATOM     31  C   UNL     1      -0.713  -1.300  -3.459  0.00  0.00    +0.027 A 
ATOM     32 BR   UNL     1      -1.516  -2.102  -6.067  0.00  0.00    -0.050 Br
ENDBRANCH  22  26
ENDBRANCH  19  25
ENDBRANCH  18  19
ENDBRANCH   1  18
TORSDOF 9
