REMARK  Name = ZINC03277133
REMARK  12 active torsions:
REMARK  status: ('A' for Active; 'I' for Inactive)
REMARK    1  A    between atoms: C_1  and  O_2
REMARK    2  A    between atoms: O_2  and  C_3
REMARK    3  A    between atoms: C_5  and  C_13
REMARK    4  A    between atoms: C_7  and  O_11
REMARK    5  A    between atoms: C_8  and  O_9
REMARK    6  A    between atoms: O_9  and  C_10
REMARK    7  A    between atoms: O_11  and  C_12
REMARK    8  A    between atoms: C_23  and  S_27
REMARK    9  A    between atoms: C_24  and  C_25
REMARK   10  A    between atoms: S_27  and  C_28
REMARK   11  A    between atoms: C_28  and  C_29
REMARK   12  A    between atoms: N_31  and  C_32
REMARK                            x       y       z     vdW  Elec       q    Type
REMARK                         _______ _______ _______ _____ _____    ______ ____
ROOT
ATOM      1  C   UNL     1      -4.859   0.247   0.035  0.00  0.00    +0.097 C 
ATOM      2  C   UNL     1      -5.634  -0.085   1.286  0.00  0.00    +0.024 C 
ATOM      3  C   UNL     1      -5.213   0.491   2.497  0.00  0.00    +0.162 C 
ATOM      4  O   UNL     1      -4.242   1.221   2.504  0.00  0.00    -0.292 OA
ATOM      5  C   UNL     1      -5.942   0.220   3.784  0.00  0.00    +0.080 C 
ATOM      6  C   UNL     1      -7.412  -0.079   3.472  0.00  0.00    +0.014 C 
ATOM      7  C   UNL     1      -7.469  -1.255   2.494  0.00  0.00    +0.051 C 
ATOM      8  C   UNL     1      -6.701  -0.911   1.242  0.00  0.00    +0.016 C 
ATOM      9  N   UNL     1      -7.115  -1.453   0.056  0.00  0.00    -0.311 N 
ATOM     10  C   UNL     1      -6.737  -0.891  -1.141  0.00  0.00    +0.080 C 
ATOM     11  C   UNL     1      -5.659  -0.065  -1.195  0.00  0.00    +0.069 C 
ATOM     12  H   UNL     1      -7.681  -2.242   0.059  0.00  0.00    +0.152 HD
ENDROOT
BRANCH   1  15
ATOM     13  C   UNL     1      -1.189  -0.653  -0.014  0.00  0.00    +0.165 A 
ATOM     14  C   UNL     1      -2.363   0.085   0.005  0.00  0.00    +0.054 A 
ATOM     15  C   UNL     1      -3.586  -0.559   0.014  0.00  0.00    -0.028 A 
ATOM     16  C   UNL     1      -3.644  -1.940   0.005  0.00  0.00    +0.054 A 
ATOM     17  C   UNL     1      -2.475  -2.685  -0.014  0.00  0.00    +0.165 A 
ATOM     18  C   UNL     1      -1.243  -2.042  -0.030  0.00  0.00    +0.204 A 
BRANCH  13  20
ATOM     19  C   UNL     1      -0.005   1.410  -0.007  0.00  0.00    +0.277 C 
ATOM     20  O   UNL     1       0.014  -0.019  -0.024  0.00  0.00    -0.491 OA
ENDBRANCH  13  20
BRANCH  18  21
ATOM     21  O   UNL     1      -0.094  -2.770  -0.054  0.00  0.00    -0.488 OA
ATOM     22  C   UNL     1       0.472  -3.131   1.208  0.00  0.00    +0.277 C 
ENDBRANCH  18  21
BRANCH  17  23
ATOM     23  O   UNL     1      -2.534  -4.044  -0.023  0.00  0.00    -0.491 OA
ATOM     24  C   UNL     1      -3.834  -4.637  -0.011  0.00  0.00    +0.277 C 
ENDBRANCH  17  23
ENDBRANCH   1  15
BRANCH  11  25
ATOM     25  C   UNL     1      -5.282   0.518  -2.447  0.00  0.00    +0.098 C 
ATOM     26  N   UNL     1      -4.983   0.980  -3.441  0.00  0.00    -0.191 NA
ENDBRANCH  11  25
BRANCH  10  27
ATOM     27  S   UNL     1      -7.650  -1.243  -2.607  0.00  0.00    -0.100 S 
BRANCH  27  28
ATOM     28  C   UNL     1      -8.962  -2.364  -2.047  0.00  0.00    +0.171 C 
BRANCH  28  29
ATOM     29  C   UNL     1      -9.828  -2.748  -3.219  0.00  0.00    +0.227 C 
ATOM     30  O   UNL     1      -9.584  -2.309  -4.323  0.00  0.00    -0.275 OA
ATOM     31  N   UNL     1     -10.873  -3.580  -3.041  0.00  0.00    -0.285 N 
ATOM     32  H   UNL     1     -11.029  -3.984  -2.173  0.00  0.00    +0.155 HD
BRANCH  31  33
ATOM     33  C   UNL     1     -11.735  -3.860  -4.107  0.00  0.00    +0.036 A 
ATOM     34  C   UNL     1     -13.091  -4.044  -3.876  0.00  0.00    +0.043 A 
ATOM     35  C   UNL     1     -13.940  -4.320  -4.932  0.00  0.00    +0.044 A 
ATOM     36  C   UNL     1     -13.438  -4.414  -6.218  0.00  0.00    +0.040 A 
ATOM     37  C   UNL     1     -12.086  -4.232  -6.451  0.00  0.00    +0.044 A 
ATOM     38  C   UNL     1     -11.235  -3.950  -5.400  0.00  0.00    +0.043 A 
ATOM     39 CL   UNL     1     -11.461  -4.351  -8.066  0.00  0.00    -0.083 Cl
ATOM     40 CL   UNL     1     -15.636  -4.551  -4.644  0.00  0.00    -0.083 Cl
ENDBRANCH  31  33
ENDBRANCH  28  29
ENDBRANCH  27  28
ENDBRANCH  10  27
TORSDOF 9
