REMARK  Name = ZINC21008809
REMARK  2 active torsions:
REMARK  status: ('A' for Active; 'I' for Inactive)
REMARK    1  A    between atoms: C_2  and  N_10
REMARK    2  A    between atoms: C_12  and  C_17
REMARK                            x       y       z     vdW  Elec       q    Type
REMARK                         _______ _______ _______ _____ _____    ______ ____
ROOT
ATOM      1  C   UNL     1      -3.748   2.797   1.944  0.00  0.00    +0.046 A 
ATOM      2  C   UNL     1      -2.461   3.267   1.721  0.00  0.00    +0.056 A 
ATOM      3  C   UNL     1      -2.019   4.411   2.373  0.00  0.00    +0.064 A 
ATOM      4  C   UNL     1      -2.864   5.085   3.235  0.00  0.00    +0.043 A 
ATOM      5  C   UNL     1      -4.146   4.614   3.456  0.00  0.00    +0.061 A 
ATOM      6  C   UNL     1      -4.588   3.471   2.811  0.00  0.00    +0.061 A 
ATOM      7 CL   UNL     1      -6.197   2.884   3.091  0.00  0.00    -0.082 Cl
ATOM      8 CL   UNL     1      -5.204   5.459   4.543  0.00  0.00    -0.082 Cl
ATOM      9 CL   UNL     1      -0.408   4.998   2.101  0.00  0.00    -0.082 Cl
ENDROOT
BRANCH   2  10
ATOM     10  N   UNL     1      -1.608   2.586   0.844  0.00  0.00    -0.269 N 
ATOM     11  C   UNL     1      -1.511   2.859  -0.595  0.00  0.00    +0.129 C 
ATOM     12  C   UNL     1      -0.811   1.623  -1.203  0.00  0.00    +0.128 C 
ATOM     13  C   UNL     1      -0.013   1.086   0.008  0.00  0.00    +0.112 C 
ATOM     14  C   UNL     1      -0.771   1.598   1.213  0.00  0.00    +0.221 C 
ATOM     15  O   UNL     1      -0.643   1.179   2.344  0.00  0.00    -0.275 OA
BRANCH  12  16
ATOM     16  C   UNL     1       0.114   2.023  -2.323  0.00  0.00    +0.361 C 
ATOM     17  O   UNL     1       0.140   3.169  -2.705  0.00  0.00    -0.246 OA
ATOM     18  O   UNL     1       0.908   1.106  -2.898  0.00  0.00    -0.246 OA
ENDBRANCH  12  16
ENDBRANCH   2  10
TORSDOF 2
