REMARK  Name = ZINC36063980
REMARK  12 active torsions:
REMARK  status: ('A' for Active; 'I' for Inactive)
REMARK    1  A    between atoms: C_1  and  C_2
REMARK    2  A    between atoms: C_2  and  C_3
REMARK    3  A    between atoms: C_2  and  C_4
REMARK    4  A    between atoms: C_4  and  N_5
REMARK    5  A    between atoms: C_6  and  C_8
REMARK    6  A    between atoms: C_11  and  C_13
REMARK    7  A    between atoms: C_13  and  N_14
REMARK    8  A    between atoms: N_14  and  C_15
REMARK    9  A    between atoms: N_14  and  C_27
REMARK   10  A    between atoms: C_15  and  C_16
REMARK   11  A    between atoms: C_16  and  C_17
REMARK   12  A    between atoms: C_27  and  C_28
REMARK                            x       y       z     vdW  Elec       q    Type
REMARK                         _______ _______ _______ _____ _____    ______ ____
ROOT
ATOM      1  N   UNL     1      -0.390  -7.855   0.573  0.00  0.00    +0.388 N 
ATOM      2  H   UNL     1      -1.010  -8.124   1.322  0.00  0.00    -0.081 HD
ENDROOT
BRANCH   1   3
ATOM      3  C   UNL     1      -1.182  -7.376  -0.569  0.00  0.00    +0.019 C 
BRANCH   3   7
ATOM      4  C   UNL     1      -4.025  -9.560  -1.089  0.00  0.00    +0.163 A 
ATOM      5  C   UNL     1      -3.102 -10.166  -1.884  0.00  0.00    +0.230 A 
ATOM      6  O   UNL     1      -1.971  -9.449  -1.788  0.00  0.00    -0.449 OA
ATOM      7  C   UNL     1      -2.194  -8.424  -0.953  0.00  0.00    +0.179 A 
ATOM      8  N   UNL     1      -3.422  -8.476  -0.530  0.00  0.00    -0.210 NA
BRANCH   4  10
ATOM      9  N   UNL     1      -6.255  -9.235  -0.139  0.00  0.00    -0.310 N 
ATOM     10  C   UNL     1      -5.418  -9.992  -0.877  0.00  0.00    +0.266 C 
ATOM     11  O   UNL     1      -5.814 -11.032  -1.368  0.00  0.00    -0.268 OA
ATOM     12  H   UNL     1      -5.921  -8.446   0.314  0.00  0.00    +0.149 HD
BRANCH   9  13
ATOM     13  C   UNL     1      -7.667  -9.605  -0.023  0.00  0.00    +0.107 C 
BRANCH  13  15
ATOM     14  C   UNL     1      -9.886  -8.902   0.885  0.00  0.00    +0.009 C 
ATOM     15  C   UNL     1      -8.389  -8.588   0.864  0.00  0.00    -0.000 C 
ATOM     16  C   UNL     1      -7.832  -8.665   2.286  0.00  0.00    +0.009 C 
ENDBRANCH  13  15
ENDBRANCH   9  13
ENDBRANCH   4  10
ENDBRANCH   3   7
ENDBRANCH   1   3
BRANCH   1  17
ATOM     17  C   UNL     1       0.413  -9.013   0.160  0.00  0.00    -0.073 C 
BRANCH  17  18
ATOM     18  C   UNL     1       1.141  -9.588   1.376  0.00  0.00    +0.019 C 
BRANCH  18  19
ATOM     19  C   UNL     1       1.965 -10.777   0.953  0.00  0.00    -0.024 A 
ATOM     20  C   UNL     1       1.593 -12.066   1.005  0.00  0.00    +0.087 A 
ATOM     21  N   UNL     1       2.602 -12.862   0.537  0.00  0.00    -0.360 N 
ATOM     22  H   UNL     1       2.567 -13.830   0.478  0.00  0.00    +0.165 HD
ATOM     23  C   UNL     1       3.675 -12.086   0.161  0.00  0.00    +0.047 A 
ATOM     24  C   UNL     1       3.321 -10.745   0.399  0.00  0.00    +0.003 A 
ATOM     25  C   UNL     1       4.224  -9.723   0.103  0.00  0.00    +0.010 A 
ATOM     26  C   UNL     1       5.449 -10.029  -0.420  0.00  0.00    +0.001 A 
ATOM     27  C   UNL     1       5.802 -11.350  -0.661  0.00  0.00    +0.002 A 
ATOM     28  C   UNL     1       4.929 -12.375  -0.368  0.00  0.00    +0.026 A 
ENDBRANCH  18  19
ENDBRANCH  17  18
ENDBRANCH   1  17
BRANCH   1  29
ATOM     29  C   UNL     1       0.500  -6.782   1.035  0.00  0.00    -0.041 C 
BRANCH  29  30
ATOM     30  C   UNL     1      -0.325  -5.644   1.579  0.00  0.00    -0.046 A 
ATOM     31  C   UNL     1      -0.516  -4.504   0.820  0.00  0.00    +0.003 A 
ATOM     32  C   UNL     1      -1.273  -3.461   1.318  0.00  0.00    +0.000 A 
ATOM     33  C   UNL     1      -1.839  -3.555   2.576  0.00  0.00    +0.001 A 
ATOM     34  C   UNL     1      -1.649  -4.694   3.336  0.00  0.00    +0.020 A 
ATOM     35  C   UNL     1      -0.896  -5.742   2.835  0.00  0.00    +0.042 A 
ATOM     36 CL   UNL     1      -0.662  -7.175   3.786  0.00  0.00    -0.083 Cl
ENDBRANCH  29  30
ENDBRANCH   1  29
TORSDOF 10
