REMARK  Name = ZINC12152032
REMARK  7 active torsions:
REMARK  status: ('A' for Active; 'I' for Inactive)
REMARK    1  A    between atoms: C_1  and  N_68
REMARK    2  A    between atoms: C_6  and  C_8
REMARK    3  A    between atoms: C_13  and  C_16
REMARK    4  A    between atoms: C_16  and  C_30
REMARK    5  A    between atoms: N_19  and  C_23
REMARK    6  A    between atoms: C_23  and  C_24
REMARK    7  A    between atoms: C_24  and  C_25
REMARK                            x       y       z     vdW  Elec       q    Type
REMARK                         _______ _______ _______ _____ _____    ______ ____
ROOT
ATOM      1  C   UNL     1      -3.609  -2.068  -4.068  0.00  0.00    +0.142 C 
ATOM      2  C   UNL     1      -2.341  -2.328  -4.857  0.00  0.00    +0.251 C 
ATOM      3  O   UNL     1      -1.261  -2.663  -4.419  0.00  0.00    -0.272 OA
ATOM      4  N   UNL     1      -2.664  -2.111  -6.147  0.00  0.00    -0.224 N 
ATOM      5  C   UNL     1      -3.946  -1.753  -6.282  0.00  0.00    +0.310 C 
ATOM      6  O   UNL     1      -4.470  -1.504  -7.350  0.00  0.00    -0.252 OA
ATOM      7  N   UNL     1      -4.594  -1.700  -5.100  0.00  0.00    -0.281 N 
ATOM      8  H   UNL     1      -5.524  -1.468  -4.956  0.00  0.00    +0.152 HD
ENDROOT
BRANCH   1  14
ATOM      9  C   UNL     1      -0.754   1.759  -1.436  0.00  0.00    +0.202 C 
ATOM     10  O   UNL     1      -0.480   2.767  -2.052  0.00  0.00    -0.277 OA
ATOM     11  N   UNL     1      -1.852   1.047  -1.762  0.00  0.00    -0.303 N 
ATOM     12  C   UNL     1      -2.193  -0.179  -1.029  0.00  0.00    +0.108 C 
ATOM     13  C   UNL     1      -2.374  -1.321  -2.028  0.00  0.00    +0.025 C 
ATOM     14  C   UNL     1      -3.403  -0.913  -3.085  0.00  0.00    +0.029 C 
ATOM     15  C   UNL     1      -2.898   0.317  -3.842  0.00  0.00    +0.025 C 
ATOM     16  C   UNL     1      -2.726   1.481  -2.860  0.00  0.00    +0.108 C 
BRANCH   9  22
ATOM     17  C   UNL     1       2.025   1.653  -1.775  0.00  0.00    -0.095 C 
ATOM     18  C   UNL     1       2.368   1.464   0.614  0.00  0.00    -0.078 C 
ATOM     19  C   UNL     1       1.814   1.885   1.978  0.00  0.00    -0.019 C 
ATOM     20  C   UNL     1       0.426   1.268   2.172  0.00  0.00    -0.003 C 
ATOM     21  C   UNL     1      -0.488   1.717   1.029  0.00  0.00    -0.006 C 
ATOM     22  C   UNL     1       0.132   1.301  -0.307  0.00  0.00    +0.019 C 
ATOM     23  N   UNL     1       1.455   1.947  -0.444  0.00  0.00    +0.385 N 
ATOM     24  H   UNL     1       1.341   2.963  -0.347  0.00  0.00    -0.081 HD
ENDBRANCH   9  22
ENDBRANCH   1  14
BRANCH   1  25
ATOM     25  C   UNL     1      -4.044  -3.312  -3.338  0.00  0.00    +0.003 A 
ATOM     26  C   UNL     1      -3.104  -4.155  -2.764  0.00  0.00    +0.009 A 
ATOM     27  C   UNL     1      -3.550  -5.288  -2.103  0.00  0.00    +0.020 A 
ATOM     28  C   UNL     1      -4.908  -5.539  -2.038  0.00  0.00    +0.111 A 
ATOM     29  N   UNL     1      -5.774  -4.716  -2.595  0.00  0.00    -0.263 NA
ATOM     30  C   UNL     1      -5.385  -3.625  -3.227  0.00  0.00    +0.117 A 
ENDBRANCH   1  25
BRANCH   4  31
ATOM     31  C   UNL     1      -1.727  -2.248  -7.265  0.00  0.00    +0.123 C 
BRANCH  31  32
ATOM     32  C   UNL     1      -1.772  -3.683  -7.795  0.00  0.00    +0.062 C 
BRANCH  32  33
ATOM     33  C   UNL     1      -0.808  -3.825  -8.944  0.00  0.00    -0.009 A 
ATOM     34  C   UNL     1       0.500  -4.178  -8.922  0.00  0.00    +0.011 A 
ATOM     35  C   UNL     1       1.197  -4.244 -10.115  0.00  0.00    +0.008 A 
ATOM     36  C   UNL     1       0.550  -3.954 -11.270  0.00  0.00    +0.045 A 
ATOM     37  S   UNL     1      -1.095  -3.579 -10.689  0.00  0.00    -0.102 S 
ENDBRANCH  32  33
ENDBRANCH  31  32
ENDBRANCH   4  31
TORSDOF 6
