REMARK  Name = ZINC38975959
REMARK  13 active torsions:
REMARK  status: ('A' for Active; 'I' for Inactive)
REMARK    1  A    between atoms: C_6  and  C_7
REMARK    2  A    between atoms: C_7  and  C_9
REMARK    3  A    between atoms: C_7  and  O_41
REMARK    4  A    between atoms: C_9  and  C_11
REMARK    5  A    between atoms: C_9  and  C_33
REMARK    6  A    between atoms: C_11  and  C_12
REMARK    7  A    between atoms: C_12  and  C_13
REMARK    8  A    between atoms: C_13  and  C_15
REMARK    9  A    between atoms: C_13  and  C_23
REMARK   10  A    between atoms: C_15  and  N_16
REMARK   11  A    between atoms: C_23  and  C_25
REMARK   12  A    between atoms: C_23  and  O_32
REMARK   13  A    between atoms: C_33  and  N_34
REMARK                            x       y       z     vdW  Elec       q    Type
REMARK                         _______ _______ _______ _____ _____    ______ ____
ROOT
ATOM      1  C   UNL     1      -2.684  -2.155   1.556  0.00  0.00    +0.005 C 
ENDROOT
BRANCH   1   2
ATOM      2  C   UNL     1      -1.614  -1.107   1.868  0.00  0.00    +0.005 C 
BRANCH   2   3
ATOM      3  C   UNL     1      -1.756   0.070   0.901  0.00  0.00    +0.146 C 
BRANCH   3   9
ATOM      4  C   UNL     1      -1.015   2.168   2.047  0.00  0.00    +0.009 A 
ATOM      5  C   UNL     1      -0.056   3.120   2.336  0.00  0.00    +0.039 A 
ATOM      6  C   UNL     1       1.213   3.011   1.792  0.00  0.00    +0.123 A 
ATOM      7  C   UNL     1       1.518   1.948   0.958  0.00  0.00    +0.039 A 
ATOM      8  C   UNL     1       0.557   0.997   0.671  0.00  0.00    +0.009 A 
ATOM      9  C   UNL     1      -0.709   1.107   1.215  0.00  0.00    -0.019 A 
ATOM     10  F   UNL     1       2.151   3.941   2.073  0.00  0.00    -0.205 F 
ENDBRANCH   3   9
BRANCH   3  11
ATOM     11  O   UNL     1      -1.582  -0.392  -0.440  0.00  0.00    -0.387 OA
ATOM     12  H   UNL     1      -0.720  -0.796  -0.608  0.00  0.00    +0.210 HD
ENDBRANCH   3  11
ENDBRANCH   2   3
BRANCH   2  13
ATOM     13  C   UNL     1      -0.227  -1.732   1.711  0.00  0.00    -0.073 C 
BRANCH  13  14
ATOM     14  N   UNL     1      -0.040  -2.773   2.730  0.00  0.00    +0.380 N 
ATOM     15  C   UNL     1      -0.081  -2.143   4.064  0.00  0.00    -0.079 C 
ATOM     16  C   UNL     1      -0.495  -3.188   5.069  0.00  0.00    -0.019 C 
ATOM     17  C   UNL     1       0.728  -3.822   5.759  0.00  0.00    -0.002 C 
ATOM     18  C   UNL     1       1.876  -4.080   4.763  0.00  0.00    -0.002 C 
ATOM     19  C   UNL     1       1.383  -4.620   3.445  0.00  0.00    -0.019 C 
ATOM     20  C   UNL     1       1.157  -3.443   2.472  0.00  0.00    -0.079 C 
ATOM     21  H   UNL     1      -0.801  -3.432   2.662  0.00  0.00    -0.082 HD
ENDBRANCH  13  14
ENDBRANCH   2  13
ENDBRANCH   1   2
BRANCH   1  22
ATOM     22  C   UNL     1      -3.075  -2.884   2.844  0.00  0.00    +0.005 C 
BRANCH  22  23
ATOM     23  C   UNL     1      -4.250  -3.822   2.562  0.00  0.00    +0.005 C 
BRANCH  23  24
ATOM     24  C   UNL     1      -3.719  -5.215   2.213  0.00  0.00    -0.073 C 
BRANCH  24  25
ATOM     25  N   UNL     1      -2.979  -5.153   0.946  0.00  0.00    +0.380 N 
ATOM     26  C   UNL     1      -3.909  -4.749  -0.126  0.00  0.00    -0.079 C 
ATOM     27  C   UNL     1      -3.107  -4.113  -1.234  0.00  0.00    -0.019 C 
ATOM     28  C   UNL     1      -2.774  -5.128  -2.343  0.00  0.00    -0.002 C 
ATOM     29  C   UNL     1      -2.386  -6.503  -1.763  0.00  0.00    -0.002 C 
ATOM     30  C   UNL     1      -1.499  -6.384  -0.550  0.00  0.00    -0.019 C 
ATOM     31  C   UNL     1      -2.377  -6.392   0.719  0.00  0.00    -0.079 C 
ATOM     32  H   UNL     1      -2.257  -4.453   1.027  0.00  0.00    -0.082 HD
ENDBRANCH  24  25
ENDBRANCH  23  24
BRANCH  23  33
ATOM     33  C   UNL     1      -5.140  -3.912   3.803  0.00  0.00    +0.146 C 
BRANCH  33  34
ATOM     34  C   UNL     1      -6.248  -4.903   3.556  0.00  0.00    -0.019 A 
ATOM     35  C   UNL     1      -7.330  -4.549   2.773  0.00  0.00    +0.009 A 
ATOM     36  C   UNL     1      -8.347  -5.457   2.546  0.00  0.00    +0.039 A 
ATOM     37  C   UNL     1      -8.280  -6.723   3.103  0.00  0.00    +0.123 A 
ATOM     38  C   UNL     1      -7.196  -7.077   3.888  0.00  0.00    +0.039 A 
ATOM     39  C   UNL     1      -6.178  -6.168   4.109  0.00  0.00    +0.009 A 
ATOM     40  F   UNL     1      -9.274  -7.612   2.882  0.00  0.00    -0.205 F 
ENDBRANCH  33  34
BRANCH  33  41
ATOM     41  O   UNL     1      -5.703  -2.628   4.079  0.00  0.00    -0.387 OA
ATOM     42  H   UNL     1      -6.247  -2.275   3.362  0.00  0.00    +0.210 HD
ENDBRANCH  33  41
ENDBRANCH  23  33
ENDBRANCH  22  23
ENDBRANCH   1  22
TORSDOF 13
