REMARK  Name = ZINC10264312
REMARK  9 active torsions:
REMARK  status: ('A' for Active; 'I' for Inactive)
REMARK    1  A    between atoms: C_1  and  C_2
REMARK    2  A    between atoms: C_2  and  C_3
REMARK    3  A    between atoms: C_8  and  N_9
REMARK    4  A    between atoms: C_12  and  C_17
REMARK    5  A    between atoms: C_17  and  S_18
REMARK    6  A    between atoms: S_18  and  C_19
REMARK    7  A    between atoms: C_22  and  C_25
REMARK    8  A    between atoms: N_23  and  C_24
REMARK    9  A    between atoms: C_28  and  C_31
REMARK                            x       y       z     vdW  Elec       q    Type
REMARK                         _______ _______ _______ _____ _____    ______ ____
ROOT
ATOM      1  N   UNL     1      -2.503  -8.517   1.906  0.00  0.00    -0.283 N 
ATOM      2  C   UNL     1      -1.965  -7.916   0.785  0.00  0.00    +0.224 A 
ATOM      3  N   UNL     1      -1.580  -6.642   0.831  0.00  0.00    -0.198 NA
ATOM      4  C   UNL     1      -1.071  -6.064  -0.243  0.00  0.00    +0.146 A 
ATOM      5  N   UNL     1      -0.932  -6.751  -1.363  0.00  0.00    -0.199 NA
ATOM      6  C   UNL     1      -1.309  -8.026  -1.416  0.00  0.00    +0.217 A 
ATOM      7  N   UNL     1      -1.827  -8.609  -0.340  0.00  0.00    -0.181 NA
ATOM      8  N   UNL     1      -1.164  -8.742  -2.587  0.00  0.00    -0.327 N 
ATOM      9  H   UNL     1      -2.524  -8.039   2.750  0.00  0.00    +0.155 HD
ATOM     10  H   UNL     1      -0.786  -8.315  -3.372  0.00  0.00    +0.145 HD
ATOM     11  H   UNL     1      -1.439  -9.671  -2.625  0.00  0.00    +0.145 HD
ENDROOT
BRANCH   1  17
ATOM     12  C   UNL     1      -2.995 -10.643   2.940  0.00  0.00    -0.026 A 
ATOM     13  C   UNL     1      -3.503 -11.925   2.856  0.00  0.00    +0.005 A 
ATOM     14  C   UNL     1      -4.034 -12.383   1.665  0.00  0.00    +0.000 A 
ATOM     15  C   UNL     1      -4.057 -11.561   0.553  0.00  0.00    +0.002 A 
ATOM     16  C   UNL     1      -3.554 -10.277   0.630  0.00  0.00    +0.023 A 
ATOM     17  C   UNL     1      -3.016  -9.815   1.825  0.00  0.00    +0.037 A 
BRANCH  12  19
ATOM     18  C   UNL     1      -3.490  -9.375   5.013  0.00  0.00    +0.009 C 
ATOM     19  C   UNL     1      -2.416 -10.144   4.239  0.00  0.00    +0.033 C 
ENDBRANCH  12  19
ENDBRANCH   1  17
BRANCH   4  20
ATOM     20  C   UNL     1      -0.642  -4.621  -0.187  0.00  0.00    +0.153 C 
BRANCH  20  21
ATOM     21  S   UNL     1      -2.032  -3.560  -0.655  0.00  0.00    -0.078 S 
BRANCH  21  22
ATOM     22  C   UNL     1      -1.272  -1.977  -0.508  0.00  0.00    +0.192 A 
ATOM     23  N   UNL     1      -0.030  -1.739  -0.149  0.00  0.00    -0.122 NA
ATOM     24  N   UNL     1       0.193  -0.473  -0.146  0.00  0.00    -0.128 NA
ATOM     25  C   UNL     1      -0.893   0.174  -0.502  0.00  0.00    +0.165 A 
ATOM     26  N   UNL     1      -1.866  -0.769  -0.739  0.00  0.00    -0.305 N 
ATOM     27  C   UNL     1      -3.249  -0.528  -1.157  0.00  0.00    +0.153 C 
BRANCH  25  28
ATOM     28  C   UNL     1      -1.042   1.640  -0.619  0.00  0.00    +0.019 A 
ATOM     29  C   UNL     1      -2.105   2.180  -1.347  0.00  0.00    +0.012 A 
ATOM     30  C   UNL     1      -2.242   3.549  -1.447  0.00  0.00    +0.004 A 
ATOM     31  C   UNL     1      -1.324   4.386  -0.839  0.00  0.00    -0.050 A 
ATOM     32  C   UNL     1      -0.265   3.857  -0.122  0.00  0.00    +0.004 A 
ATOM     33  C   UNL     1      -0.119   2.490  -0.009  0.00  0.00    +0.012 A 
ATOM     34  C   UNL     1      -1.477   5.881  -0.958  0.00  0.00    +0.044 C 
ENDBRANCH  25  28
ENDBRANCH  21  22
ENDBRANCH  20  21
ENDBRANCH   4  20
TORSDOF 6
