REMARK  Name = ZINC43078741
REMARK  8 active torsions:
REMARK  status: ('A' for Active; 'I' for Inactive)
REMARK    1  A    between atoms: C_1  and  N_2
REMARK    2  A    between atoms: N_2  and  C_3
REMARK    3  A    between atoms: C_3  and  C_4
REMARK    4  A    between atoms: C_9  and  O_10
REMARK    5  A    between atoms: N_13  and  C_14
REMARK    6  A    between atoms: C_14  and  C_15
REMARK    7  A    between atoms: C_15  and  C_17
REMARK    8  A    between atoms: C_15  and  C_23
REMARK                            x       y       z     vdW  Elec       q    Type
REMARK                         _______ _______ _______ _____ _____    ______ ____
ROOT
ATOM      1  C   UNL     1      -0.047   0.283  -4.762  0.00  0.00    +0.068 C 
ENDROOT
BRANCH   1   2
ATOM      2  C   UNL     1      -0.173  -0.461  -6.067  0.00  0.00    -0.013 A 
ATOM      3  C   UNL     1       0.681  -1.377  -6.550  0.00  0.00    +0.088 A 
ATOM      4  N   UNL     1       0.239  -1.835  -7.760  0.00  0.00    -0.360 N 
ATOM      5  H   UNL     1       0.689  -2.502  -8.302  0.00  0.00    +0.165 HD
ATOM      6  C   UNL     1      -0.942  -1.210  -8.095  0.00  0.00    +0.047 A 
ATOM      7  C   UNL     1      -1.255  -0.327  -7.045  0.00  0.00    +0.003 A 
ATOM      8  C   UNL     1      -2.415   0.447  -7.109  0.00  0.00    +0.010 A 
ATOM      9  C   UNL     1      -3.244   0.339  -8.191  0.00  0.00    +0.001 A 
ATOM     10  C   UNL     1      -2.941  -0.534  -9.226  0.00  0.00    +0.002 A 
ATOM     11  C   UNL     1      -1.797  -1.300  -9.188  0.00  0.00    +0.026 A 
ENDBRANCH   1   2
BRANCH   1  12
ATOM     12  C   UNL     1       1.230   1.083  -4.762  0.00  0.00    -0.038 A 
ATOM     13  C   UNL     1       2.447   0.443  -4.906  0.00  0.00    +0.004 A 
ATOM     14  C   UNL     1       3.618   1.177  -4.905  0.00  0.00    +0.000 A 
ATOM     15  C   UNL     1       3.573   2.552  -4.761  0.00  0.00    +0.000 A 
ATOM     16  C   UNL     1       2.356   3.192  -4.619  0.00  0.00    +0.000 A 
ATOM     17  C   UNL     1       1.184   2.458  -4.623  0.00  0.00    +0.004 A 
ENDBRANCH   1  12
BRANCH   1  18
ATOM     18  C   UNL     1      -0.022  -0.717  -3.605  0.00  0.00    +0.118 C 
BRANCH  18  23
ATOM     19  C   UNL     1      -0.018   1.461   0.010  0.00  0.00    +0.134 C 
ATOM     20  N   UNL     1       0.002  -0.004   0.002  0.00  0.00    -0.284 N 
ATOM     21  C   UNL     1       0.000  -0.672  -1.169  0.00  0.00    +0.302 C 
ATOM     22  O   UNL     1       0.017  -1.887  -1.175  0.00  0.00    -0.253 OA
ATOM     23  N   UNL     1      -0.020   0.009  -2.332  0.00  0.00    -0.298 N 
ATOM     24  H   UNL     1      -0.033   0.978  -2.327  0.00  0.00    +0.150 HD
BRANCH  20  25
ATOM     25  C   UNL     1       0.024  -0.743   1.267  0.00  0.00    +0.147 C 
BRANCH  25  26
ATOM     26  C   UNL     1      -1.389  -1.016   1.714  0.00  0.00    +0.011 A 
ATOM     27  C   UNL     1      -1.975  -0.219   2.678  0.00  0.00    +0.009 A 
ATOM     28  C   UNL     1      -3.271  -0.469   3.089  0.00  0.00    +0.001 A 
ATOM     29  C   UNL     1      -3.984  -1.517   2.536  0.00  0.00    +0.004 A 
ATOM     30  C   UNL     1      -3.403  -2.317   1.572  0.00  0.00    +0.046 A 
ATOM     31  C   UNL     1      -2.104  -2.064   1.154  0.00  0.00    +0.122 A 
BRANCH  31  32
ATOM     32  O   UNL     1      -1.532  -2.846   0.201  0.00  0.00    -0.506 OA
ATOM     33  H   UNL     1      -1.062  -3.615   0.553  0.00  0.00    +0.292 HD
ENDBRANCH  31  32
ENDBRANCH  25  26
ENDBRANCH  20  25
ENDBRANCH  18  23
ENDBRANCH   1  18
TORSDOF 7
