REMARK  Name = ZINC14467335
REMARK  4 active torsions:
REMARK  status: ('A' for Active; 'I' for Inactive)
REMARK    1  A    between atoms: C_1  and  C_2
REMARK    2  A    between atoms: C_7  and  C_8
REMARK    3  A    between atoms: C_10  and  C_19
REMARK    4  A    between atoms: C_24  and  O_25
REMARK                            x       y       z     vdW  Elec       q    Type
REMARK                         _______ _______ _______ _____ _____    ______ ____
ROOT
ATOM      1  C   UNL     1       5.667   2.310   2.175  0.00  0.00    +0.044 C 
ATOM      2  C   UNL     1       4.207   1.940   2.248  0.00  0.00    -0.046 A 
ATOM      3  C   UNL     1       3.631   1.652   3.472  0.00  0.00    +0.004 A 
ATOM      4  C   UNL     1       2.295   1.306   3.533  0.00  0.00    +0.006 A 
ATOM      5  C   UNL     1       1.534   1.246   2.384  0.00  0.00    -0.019 A 
ATOM      6  C   UNL     1       2.100   1.550   1.143  0.00  0.00    +0.035 A 
ATOM      7  C   UNL     1       3.453   1.891   1.098  0.00  0.00    -0.026 A 
ATOM      8  C   UNL     1       4.096   2.210  -0.228  0.00  0.00    +0.046 C 
ATOM      9  N   UNL     1       1.398   1.538  -0.059  0.00  0.00    -0.336 N 
ATOM     10  C   UNL     1       0.002   1.073  -0.007  0.00  0.00    +0.109 C 
ATOM     11  C   UNL     1      -0.602   1.625   1.268  0.00  0.00    +0.029 C 
ATOM     12  C   UNL     1       0.112   0.841   2.413  0.00  0.00    +0.049 C 
ATOM     13  C   UNL     1      -0.773   1.101   3.575  0.00  0.00    -0.023 C 
ATOM     14  C   UNL     1      -2.007   1.278   3.148  0.00  0.00    -0.030 C 
ATOM     15  C   UNL     1      -2.038   1.216   1.618  0.00  0.00    +0.033 C 
ATOM     16  H   UNL     1       1.914   1.049  -0.775  0.00  0.00    +0.147 HD
ENDROOT
BRANCH  10  17
ATOM     17  C   UNL     1      -0.757   1.590  -1.202  0.00  0.00    +0.017 A 
ATOM     18  C   UNL     1      -0.369   2.768  -1.811  0.00  0.00    +0.029 A 
ATOM     19  C   UNL     1      -1.065   3.243  -2.908  0.00  0.00    +0.043 A 
ATOM     20  C   UNL     1      -2.150   2.539  -3.399  0.00  0.00    +0.043 A 
ATOM     21  C   UNL     1      -2.541   1.360  -2.793  0.00  0.00    +0.084 A 
ATOM     22  C   UNL     1      -1.841   0.880  -1.695  0.00  0.00    +0.140 A 
ATOM     23 CL   UNL     1      -3.903   0.477  -3.409  0.00  0.00    -0.080 Cl
ATOM     24 CL   UNL     1      -0.575   4.724  -3.670  0.00  0.00    -0.083 Cl
BRANCH  22  25
ATOM     25  O   UNL     1      -2.220  -0.282  -1.101  0.00  0.00    -0.505 OA
ATOM     26  H   UNL     1      -2.930  -0.179  -0.452  0.00  0.00    +0.292 HD
ENDBRANCH  22  25
ENDBRANCH  10  17
TORSDOF 2
