REMARK  Name = ZINC06137113
REMARK  11 active torsions:
REMARK  status: ('A' for Active; 'I' for Inactive)
REMARK    1  A    between atoms: C_1  and  C_2
REMARK    2  A    between atoms: C_3  and  C_27
REMARK    3  A    between atoms: C_4  and  C_22
REMARK    4  A    between atoms: C_6  and  C_20
REMARK    5  A    between atoms: C_7  and  S_9
REMARK    6  A    between atoms: S_9  and  C_10
REMARK    7  A    between atoms: C_10  and  C_11
REMARK    8  A    between atoms: N_13  and  C_14
REMARK    9  A    between atoms: N_29  and  C_30
REMARK   10  A    between atoms: C_35  and  O_36
REMARK   11  A    between atoms: O_36  and  C_37
REMARK                            x       y       z     vdW  Elec       q    Type
REMARK                         _______ _______ _______ _____ _____    ______ ____
ROOT
ATOM      1  C   UNL     1      -0.801   5.141  -0.262  0.00  0.00    +0.061 C 
ATOM      2  C   UNL     1      -0.609   3.649  -0.171  0.00  0.00    +0.015 C 
ATOM      3  C   UNL     1      -1.629   2.831  -0.476  0.00  0.00    +0.047 C 
ATOM      4  C   UNL     1      -1.495   1.339  -0.399  0.00  0.00    +0.134 C 
ATOM      5  C   UNL     1      -0.050   0.932  -0.332  0.00  0.00    +0.072 C 
ATOM      6  C   UNL     1       0.923   1.833  -0.029  0.00  0.00    +0.080 C 
ATOM      7  N   UNL     1       0.603   3.149   0.222  0.00  0.00    -0.312 N 
ATOM      8  H   UNL     1       1.325   3.799   0.739  0.00  0.00    +0.152 HD
ENDROOT
BRANCH   4   9
ATOM      9  C   UNL     1      -2.128   0.719  -1.618  0.00  0.00    +0.118 A 
ATOM     10  C   UNL     1      -3.112  -0.199  -1.613  0.00  0.00    +0.045 A 
ATOM     11  C   UNL     1      -3.399  -0.499  -2.964  0.00  0.00    +0.041 A 
ATOM     12  C   UNL     1      -2.574   0.252  -3.714  0.00  0.00    +0.195 A 
ATOM     13  O   UNL     1      -1.810   0.992  -2.894  0.00  0.00    -0.467 OA
ENDBRANCH   4   9
BRANCH   3  14
ATOM     14  C   UNL     1      -2.863   3.391  -0.886  0.00  0.00    +0.247 C 
ATOM     15  O   UNL     1      -3.807   3.413  -0.117  0.00  0.00    -0.270 OA
ATOM     16  N   UNL     1      -2.992   3.901  -2.127  0.00  0.00    -0.279 N 
ATOM     17  H   UNL     1      -2.172   3.798  -2.852  0.00  0.00    +0.155 HD
BRANCH  16  18
ATOM     18  C   UNL     1      -4.172   4.561  -2.493  0.00  0.00    +0.076 A 
ATOM     19  C   UNL     1      -5.024   5.056  -1.516  0.00  0.00    +0.027 A 
ATOM     20  C   UNL     1      -6.184   5.713  -1.881  0.00  0.00    +0.002 A 
ATOM     21  C   UNL     1      -6.505   5.867  -3.217  0.00  0.00    +0.004 A 
ATOM     22  C   UNL     1      -5.664   5.371  -4.195  0.00  0.00    +0.047 A 
ATOM     23  C   UNL     1      -4.496   4.717  -3.839  0.00  0.00    +0.141 A 
BRANCH  23  24
ATOM     24  O   UNL     1      -3.668   4.228  -4.800  0.00  0.00    -0.493 OA
ATOM     25  C   UNL     1      -4.064   4.425  -6.159  0.00  0.00    +0.277 C 
ENDBRANCH  23  24
ENDBRANCH  16  18
ENDBRANCH   3  14
BRANCH   5  26
ATOM     26  C   UNL     1       0.310  -0.428  -0.598  0.00  0.00    +0.098 C 
ATOM     27  N   UNL     1       0.596  -1.507  -0.809  0.00  0.00    -0.191 NA
ENDBRANCH   5  26
BRANCH   6  28
ATOM     28  S   UNL     1       2.605   1.313   0.043  0.00  0.00    -0.100 S 
BRANCH  28  29
ATOM     29  C   UNL     1       3.401   2.881   0.471  0.00  0.00    +0.171 C 
BRANCH  29  30
ATOM     30  C   UNL     1       4.889   2.673   0.590  0.00  0.00    +0.227 C 
ATOM     31  O   UNL     1       5.364   1.573   0.404  0.00  0.00    -0.275 OA
ATOM     32  N   UNL     1       5.691   3.710   0.904  0.00  0.00    -0.285 N 
ATOM     33  H   UNL     1       5.254   4.686   1.158  0.00  0.00    +0.155 HD
BRANCH  32  34
ATOM     34  C   UNL     1       7.080   3.543   0.906  0.00  0.00    +0.033 A 
ATOM     35  C   UNL     1       7.864   4.245   1.813  0.00  0.00    +0.023 A 
ATOM     36  C   UNL     1       9.234   4.074   1.817  0.00  0.00    +0.002 A 
ATOM     37  C   UNL     1       9.828   3.214   0.910  0.00  0.00    +0.000 A 
ATOM     38  C   UNL     1       9.051   2.518   0.003  0.00  0.00    +0.002 A 
ATOM     39  C   UNL     1       7.679   2.680  -0.002  0.00  0.00    +0.023 A 
ENDBRANCH  32  34
ENDBRANCH  29  30
ENDBRANCH  28  29
ENDBRANCH   6  28
TORSDOF 9
