REMARK  Name = ZINC38651793
REMARK  11 active torsions:
REMARK  status: ('A' for Active; 'I' for Inactive)
REMARK    1  A    between atoms: C_1  and  C_2
REMARK    2  A    between atoms: C_2  and  C_3
REMARK    3  A    between atoms: C_6  and  O_9
REMARK    4  A    between atoms: O_9  and  C_10
REMARK    5  A    between atoms: C_10  and  C_12
REMARK    6  A    between atoms: C_10  and  C_13
REMARK    7  A    between atoms: C_13  and  O_15
REMARK    8  A    between atoms: O_15  and  C_16
REMARK    9  A    between atoms: C_23  and  N_36
REMARK   10  A    between atoms: C_24  and  C_34
REMARK   11  A    between atoms: C_25  and  C_27
REMARK                            x       y       z     vdW  Elec       q    Type
REMARK                         _______ _______ _______ _____ _____    ______ ____
ROOT
ATOM      1  C   UNL     1       3.496  -1.694   9.012  0.00  0.00    +0.135 A 
ATOM      2  C   UNL     1       4.802  -1.419   8.632  0.00  0.00    +0.047 A 
ATOM      3  C   UNL     1       5.756  -1.144   9.592  0.00  0.00    +0.012 A 
ATOM      4  C   UNL     1       5.416  -1.142  10.933  0.00  0.00    +0.008 A 
ATOM      5  C   UNL     1       4.113  -1.417  11.318  0.00  0.00    +0.138 A 
ATOM      6  C   UNL     1       3.151  -1.688  10.353  0.00  0.00    +0.093 A 
ATOM      7  O   UNL     1       3.760  -1.420  12.627  0.00  0.00    -0.441 OA
ATOM      8  C   UNL     1       4.534  -0.798  13.531  0.00  0.00    +0.199 C 
ATOM      9  C   UNL     1       5.829  -0.494  13.278  0.00  0.00    +0.098 C 
ATOM     10  C   UNL     1       6.471  -0.841  11.964  0.00  0.00    +0.098 C 
ENDROOT
BRANCH  10  11
ATOM     11  C   UNL     1       7.353  -2.050  12.144  0.00  0.00    -0.035 A 
ATOM     12  C   UNL     1       6.806  -3.250  12.557  0.00  0.00    +0.005 A 
ATOM     13  C   UNL     1       7.614  -4.359  12.721  0.00  0.00    +0.015 A 
ATOM     14  C   UNL     1       8.972  -4.267  12.472  0.00  0.00    +0.018 A 
ATOM     15  C   UNL     1       9.519  -3.066  12.058  0.00  0.00    +0.015 A 
ATOM     16  C   UNL     1       8.709  -1.959  11.889  0.00  0.00    +0.005 A 
ATOM     17 BR   UNL     1      10.079  -5.784  12.696  0.00  0.00    -0.050 Br
ENDBRANCH  10  11
BRANCH   8  18
ATOM     18  N   UNL     1       3.996  -0.459  14.748  0.00  0.00    -0.328 N 
ATOM     19  H   UNL     1       3.070  -0.669  14.944  0.00  0.00    +0.145 HD
ATOM     20  H   UNL     1       4.542  -0.009  15.411  0.00  0.00    +0.145 HD
ENDBRANCH   8  18
BRANCH   9  21
ATOM     21  C   UNL     1       6.603   0.172  14.283  0.00  0.00    +0.101 C 
ATOM     22  N   UNL     1       7.216   0.700  15.079  0.00  0.00    -0.191 NA
ENDBRANCH   9  21
BRANCH   1  23
ATOM     23  O   UNL     1       2.556  -1.965   8.068  0.00  0.00    -0.423 OA
BRANCH  23  24
ATOM     24  C   UNL     1       2.691  -3.091   7.349  0.00  0.00    +0.353 C 
ATOM     25  O   UNL     1       3.572  -3.874   7.612  0.00  0.00    -0.246 OA
BRANCH  24  26
ATOM     26  C   UNL     1       1.742  -3.379   6.214  0.00  0.00    +0.279 C 
ATOM     27  C   UNL     1       0.311  -3.452   6.752  0.00  0.00    +0.064 C 
BRANCH  26  28
ATOM     28  O   UNL     1       2.088  -4.626   5.609  0.00  0.00    -0.478 OA
BRANCH  28  32
ATOM     29  C   UNL     1       1.486  -4.962   1.541  0.00  0.00    -0.047 A 
ATOM     30  C   UNL     1       1.054  -3.833   2.212  0.00  0.00    +0.007 A 
ATOM     31  C   UNL     1       1.254  -3.718   3.574  0.00  0.00    +0.046 A 
ATOM     32  C   UNL     1       1.889  -4.737   4.269  0.00  0.00    +0.122 A 
ATOM     33  C   UNL     1       2.322  -5.869   3.594  0.00  0.00    +0.046 A 
ATOM     34  C   UNL     1       2.115  -5.981   2.232  0.00  0.00    +0.007 A 
BRANCH  29  36
ATOM     35  C   UNL     1      -0.085  -5.751  -0.208  0.00  0.00    +0.009 C 
ATOM     36  C   UNL     1       1.267  -5.085   0.055  0.00  0.00    +0.032 C 
ENDBRANCH  29  36
ENDBRANCH  28  32
ENDBRANCH  26  28
ENDBRANCH  24  26
ENDBRANCH  23  24
ENDBRANCH   1  23
TORSDOF 9
