REMARK  Name = ZINC12608943
REMARK  13 active torsions:
REMARK  status: ('A' for Active; 'I' for Inactive)
REMARK    1  A    between atoms: C_1  and  C_2
REMARK    2  A    between atoms: C_2  and  N_3
REMARK    3  A    between atoms: C_7  and  C_9
REMARK    4  A    between atoms: C_9  and  C_11
REMARK    5  A    between atoms: C_9  and  S_12
REMARK    6  A    between atoms: S_12  and  C_13
REMARK    7  A    between atoms: C_16  and  C_24
REMARK    8  A    between atoms: N_17  and  C_18
REMARK    9  A    between atoms: C_27  and  N_30
REMARK   10  A    between atoms: N_30  and  C_31
REMARK   11  A    between atoms: N_30  and  C_33
REMARK   12  A    between atoms: C_31  and  C_32
REMARK   13  A    between atoms: C_33  and  C_34
REMARK                            x       y       z     vdW  Elec       q    Type
REMARK                         _______ _______ _______ _____ _____    ______ ____
ROOT
ATOM      1  C   UNL     1      -3.041   1.688  -0.215  0.00  0.00    +0.197 A 
ATOM      2  N   UNL     1      -2.393   2.536  -0.982  0.00  0.00    -0.122 NA
ATOM      3  N   UNL     1      -3.203   3.087  -1.814  0.00  0.00    -0.128 NA
ATOM      4  C   UNL     1      -4.420   2.635  -1.624  0.00  0.00    +0.169 A 
ATOM      5  N   UNL     1      -4.356   1.723  -0.592  0.00  0.00    -0.270 N 
ENDROOT
BRANCH   5   6
ATOM      6  C   UNL     1      -5.415   0.986  -0.045  0.00  0.00    +0.051 A 
ATOM      7  C   UNL     1      -6.038  -0.001  -0.797  0.00  0.00    +0.026 A 
ATOM      8  C   UNL     1      -7.078  -0.729  -0.253  0.00  0.00    +0.002 A 
ATOM      9  C   UNL     1      -7.506  -0.469   1.036  0.00  0.00    +0.000 A 
ATOM     10  C   UNL     1      -6.891   0.517   1.786  0.00  0.00    +0.002 A 
ATOM     11  C   UNL     1      -5.847   1.245   1.249  0.00  0.00    +0.026 A 
ENDBRANCH   5   6
BRANCH   4  12
ATOM     12  C   UNL     1      -5.631   3.028  -2.374  0.00  0.00    +0.020 A 
ATOM     13  C   UNL     1      -5.512   3.669  -3.609  0.00  0.00    +0.013 A 
ATOM     14  C   UNL     1      -6.643   4.030  -4.308  0.00  0.00    +0.024 A 
ATOM     15  C   UNL     1      -7.902   3.766  -3.781  0.00  0.00    +0.030 A 
ATOM     16  C   UNL     1      -8.024   3.133  -2.549  0.00  0.00    +0.024 A 
ATOM     17  C   UNL     1      -6.897   2.764  -1.847  0.00  0.00    +0.013 A 
BRANCH  15  18
ATOM     18  N   UNL     1      -9.045   4.137  -4.490  0.00  0.00    -0.330 N 
BRANCH  18  19
ATOM     19  C   UNL     1      -8.918   4.804  -5.788  0.00  0.00    +0.102 C 
ATOM     20  C   UNL     1      -8.882   3.753  -6.900  0.00  0.00    +0.024 C 
ENDBRANCH  18  19
BRANCH  18  21
ATOM     21  C   UNL     1     -10.373   3.860  -3.936  0.00  0.00    +0.102 C 
ATOM     22  C   UNL     1     -10.827   5.046  -3.083  0.00  0.00    +0.024 C 
ENDBRANCH  18  21
ENDBRANCH  15  18
ENDBRANCH   4  12
BRANCH   1  23
ATOM     23  S   UNL     1      -2.346   0.698   1.067  0.00  0.00    -0.073 S 
BRANCH  23  24
ATOM     24  C   UNL     1      -0.613   1.204   0.951  0.00  0.00    +0.137 C 
ATOM     25  C   UNL     1      -0.043   0.766  -0.400  0.00  0.00    +0.029 C 
BRANCH  24  30
ATOM     26  N   UNL     1       3.155   1.123   3.936  0.00  0.00    -0.299 N 
ATOM     27  C   UNL     1       2.017   0.551   3.495  0.00  0.00    +0.306 C 
ATOM     28  O   UNL     1       1.625  -0.486   3.994  0.00  0.00    -0.252 OA
ATOM     29  N   UNL     1       1.313   1.129   2.502  0.00  0.00    -0.239 N 
ATOM     30  C   UNL     1       0.175   0.557   2.062  0.00  0.00    +0.233 C 
ATOM     31  O   UNL     1      -0.216  -0.477   2.559  0.00  0.00    -0.274 OA
ATOM     32  H   UNL     1       3.468   1.950   3.538  0.00  0.00    +0.150 HD
ATOM     33  H   UNL     1       1.625   1.957   2.104  0.00  0.00    +0.159 HD
BRANCH  26  35
ATOM     34  C   UNL     1       5.158   1.339   5.322  0.00  0.00    +0.024 C 
ATOM     35  C   UNL     1       3.920   0.494   5.015  0.00  0.00    +0.102 C 
ENDBRANCH  26  35
ENDBRANCH  24  30
ENDBRANCH  23  24
ENDBRANCH   1  23
TORSDOF 9
