REMARK  Name = ZINC16572380
REMARK  10 active torsions:
REMARK  status: ('A' for Active; 'I' for Inactive)
REMARK    1  A    between atoms: C_1  and  C_2
REMARK    2  A    between atoms: C_2  and  C_3
REMARK    3  A    between atoms: C_8  and  N_9
REMARK    4  A    between atoms: N_12  and  C_13
REMARK    5  A    between atoms: C_13  and  C_15
REMARK    6  A    between atoms: C_13  and  C_20
REMARK    7  A    between atoms: C_15  and  C_17
REMARK    8  A    between atoms: C_15  and  C_18
REMARK    9  A    between atoms: C_18  and  C_19
REMARK   10  A    between atoms: C_26  and  C_28
REMARK                            x       y       z     vdW  Elec       q    Type
REMARK                         _______ _______ _______ _____ _____    ______ ____
ROOT
ATOM      1  C   UNL     1       0.594   3.193   0.432  0.00  0.00    +0.163 C 
ENDROOT
BRANCH   1   2
ATOM      2  C   UNL     1       2.009   3.366   0.919  0.00  0.00    +0.239 C 
ATOM      3  O   UNL     1       2.688   2.393   1.169  0.00  0.00    -0.273 OA
ATOM      4  N   UNL     1       2.521   4.603   1.078  0.00  0.00    -0.262 N 
ATOM      5  C   UNL     1       3.856   4.763   1.426  0.00  0.00    +0.188 A 
ATOM      6  N   UNL     1       4.793   3.851   1.655  0.00  0.00    -0.125 NA
ATOM      7  N   UNL     1       5.974   4.171   1.961  0.00  0.00    -0.140 NA
ATOM      8  C   UNL     1       6.347   5.439   2.084  0.00  0.00    +0.134 A 
ATOM      9  S   UNL     1       4.801   6.258   1.702  0.00  0.00    -0.030 S 
ATOM     10  H   UNL     1       1.956   5.381   0.949  0.00  0.00    +0.157 HD
BRANCH   8  11
ATOM     11  C   UNL     1       7.664   6.012   2.437  0.00  0.00    +0.009 A 
ATOM     12  C   UNL     1       7.831   7.396   2.503  0.00  0.00    +0.012 A 
ATOM     13  C   UNL     1       9.060   7.924   2.838  0.00  0.00    +0.016 A 
ATOM     14  C   UNL     1      10.130   7.084   3.097  0.00  0.00    +0.018 A 
ATOM     15  C   UNL     1       9.972   5.711   3.027  0.00  0.00    +0.016 A 
ATOM     16  C   UNL     1       8.746   5.171   2.698  0.00  0.00    +0.012 A 
ATOM     17 BR   UNL     1      11.814   7.817   3.548  0.00  0.00    -0.050 Br
ENDBRANCH   8  11
ENDBRANCH   1   2
BRANCH   1  21
ATOM     18  N   UNL     1      -1.218  -0.003   0.537  0.00  0.00    -0.269 N 
ATOM     19  C   UNL     1      -0.960   1.319   0.550  0.00  0.00    +0.304 C 
ATOM     20  O   UNL     1      -1.856   2.112   0.771  0.00  0.00    -0.252 OA
ATOM     21  N   UNL     1       0.290   1.764   0.313  0.00  0.00    -0.288 N 
ATOM     22  H   UNL     1      -0.527  -0.630   0.273  0.00  0.00    +0.156 HD
ATOM     23  H   UNL     1       0.988   1.139   0.064  0.00  0.00    +0.151 HD
BRANCH  18  29
ATOM     24  C   UNL     1      -2.927  -1.708   0.450  0.00  0.00    -0.026 A 
ATOM     25  C   UNL     1      -4.178  -2.168   0.815  0.00  0.00    +0.005 A 
ATOM     26  C   UNL     1      -4.988  -1.401   1.631  0.00  0.00    +0.000 A 
ATOM     27  C   UNL     1      -4.550  -0.170   2.085  0.00  0.00    +0.002 A 
ATOM     28  C   UNL     1      -3.299   0.294   1.728  0.00  0.00    +0.023 A 
ATOM     29  C   UNL     1      -2.485  -0.473   0.904  0.00  0.00    +0.038 A 
BRANCH  24  31
ATOM     30  C   UNL     1      -1.087  -3.370   0.423  0.00  0.00    +0.009 C 
ATOM     31  C   UNL     1      -2.045  -2.545  -0.439  0.00  0.00    +0.033 C 
ENDBRANCH  24  31
ENDBRANCH  18  29
ENDBRANCH   1  21
BRANCH   1  32
ATOM     32  C   UNL     1       0.439   3.862  -0.935  0.00  0.00    +0.015 C 
ATOM     33  C   UNL     1      -1.032   3.832  -1.355  0.00  0.00    +0.010 C 
BRANCH  32  34
ATOM     34  C   UNL     1       1.280   3.112  -1.969  0.00  0.00    +0.002 C 
ATOM     35  C   UNL     1       2.766   3.320  -1.666  0.00  0.00    +0.004 C 
ENDBRANCH  32  34
ENDBRANCH   1  32
TORSDOF 7
