REMARK  Name = ZINC18201017
REMARK  7 active torsions:
REMARK  status: ('A' for Active; 'I' for Inactive)
REMARK    1  A    between atoms: C_1  and  O_2
REMARK    2  A    between atoms: O_2  and  C_3
REMARK    3  A    between atoms: C_6  and  C_10
REMARK    4  A    between atoms: C_8  and  O_9
REMARK    5  A    between atoms: C_15  and  S_19
REMARK    6  A    between atoms: C_17  and  O_18
REMARK    7  A    between atoms: S_19  and  C_20
REMARK                            x       y       z     vdW  Elec       q    Type
REMARK                         _______ _______ _______ _____ _____    ______ ____
ROOT
ATOM      1  C   UNL     1      -1.324  -0.723   0.014  0.00  0.00    +0.092 C 
ATOM      2  C   UNL     1      -1.167  -2.156   0.423  0.00  0.00    +0.066 A 
ATOM      3  C   UNL     1       0.079  -2.770   0.394  0.00  0.00    +0.135 A 
ATOM      4  N   UNL     1       0.186  -4.043   0.759  0.00  0.00    -0.206 NA
ATOM      5  C   UNL     1      -0.882  -4.724   1.149  0.00  0.00    +0.193 A 
ATOM      6  N   UNL     1      -2.085  -4.169   1.191  0.00  0.00    -0.187 NA
ATOM      7  C   UNL     1      -2.264  -2.899   0.839  0.00  0.00    +0.222 A 
ATOM      8  N   UNL     1       1.190  -2.050  -0.013  0.00  0.00    -0.302 N 
ATOM      9  C   UNL     1       1.169  -0.683  -0.022  0.00  0.00    +0.017 C 
ATOM     10  C   UNL     1       0.002  -0.004   0.002  0.00  0.00    +0.024 C 
ATOM     11  C   UNL     1      -0.017   1.402   0.010  0.00  0.00    +0.162 C 
ATOM     12  O   UNL     1      -1.085   1.983   0.018  0.00  0.00    -0.292 OA
ATOM     13  C   UNL     1       1.256   2.202   0.002  0.00  0.00    +0.080 C 
ATOM     14  C   UNL     1       2.365   1.382   0.670  0.00  0.00    +0.014 C 
ATOM     15  C   UNL     1       2.490   0.046  -0.066  0.00  0.00    +0.051 C 
ATOM     16  H   UNL     1       1.990  -2.521  -0.295  0.00  0.00    +0.153 HD
ENDROOT
BRANCH   1  20
ATOM     17  C   UNL     1      -3.029  -0.571  -3.905  0.00  0.00    +0.161 A 
ATOM     18  C   UNL     1      -1.797  -1.174  -3.705  0.00  0.00    +0.050 A 
ATOM     19  C   UNL     1      -1.248  -1.221  -2.437  0.00  0.00    +0.008 A 
ATOM     20  C   UNL     1      -1.926  -0.668  -1.367  0.00  0.00    -0.032 A 
ATOM     21  C   UNL     1      -3.158  -0.070  -1.558  0.00  0.00    +0.053 A 
ATOM     22  C   UNL     1      -3.711  -0.014  -2.828  0.00  0.00    +0.159 A 
BRANCH  17  24
ATOM     23  C   UNL     1      -2.814  -1.115  -6.210  0.00  0.00    +0.277 C 
ATOM     24  O   UNL     1      -3.570  -0.524  -5.152  0.00  0.00    -0.491 OA
ENDBRANCH  17  24
BRANCH  22  25
ATOM     25  O   UNL     1      -4.920   0.578  -3.019  0.00  0.00    -0.503 OA
ATOM     26  H   UNL     1      -5.671  -0.023  -2.929  0.00  0.00    +0.292 HD
ENDBRANCH  22  25
ENDBRANCH   1  20
BRANCH   7  27
ATOM     27  O   UNL     1      -3.498  -2.340   0.884  0.00  0.00    -0.492 OA
ATOM     28  H   UNL     1      -4.001  -2.429   0.063  0.00  0.00    +0.294 HD
ENDBRANCH   7  27
BRANCH   5  29
ATOM     29  S   UNL     1      -0.699  -6.411   1.623  0.00  0.00    -0.089 S 
ATOM     30  C   UNL     1      -2.415  -6.809   2.040  0.00  0.00    +0.093 C 
ENDBRANCH   5  29
TORSDOF 5
