REMARK  Name = ZINC23982539
REMARK  7 active torsions:
REMARK  status: ('A' for Active; 'I' for Inactive)
REMARK    1  A    between atoms: C_1  and  C_2
REMARK    2  A    between atoms: C_2  and  C_23
REMARK    3  A    between atoms: N_5  and  C_9
REMARK    4  A    between atoms: C_9  and  C_10
REMARK    5  A    between atoms: C_12  and  C_15
REMARK    6  A    between atoms: C_18  and  O_21
REMARK    7  A    between atoms: O_21  and  C_22
REMARK                            x       y       z     vdW  Elec       q    Type
REMARK                         _______ _______ _______ _____ _____    ______ ____
ROOT
ATOM      1  C   UNL     1       2.866  -2.714  -1.225  0.00  0.00    +0.047 C 
ATOM      2  C   UNL     1       3.669  -2.162  -0.046  0.00  0.00    +0.136 C 
ATOM      3  C   UNL     1       3.180  -2.759   1.259  0.00  0.00    +0.251 C 
ATOM      4  O   UNL     1       2.071  -2.660   1.739  0.00  0.00    -0.272 OA
ATOM      5  N   UNL     1       4.234  -3.422   1.774  0.00  0.00    -0.215 N 
ATOM      6  C   UNL     1       5.310  -3.328   0.984  0.00  0.00    +0.310 C 
ATOM      7  O   UNL     1       6.381  -3.844   1.237  0.00  0.00    -0.252 OA
ATOM      8  N   UNL     1       5.074  -2.599  -0.126  0.00  0.00    -0.281 N 
ATOM      9  H   UNL     1       5.692  -2.309  -0.988  0.00  0.00    +0.152 HD
ENDROOT
BRANCH   2  10
ATOM     10  C   UNL     1       3.584  -0.658  -0.006  0.00  0.00    -0.008 A 
ATOM     11  C   UNL     1       4.715   0.094  -0.091  0.00  0.00    +0.007 A 
ATOM     12  C   UNL     1       4.656   1.486  -0.057  0.00  0.00    +0.001 A 
ATOM     13  C   UNL     1       3.465   2.134   0.063  0.00  0.00    +0.008 A 
ATOM     14  C   UNL     1       2.276   1.391   0.153  0.00  0.00    -0.018 A 
ATOM     15  C   UNL     1       2.336  -0.024   0.118  0.00  0.00    -0.012 A 
ATOM     16  C   UNL     1       1.146  -0.767   0.208  0.00  0.00    +0.009 A 
ATOM     17  C   UNL     1      -0.045  -0.119   0.327  0.00  0.00    +0.001 A 
ATOM     18  C   UNL     1      -0.104   1.273   0.362  0.00  0.00    +0.001 A 
ATOM     19  C   UNL     1       1.027   2.025   0.278  0.00  0.00    +0.008 A 
ENDBRANCH   2  10
BRANCH   5  20
ATOM     20  C   UNL     1       4.206  -4.156   3.041  0.00  0.00    +0.216 C 
BRANCH  20  21
ATOM     21  C   UNL     1       3.793  -5.582   2.787  0.00  0.00    +0.246 A 
ATOM     22  N   UNL     1       4.590  -6.587   2.523  0.00  0.00    -0.190 NA
ATOM     23  C   UNL     1       3.782  -7.661   2.370  0.00  0.00    +0.202 A 
ATOM     24  N   UNL     1       2.554  -7.249   2.548  0.00  0.00    -0.056 NA
ATOM     25  O   UNL     1       2.545  -6.061   2.793  0.00  0.00    -0.336 OA
BRANCH  23  26
ATOM     26  C   UNL     1       4.210  -9.047   2.058  0.00  0.00    +0.023 A 
ATOM     27  C   UNL     1       5.562  -9.340   1.889  0.00  0.00    +0.015 A 
ATOM     28  C   UNL     1       5.956 -10.630   1.606  0.00  0.00    +0.046 A 
ATOM     29  C   UNL     1       5.007 -11.636   1.477  0.00  0.00    +0.120 A 
ATOM     30  C   UNL     1       3.659 -11.346   1.639  0.00  0.00    +0.046 A 
ATOM     31  C   UNL     1       3.259 -10.059   1.929  0.00  0.00    +0.015 A 
BRANCH  29  32
ATOM     32  O   UNL     1       5.398 -12.905   1.191  0.00  0.00    -0.495 OA
ATOM     33  C   UNL     1       6.800 -13.132   1.037  0.00  0.00    +0.277 C 
ENDBRANCH  29  32
ENDBRANCH  23  26
ENDBRANCH  20  21
ENDBRANCH   5  20
TORSDOF 5
