REMARK  Name = ZINC24960406
REMARK  10 active torsions:
REMARK  status: ('A' for Active; 'I' for Inactive)
REMARK    1  A    between atoms: C_1  and  C_2
REMARK    2  A    between atoms: C_2  and  C_3
REMARK    3  A    between atoms: C_2  and  C_4
REMARK    4  A    between atoms: C_4  and  C_6
REMARK    5  A    between atoms: C_4  and  N_26
REMARK    6  A    between atoms: N_8  and  C_9
REMARK    7  A    between atoms: C_12  and  N_15
REMARK    8  A    between atoms: N_15  and  S_16
REMARK    9  A    between atoms: S_16  and  C_19
REMARK   10  A    between atoms: C_27  and  C_29
REMARK                            x       y       z     vdW  Elec       q    Type
REMARK                         _______ _______ _______ _____ _____    ______ ____
ROOT
ATOM      1  C   UNL     1       6.280  -0.416  -4.266  0.00  0.00    +0.238 C 
ATOM      2  O   UNL     1       5.844   0.350  -3.433  0.00  0.00    -0.273 OA
ATOM      3  N   UNL     1       5.726  -1.635  -4.415  0.00  0.00    -0.284 N 
ATOM      4  H   UNL     1       6.173  -2.361  -5.110  0.00  0.00    +0.155 HD
ENDROOT
BRANCH   3   5
ATOM      5  C   UNL     1       4.580  -1.978  -3.685  0.00  0.00    +0.034 A 
ATOM      6  C   UNL     1       3.635  -1.008  -3.380  0.00  0.00    +0.025 A 
ATOM      7  C   UNL     1       2.505  -1.345  -2.662  0.00  0.00    +0.026 A 
ATOM      8  C   UNL     1       2.314  -2.656  -2.244  0.00  0.00    +0.048 A 
ATOM      9  C   UNL     1       3.262  -3.626  -2.545  0.00  0.00    +0.026 A 
ATOM     10  C   UNL     1       4.389  -3.289  -3.268  0.00  0.00    +0.025 A 
BRANCH   8  11
ATOM     11  N   UNL     1       1.170  -2.999  -1.516  0.00  0.00    -0.216 N 
ATOM     12  H   UNL     1       1.244  -3.196  -0.436  0.00  0.00    +0.174 HD
BRANCH  11  13
ATOM     13  S   UNL     1      -0.296  -3.107  -2.279  0.00  0.00    +0.072 S 
ATOM     14  O   UNL     1      -0.466  -1.897  -3.004  0.00  0.00    -0.150 OA
ATOM     15  O   UNL     1      -1.230  -3.549  -1.304  0.00  0.00    -0.150 OA
BRANCH  13  16
ATOM     16  C   UNL     1      -0.167  -4.396  -3.473  0.00  0.00    +0.109 A 
ATOM     17  C   UNL     1      -0.374  -5.710  -3.096  0.00  0.00    +0.031 A 
ATOM     18  C   UNL     1      -0.274  -6.722  -4.032  0.00  0.00    +0.040 A 
ATOM     19  C   UNL     1       0.035  -6.420  -5.348  0.00  0.00    +0.124 A 
ATOM     20  C   UNL     1       0.242  -5.103  -5.724  0.00  0.00    +0.040 A 
ATOM     21  C   UNL     1       0.141  -4.093  -4.786  0.00  0.00    +0.031 A 
ATOM     22  F   UNL     1       0.134  -7.408  -6.263  0.00  0.00    -0.205 F 
ENDBRANCH  13  16
ENDBRANCH  11  13
ENDBRANCH   8  11
ENDBRANCH   3   5
BRANCH   1  23
ATOM     23  C   UNL     1       7.441  -0.004  -5.134  0.00  0.00    +0.162 C 
BRANCH  23  24
ATOM     24  N   UNL     1       7.859   1.354  -4.779  0.00  0.00    -0.304 N 
ATOM     25  C   UNL     1       8.495   2.122  -5.686  0.00  0.00    +0.217 C 
ATOM     26  O   UNL     1       8.722   1.689  -6.795  0.00  0.00    -0.275 OA
ATOM     27  H   UNL     1       7.653   1.748  -3.772  0.00  0.00    +0.149 HD
BRANCH  25  28
ATOM     28  C   UNL     1       8.925   3.520  -5.320  0.00  0.00    +0.075 C 
ATOM     29  C   UNL     1       7.697   4.346  -4.933  0.00  0.00    +0.013 C 
ATOM     30  C   UNL     1       8.133   5.765  -4.562  0.00  0.00    +0.001 C 
ATOM     31  C   UNL     1       8.826   6.415  -5.761  0.00  0.00    +0.000 C 
ATOM     32  C   UNL     1      10.055   5.589  -6.149  0.00  0.00    +0.001 C 
ATOM     33  C   UNL     1       9.618   4.170  -6.519  0.00  0.00    +0.013 C 
ENDBRANCH  25  28
ENDBRANCH  23  24
BRANCH  23  35
ATOM     34  C   UNL     1       9.787  -0.552  -5.797  0.00  0.00    +0.009 C 
ATOM     35  C   UNL     1       8.608  -0.970  -4.916  0.00  0.00    +0.012 C 
ATOM     36  C   UNL     1       9.032  -0.934  -3.446  0.00  0.00    +0.009 C 
ENDBRANCH  23  35
ENDBRANCH   1  23
TORSDOF 8
