REMARK  Name = ZINC27066294
REMARK  6 active torsions:
REMARK  status: ('A' for Active; 'I' for Inactive)
REMARK    1  A    between atoms: C_1  and  C_2
REMARK    2  A    between atoms: C_4  and  S_22
REMARK    3  A    between atoms: C_6  and  N_9
REMARK    4  A    between atoms: C_7  and  C_8
REMARK    5  A    between atoms: C_10  and  C_11
REMARK    6  A    between atoms: S_22  and  N_25
REMARK                            x       y       z     vdW  Elec       q    Type
REMARK                         _______ _______ _______ _____ _____    ______ ____
ROOT
ATOM      1  C   UNL     1      -4.181  -0.546  -4.596  0.00  0.00    +0.044 C 
ATOM      2  C   UNL     1      -2.778  -0.003  -4.688  0.00  0.00    -0.044 A 
ATOM      3  C   UNL     1      -2.217   0.255  -5.926  0.00  0.00    +0.032 A 
ATOM      4  C   UNL     1      -0.930   0.753  -6.020  0.00  0.00    +0.107 A 
ATOM      5  C   UNL     1      -0.196   0.995  -4.877  0.00  0.00    +0.056 A 
ATOM      6  C   UNL     1      -0.756   0.737  -3.624  0.00  0.00    +0.069 A 
ATOM      7  C   UNL     1      -2.054   0.229  -3.538  0.00  0.00    -0.022 A 
ATOM      8  C   UNL     1      -2.664  -0.059  -2.190  0.00  0.00    +0.046 C 
ENDROOT
BRANCH   4   9
ATOM      9  S   UNL     1      -0.226   1.077  -7.602  0.00  0.00    +0.056 S 
ATOM     10  O   UNL     1      -1.312   1.281  -8.496  0.00  0.00    -0.153 OA
ATOM     11  O   UNL     1       0.790   2.051  -7.403  0.00  0.00    -0.153 OA
BRANCH   9  12
ATOM     12  N   UNL     1       0.536  -0.309  -8.092  0.00  0.00    -0.204 NA
ATOM     13  H   UNL     1       0.991  -0.147  -9.081  0.00  0.00    +0.144 HD
ATOM     14  H   UNL     1      -0.196  -1.127  -8.155  0.00  0.00    +0.144 HD
ENDBRANCH   9  12
ENDBRANCH   4   9
BRANCH   6  15
ATOM     15  N   UNL     1      -0.033   0.975  -2.486  0.00  0.00    -0.254 NA
ATOM     16  C   UNL     1       0.592   2.109  -2.337  0.00  0.00    +0.124 C 
BRANCH  16  17
ATOM     17  C   UNL     1       1.461   2.321  -1.170  0.00  0.00    +0.058 A 
ATOM     18  C   UNL     1       2.131   3.528  -1.003  0.00  0.00    +0.024 A 
ATOM     19  C   UNL     1       2.950   3.679   0.129  0.00  0.00    -0.001 A 
ATOM     20  C   UNL     1       3.656   4.872   0.361  0.00  0.00    +0.010 A 
ATOM     21  C   UNL     1       4.440   4.985   1.468  0.00  0.00    +0.001 A 
ATOM     22  C   UNL     1       4.552   3.934   2.375  0.00  0.00    +0.002 A 
ATOM     23  C   UNL     1       3.882   2.765   2.182  0.00  0.00    +0.026 A 
ATOM     24  C   UNL     1       3.062   2.608   1.051  0.00  0.00    +0.049 A 
ATOM     25  N   UNL     1       2.391   1.468   0.846  0.00  0.00    -0.322 N 
ATOM     26  C   UNL     1       1.623   1.298  -0.206  0.00  0.00    +0.258 A 
ATOM     27  O   UNL     1       0.970   0.123  -0.368  0.00  0.00    -0.267 OA
ATOM     28  H   UNL     1       2.475   0.643   1.569  0.00  0.00    +0.169 HD
ENDBRANCH  16  17
ENDBRANCH   6  15
TORSDOF 4
