REMARK  Name = ZINC02223816
REMARK  8 active torsions:
REMARK  status: ('A' for Active; 'I' for Inactive)
REMARK    1  A    between atoms: C_1  and  C_2
REMARK    2  A    between atoms: C_2  and  C_3
REMARK    3  A    between atoms: C_3  and  C_4
REMARK    4  A    between atoms: C_12  and  N_30
REMARK    5  A    between atoms: C_14  and  S_16
REMARK    6  A    between atoms: S_16  and  C_17
REMARK    7  A    between atoms: C_17  and  C_18
REMARK    8  A    between atoms: C_18  and  N_19
REMARK                            x       y       z     vdW  Elec       q    Type
REMARK                         _______ _______ _______ _____ _____    ______ ____
ROOT
ATOM      1  C   UNL     1       2.237   1.352   1.587  0.00  0.00    +0.123 C 
ATOM      2  C   UNL     1       1.239   2.190   0.783  0.00  0.00    +0.068 C 
ATOM      3  C   UNL     1      -0.074   1.415   0.699  0.00  0.00    -0.020 A 
ATOM      4  C   UNL     1      -0.079   0.086   0.960  0.00  0.00    +0.021 A 
ATOM      5  S   UNL     1      -1.764  -0.424   0.756  0.00  0.00    -0.071 S 
ATOM      6  C   UNL     1      -2.462   1.137   0.322  0.00  0.00    +0.115 A 
ATOM      7  C   UNL     1      -1.347   2.016   0.344  0.00  0.00    +0.051 A 
ATOM      8  C   UNL     1      -1.599   3.384   0.034  0.00  0.00    +0.129 A 
ATOM      9  N   UNL     1      -2.860   3.694  -0.256  0.00  0.00    -0.207 NA
ATOM     10  C   UNL     1      -3.854   2.818  -0.263  0.00  0.00    +0.191 A 
ATOM     11  N   UNL     1      -3.685   1.525   0.024  0.00  0.00    -0.215 NA
ATOM     12  C   UNL     1       1.107  -0.746   1.336  0.00  0.00    +0.203 C 
ATOM     13  O   UNL     1       2.291   0.021   1.067  0.00  0.00    -0.371 OA
ENDROOT
BRANCH   8  14
ATOM     14  N   UNL     1      -0.592   4.331   0.030  0.00  0.00    -0.343 N 
ATOM     15  H   UNL     1      -0.812   5.274  -0.037  0.00  0.00    +0.144 HD
ATOM     16  H   UNL     1       0.336   4.054   0.093  0.00  0.00    +0.144 HD
ENDBRANCH   8  14
BRANCH   1  17
ATOM     17  C   UNL     1       3.624   1.991   1.492  0.00  0.00    +0.031 C 
BRANCH  17  19
ATOM     18  C   UNL     1       5.982   1.877   2.309  0.00  0.00    +0.004 C 
ATOM     19  C   UNL     1       4.595   1.238   2.404  0.00  0.00    -0.001 C 
ENDBRANCH  17  19
ENDBRANCH   1  17
BRANCH  10  20
ATOM     20  S   UNL     1      -5.472   3.385  -0.669  0.00  0.00    -0.084 S 
BRANCH  20  21
ATOM     21  C   UNL     1      -5.128   5.139  -0.953  0.00  0.00    +0.097 C 
BRANCH  21  22
ATOM     22  C   UNL     1      -6.424   5.859  -1.331  0.00  0.00    +0.128 C 
BRANCH  22  23
ATOM     23  N   UNL     1      -6.145   7.279  -1.561  0.00  0.00    -0.233 N 
ATOM     24  C   UNL     1      -6.200   8.229  -0.611  0.00  0.00    +0.254 C 
ATOM     25  O   UNL     1      -6.484   8.049   0.556  0.00  0.00    -0.270 OA
ATOM     26  C   UNL     1      -5.855   9.529  -1.225  0.00  0.00    +0.049 A 
ATOM     27  C   UNL     1      -5.748  10.826  -0.748  0.00  0.00    +0.014 A 
ATOM     28  C   UNL     1      -5.398  11.849  -1.615  0.00  0.00    +0.001 A 
ATOM     29  C   UNL     1      -5.155  11.585  -2.950  0.00  0.00    +0.001 A 
ATOM     30  C   UNL     1      -5.259  10.293  -3.441  0.00  0.00    +0.014 A 
ATOM     31  C   UNL     1      -5.608   9.259  -2.586  0.00  0.00    +0.049 A 
ATOM     32  C   UNL     1      -5.806   7.804  -2.752  0.00  0.00    +0.254 C 
ATOM     33  O   UNL     1      -5.684   7.186  -3.791  0.00  0.00    -0.270 OA
ENDBRANCH  22  23
ENDBRANCH  21  22
ENDBRANCH  20  21
ENDBRANCH  10  20
TORSDOF 7
