REMARK  Name = ZINC21228651
REMARK  8 active torsions:
REMARK  status: ('A' for Active; 'I' for Inactive)
REMARK    1  A    between atoms: C_1  and  C_2
REMARK    2  A    between atoms: C_2  and  C_3
REMARK    3  A    between atoms: C_6  and  C_9
REMARK    4  A    between atoms: C_14  and  C_24
REMARK    5  A    between atoms: C_26  and  O_32
REMARK    6  A    between atoms: C_29  and  O_30
REMARK    7  A    between atoms: O_30  and  C_31
REMARK    8  A    between atoms: O_32  and  C_33
REMARK                            x       y       z     vdW  Elec       q    Type
REMARK                         _______ _______ _______ _____ _____    ______ ____
ROOT
ATOM      1  C   UNL     1      -1.294   2.169   0.218  0.00  0.00    +0.032 C 
ATOM      2  C   UNL     1      -1.466   3.055   1.452  0.00  0.00    +0.059 C 
ATOM      3  C   UNL     1      -2.798   3.783   1.381  0.00  0.00    +0.017 C 
ATOM      4  C   UNL     1      -3.306   4.158   0.196  0.00  0.00    +0.037 C 
ATOM      5  C   UNL     1      -4.601   4.904  -0.018  0.00  0.00    +0.140 C 
ATOM      6  N   UNL     1      -5.446   4.984   1.155  0.00  0.00    -0.331 N 
ATOM      7  C   UNL     1      -5.038   5.681   2.291  0.00  0.00    +0.049 A 
ATOM      8  C   UNL     1      -5.669   6.849   2.688  0.00  0.00    +0.025 A 
ATOM      9  C   UNL     1      -5.162   7.565   3.759  0.00  0.00    +0.002 A 
ATOM     10  C   UNL     1      -4.037   7.120   4.429  0.00  0.00    +0.002 A 
ATOM     11  C   UNL     1      -3.418   5.942   4.049  0.00  0.00    +0.025 A 
ATOM     12  C   UNL     1      -3.933   5.216   2.989  0.00  0.00    +0.052 A 
ATOM     13  N   UNL     1      -3.388   4.003   2.584  0.00  0.00    -0.316 N 
ATOM     14  C   UNL     1      -2.621   3.847  -1.003  0.00  0.00    +0.163 C 
ATOM     15  O   UNL     1      -3.093   4.218  -2.060  0.00  0.00    -0.292 OA
ATOM     16  C   UNL     1      -1.335   3.076  -1.017  0.00  0.00    +0.088 C 
ATOM     17  H   UNL     1      -6.429   4.490   1.159  0.00  0.00    +0.147 HD
ATOM     18  H   UNL     1      -3.460   3.188   3.319  0.00  0.00    +0.152 HD
ENDROOT
BRANCH   1  22
ATOM     19  C   UNL     1       2.465   0.146   0.390  0.00  0.00    -0.048 A 
ATOM     20  C   UNL     1       1.290  -0.581   0.347  0.00  0.00    +0.004 A 
ATOM     21  C   UNL     1       0.073   0.074   0.294  0.00  0.00    +0.004 A 
ATOM     22  C   UNL     1       0.032   1.455   0.284  0.00  0.00    -0.043 A 
ATOM     23  C   UNL     1       1.207   2.182   0.327  0.00  0.00    +0.004 A 
ATOM     24  C   UNL     1       2.423   1.528   0.379  0.00  0.00    +0.004 A 
BRANCH  19  26
ATOM     25  C   UNL     1       4.298  -0.819  -0.973  0.00  0.00    +0.009 C 
ATOM     26  C   UNL     1       3.791  -0.568   0.449  0.00  0.00    +0.032 C 
ENDBRANCH  19  26
ENDBRANCH   1  22
BRANCH   5  27
ATOM     27  C   UNL     1      -4.277   6.305  -0.470  0.00  0.00    +0.022 A 
ATOM     28  C   UNL     1      -3.036   6.848  -0.201  0.00  0.00    +0.055 A 
ATOM     29  C   UNL     1      -2.738   8.137  -0.618  0.00  0.00    +0.121 A 
ATOM     30  C   UNL     1      -3.686   8.880  -1.305  0.00  0.00    +0.049 A 
ATOM     31  C   UNL     1      -4.927   8.337  -1.574  0.00  0.00    +0.049 A 
ATOM     32  C   UNL     1      -5.223   7.046  -1.162  0.00  0.00    +0.126 A 
BRANCH  32  33
ATOM     33  O   UNL     1      -6.443   6.509  -1.432  0.00  0.00    -0.495 OA
ATOM     34  C   UNL     1      -7.369   7.329  -2.148  0.00  0.00    +0.277 C 
ENDBRANCH  32  33
BRANCH  29  35
ATOM     35  O   UNL     1      -1.516   8.672  -0.353  0.00  0.00    -0.495 OA
ATOM     36  C   UNL     1      -1.278  10.004  -0.811  0.00  0.00    +0.277 C 
ENDBRANCH  29  35
ENDBRANCH   5  27
TORSDOF 5
