REMARK  Name = ZINC02066620
REMARK  6 active torsions:
REMARK  status: ('A' for Active; 'I' for Inactive)
REMARK    1  A    between atoms: C_1  and  C_2
REMARK    2  A    between atoms: C_2  and  C_30
REMARK    3  A    between atoms: C_4  and  N_62
REMARK    4  A    between atoms: N_9  and  C_19
REMARK    5  A    between atoms: P_10  and  N_12
REMARK    6  A    between atoms: N_12  and  C_13
REMARK                            x       y       z     vdW  Elec       q    Type
REMARK                         _______ _______ _______ _____ _____    ______ ____
ROOT
ATOM      1  C   UNL     1       2.809   6.729   0.019  0.00  0.00    +0.015 C 
ATOM      2  C   UNL     1       1.559   6.471  -0.824  0.00  0.00    -0.010 C 
ATOM      3  C   UNL     1       0.426   6.054   0.100  0.00  0.00    +0.060 C 
ATOM      4  C   UNL     1       0.583   4.627   0.579  0.00  0.00    +0.007 C 
ATOM      5  C   UNL     1       1.159   3.771  -0.241  0.00  0.00    +0.085 C 
ATOM      6  C   UNL     1       1.738   4.136  -1.562  0.00  0.00    +0.056 C 
ATOM      7  C   UNL     1       1.887   5.440  -1.871  0.00  0.00    +0.005 C 
ATOM      8  N   UNL     1       2.111   3.028  -2.285  0.00  0.00    -0.257 N 
ATOM      9  N   UNL     1       2.137   1.769  -1.673  0.00  0.00    -0.182 N 
ATOM     10  P   UNL     1       1.475   1.984  -0.162  0.00  0.00    +0.296 P 
ATOM     11  O   UNL     1       2.443   1.652   0.907  0.00  0.00    -0.272 OA
ATOM     12  C   UNL     1       1.163   7.772  -1.524  0.00  0.00    +0.015 C 
ATOM     13  H   UNL     1       2.355   3.119  -3.219  0.00  0.00    +0.171 HD
ENDROOT
BRANCH   4  19
ATOM     14  C   UNL     1       1.084   3.732   2.834  0.00  0.00    +0.085 C 
ATOM     15  C   UNL     1       0.907   4.548   4.123  0.00  0.00    +0.017 C 
ATOM     16  C   UNL     1      -0.560   4.495   4.556  0.00  0.00    +0.003 C 
ATOM     17  C   UNL     1      -1.438   5.118   3.468  0.00  0.00    +0.017 C 
ATOM     18  C   UNL     1      -1.286   4.314   2.173  0.00  0.00    +0.085 C 
ATOM     19  N   UNL     1       0.187   4.570   1.950  0.00  0.00    -0.396 NA
ATOM     20  H   UNL     1       0.331   5.531   2.281  0.00  0.00    +0.126 HD
ENDBRANCH   4  19
BRANCH   9  21
ATOM     21  C   UNL     1       2.621   0.577  -2.218  0.00  0.00    +0.056 A 
ATOM     22  C   UNL     1       2.683  -0.570  -1.437  0.00  0.00    +0.025 A 
ATOM     23  C   UNL     1       3.158  -1.748  -1.980  0.00  0.00    +0.002 A 
ATOM     24  C   UNL     1       3.580  -1.783  -3.296  0.00  0.00    +0.000 A 
ATOM     25  C   UNL     1       3.525  -0.642  -4.075  0.00  0.00    +0.002 A 
ATOM     26  C   UNL     1       3.046   0.538  -3.539  0.00  0.00    +0.025 A 
ENDBRANCH   9  21
BRANCH  10  27
ATOM     27  N   UNL     1       0.082   1.135   0.010  0.00  0.00    -0.276 N 
ATOM     28  H   UNL     1      -0.074   0.617   0.815  0.00  0.00    +0.155 HD
BRANCH  27  29
ATOM     29  C   UNL     1      -0.882   1.162  -1.001  0.00  0.00    +0.034 A 
ATOM     30  C   UNL     1      -0.765   2.066  -2.049  0.00  0.00    +0.023 A 
ATOM     31  C   UNL     1      -1.718   2.087  -3.049  0.00  0.00    +0.002 A 
ATOM     32  C   UNL     1      -2.792   1.217  -3.002  0.00  0.00    +0.000 A 
ATOM     33  C   UNL     1      -2.913   0.320  -1.957  0.00  0.00    +0.002 A 
ATOM     34  C   UNL     1      -1.962   0.290  -0.956  0.00  0.00    +0.023 A 
ENDBRANCH  27  29
ENDBRANCH  10  27
TORSDOF 4
