REMARK  Name = ZINC53263585
REMARK  4 active torsions:
REMARK  status: ('A' for Active; 'I' for Inactive)
REMARK    1  A    between atoms: C_1  and  C_2
REMARK    2  A    between atoms: N_16  and  C_17
REMARK    3  A    between atoms: C_17  and  C_18
REMARK    4  A    between atoms: C_20  and  N_28
REMARK                            x       y       z     vdW  Elec       q    Type
REMARK                         _______ _______ _______ _____ _____    ______ ____
ROOT
ATOM      1  C   UNL     1      -0.019   1.526   0.010  0.00  0.00    +0.031 C 
ATOM      2  C   UNL     1       0.002  -0.004   0.002  0.00  0.00    +0.101 C 
ATOM      3  C   UNL     1       0.717  -0.495  -1.234  0.00  0.00    +0.037 A 
ATOM      4  C   UNL     1       1.617  -1.505  -1.214  0.00  0.00    -0.016 A 
ATOM      5  C   UNL     1       2.086  -1.688  -2.569  0.00  0.00    +0.003 A 
ATOM      6  C   UNL     1       3.005  -2.568  -3.147  0.00  0.00    +0.010 A 
ATOM      7  C   UNL     1       3.209  -2.454  -4.500  0.00  0.00    +0.001 A 
ATOM      8  C   UNL     1       2.541  -1.516  -5.269  0.00  0.00    +0.002 A 
ATOM      9  C   UNL     1       1.625  -0.632  -4.724  0.00  0.00    +0.026 A 
ATOM     10  C   UNL     1       1.398  -0.724  -3.352  0.00  0.00    +0.047 A 
ATOM     11  N   UNL     1       0.580  -0.024  -2.512  0.00  0.00    -0.356 N 
ATOM     12  H   UNL     1      -0.009   0.699  -2.780  0.00  0.00    +0.166 HD
ATOM     13  C   UNL     1       2.000  -2.251   0.040  0.00  0.00    +0.053 C 
ATOM     14  C   UNL     1       0.947  -1.947   1.114  0.00  0.00    +0.090 C 
ATOM     15  N   UNL     1       0.722  -0.495   1.188  0.00  0.00    -0.290 NA
ENDROOT
BRANCH  15  16
ATOM     16  C   UNL     1       0.013  -0.131   2.422  0.00  0.00    +0.124 C 
BRANCH  16  17
ATOM     17  C   UNL     1       0.890  -0.428   3.611  0.00  0.00    +0.011 A 
ATOM     18  C   UNL     1       0.694  -1.584   4.342  0.00  0.00    +0.041 A 
ATOM     19  C   UNL     1       1.498  -1.858   5.433  0.00  0.00    +0.127 A 
ATOM     20  C   UNL     1       2.497  -0.975   5.796  0.00  0.00    +0.042 A 
ATOM     21  C   UNL     1       2.697   0.184   5.070  0.00  0.00    +0.022 A 
ATOM     22  C   UNL     1       1.898   0.456   3.970  0.00  0.00    +0.133 A 
ATOM     23  O   UNL     1       2.093   1.585   3.236  0.00  0.00    -0.466 OA
ATOM     24  C   UNL     1       2.877   2.619   3.838  0.00  0.00    +0.394 C 
ATOM     25  O   UNL     1       4.064   2.033   4.387  0.00  0.00    -0.339 OA
ATOM     26  C   UNL     1       3.787   1.142   5.478  0.00  0.00    +0.202 C 
BRANCH  19  27
ATOM     27  N   UNL     1       1.287  -3.098   6.214  0.00  0.00    +0.056 N 
ATOM     28  O   UNL     1       0.413  -3.870   5.897  0.00  0.00    -0.126 OA
ATOM     29  O   UNL     1       1.989  -3.337   7.168  0.00  0.00    -0.126 OA
ENDBRANCH  19  27
ENDBRANCH  16  17
ENDBRANCH  15  16
TORSDOF 3
