REMARK  Name = ZINC62325880
REMARK  2 active torsions:
REMARK  status: ('A' for Active; 'I' for Inactive)
REMARK    1  A    between atoms: C_1  and  C_2
REMARK    2  A    between atoms: C_8  and  N_10
REMARK                            x       y       z     vdW  Elec       q    Type
REMARK                         _______ _______ _______ _____ _____    ______ ____
ROOT
ATOM      1  N   UNL     1       2.116  -0.004   1.231  0.00  0.00    -0.313 N 
ATOM      2  C   UNL     1       2.809   0.130   2.412  0.00  0.00    +0.205 C 
ATOM      3  N   UNL     1       2.197  -0.212   3.499  0.00  0.00    -0.097 NA
ATOM      4  S   UNL     1       2.941  -0.077   4.974  0.00  0.00    +0.103 S 
ATOM      5  O   UNL     1       2.059   0.654   5.814  0.00  0.00    -0.146 OA
ATOM      6  O   UNL     1       3.421  -1.372   5.311  0.00  0.00    -0.146 OA
ATOM      7  C   UNL     1       4.356   0.943   4.710  0.00  0.00    +0.135 A 
ATOM      8  C   UNL     1       5.037   1.494   5.772  0.00  0.00    +0.051 A 
ATOM      9  C   UNL     1       6.144   2.294   5.540  0.00  0.00    +0.043 A 
ATOM     10  C   UNL     1       6.562   2.537   4.243  0.00  0.00    +0.022 A 
ATOM     11  C   UNL     1       5.881   1.984   3.177  0.00  0.00    +0.027 A 
ATOM     12  C   UNL     1       4.771   1.180   3.404  0.00  0.00    +0.061 A 
ATOM     13  N   UNL     1       4.081   0.607   2.336  0.00  0.00    -0.285 N 
ATOM     14 CL   UNL     1       7.006   2.992   6.875  0.00  0.00    -0.083 Cl
ATOM     15  H   UNL     1       2.538   0.237   0.392  0.00  0.00    +0.149 HD
ATOM     16  H   UNL     1       4.537   0.546   1.482  0.00  0.00    +0.155 HD
ENDROOT
BRANCH   1  23
ATOM     17  C   UNL     1      -0.019   1.526   0.010  0.00  0.00    +0.009 C 
ATOM     18  C   UNL     1       0.002  -0.004   0.002  0.00  0.00    +0.006 C 
ATOM     19  C   UNL     1      -1.433  -0.534   0.013  0.00  0.00    +0.005 C 
ATOM     20  C   UNL     1      -1.413  -2.063   0.004  0.00  0.00    +0.000 C 
ATOM     21  C   UNL     1      -0.673  -2.570   1.244  0.00  0.00    +0.002 C 
ATOM     22  C   UNL     1       0.763  -2.041   1.233  0.00  0.00    +0.022 C 
ATOM     23  C   UNL     1       0.742  -0.511   1.242  0.00  0.00    +0.076 C 
ENDBRANCH   1  23
TORSDOF 1
