REMARK  Name = ZINC39611365
REMARK  5 active torsions:
REMARK  status: ('A' for Active; 'I' for Inactive)
REMARK    1  A    between atoms: C_1  and  C_2
REMARK    2  A    between atoms: C_8  and  N_12
REMARK    3  A    between atoms: C_13  and  C_15
REMARK    4  A    between atoms: C_18  and  S_26
REMARK    5  A    between atoms: S_26  and  N_29
REMARK                            x       y       z     vdW  Elec       q    Type
REMARK                         _______ _______ _______ _____ _____    ______ ____
ROOT
ATOM      1  C   UNL     1      -3.814  -4.860   6.186  0.00  0.00    +0.032 C 
ATOM      2  C   UNL     1      -5.034  -5.457   6.438  0.00  0.00    +0.007 A 
ATOM      3  C   UNL     1      -6.119  -5.397   5.459  0.00  0.00    +0.038 A 
ATOM      4  C   UNL     1      -7.298  -5.999   5.753  0.00  0.00    +0.106 A 
ATOM      5  C   UNL     1      -7.494  -6.670   6.965  0.00  0.00    +0.030 A 
ATOM      6  C   UNL     1      -6.531  -6.762   7.915  0.00  0.00    +0.026 A 
ATOM      7  C   UNL     1      -5.266  -6.172   7.710  0.00  0.00    +0.041 A 
ATOM      8  N   UNL     1      -4.329  -6.266   8.644  0.00  0.00    -0.285 N 
ATOM      9  C   UNL     1      -3.119  -5.735   8.519  0.00  0.00    +0.222 C 
ATOM     10  O   UNL     1      -2.306  -5.859   9.413  0.00  0.00    -0.275 OA
ATOM     11  C   UNL     1      -2.751  -4.983   7.260  0.00  0.00    +0.137 C 
ATOM     12  H   UNL     1      -4.538  -6.747   9.459  0.00  0.00    +0.155 HD
ENDROOT
BRANCH   1  14
ATOM     13  N   UNL     1      -2.320  -3.671   4.657  0.00  0.00    -0.282 N 
ATOM     14  C   UNL     1      -3.555  -4.141   4.924  0.00  0.00    +0.245 C 
ATOM     15  O   UNL     1      -4.455  -3.971   4.124  0.00  0.00    -0.270 OA
ATOM     16  H   UNL     1      -1.585  -3.872   5.257  0.00  0.00    +0.155 HD
BRANCH  13  23
ATOM     17  C   UNL     1       0.773   0.537  -0.497  0.00  0.00    +0.040 C 
ATOM     18  C   UNL     1      -0.023  -0.769  -0.519  0.00  0.00    +0.130 C 
ATOM     19  N   UNL     1      -1.355  -0.586   0.072  0.00  0.00    -0.331 N 
ATOM     20  C   UNL     1      -1.661  -1.324   1.215  0.00  0.00    +0.042 A 
ATOM     21  C   UNL     1      -2.881  -1.279   1.915  0.00  0.00    +0.026 A 
ATOM     22  C   UNL     1      -3.090  -2.046   3.036  0.00  0.00    +0.025 A 
ATOM     23  C   UNL     1      -2.099  -2.895   3.517  0.00  0.00    +0.035 A 
ATOM     24  C   UNL     1      -0.883  -2.958   2.842  0.00  0.00    +0.040 A 
ATOM     25  C   UNL     1      -0.683  -2.187   1.721  0.00  0.00    +0.032 A 
ATOM     26  S   UNL     1       0.708  -2.008   0.625  0.00  0.00    -0.101 S 
ATOM     27  H   UNL     1      -1.999   0.026  -0.318  0.00  0.00    +0.147 HD
ENDBRANCH  13  23
ENDBRANCH   1  14
BRANCH   4  28
ATOM     28  S   UNL     1      -8.613  -5.934   4.582  0.00  0.00    +0.061 S 
ATOM     29  O   UNL     1      -9.818  -6.112   5.314  0.00  0.00    -0.153 OA
ATOM     30  O   UNL     1      -8.377  -4.794   3.768  0.00  0.00    -0.153 OA
BRANCH  28  31
ATOM     31  N   UNL     1      -8.459  -7.258   3.598  0.00  0.00    -0.172 NA
ATOM     32  C   UNL     1      -7.653  -7.197   2.368  0.00  0.00    +0.137 C 
ATOM     33  C   UNL     1      -6.684  -8.385   2.366  0.00  0.00    +0.177 C 
ATOM     34  O   UNL     1      -7.419  -9.592   2.585  0.00  0.00    -0.377 OA
ATOM     35  C   UNL     1      -8.082  -9.652   3.850  0.00  0.00    +0.177 C 
ATOM     36  C   UNL     1      -9.118  -8.530   3.931  0.00  0.00    +0.137 C 
ENDBRANCH  28  31
ENDBRANCH   4  28
TORSDOF 4
