REMARK  Name = ZINC21807566
REMARK  12 active torsions:
REMARK  status: ('A' for Active; 'I' for Inactive)
REMARK    1  A    between atoms: C_1  and  N_2
REMARK    2  A    between atoms: N_2  and  C_3
REMARK    3  A    between atoms: N_2  and  C_4
REMARK    4  A    between atoms: C_4  and  C_6
REMARK    5  A    between atoms: C_4  and  C_25
REMARK    6  A    between atoms: C_6  and  N_7
REMARK    7  A    between atoms: C_8  and  C_10
REMARK    8  A    between atoms: C_12  and  C_15
REMARK    9  A    between atoms: C_28  and  O_33
REMARK   10  A    between atoms: C_29  and  O_31
REMARK   11  A    between atoms: O_31  and  C_32
REMARK   12  A    between atoms: O_33  and  C_34
REMARK                            x       y       z     vdW  Elec       q    Type
REMARK                         _______ _______ _______ _____ _____    ______ ____
ROOT
ATOM      1  N   UNL     1     -10.986  -1.182   1.076  0.00  0.00    -0.311 N 
ATOM      2  C   UNL     1      -9.722  -1.028   1.515  0.00  0.00    +0.266 C 
ATOM      3  O   UNL     1      -9.514  -0.724   2.673  0.00  0.00    -0.268 OA
ATOM      4  H   UNL     1     -11.175  -1.458   0.028  0.00  0.00    +0.149 HD
ENDROOT
BRANCH   2   5
ATOM      5  C   UNL     1      -8.584  -1.230   0.586  0.00  0.00    +0.168 A 
ATOM      6  C   UNL     1      -7.203  -1.113   0.892  0.00  0.00    +0.086 A 
ATOM      7  C   UNL     1      -6.580  -1.390  -0.293  0.00  0.00    +0.168 A 
ATOM      8  O   UNL     1      -7.556  -1.650  -1.181  0.00  0.00    -0.354 OA
ATOM      9  N   UNL     1      -8.653  -1.557  -0.682  0.00  0.00    -0.073 NA
BRANCH   7  10
ATOM     10  C   UNL     1      -5.124  -1.408  -0.546  0.00  0.00    +0.020 A 
ATOM     11  C   UNL     1      -4.227  -1.115   0.483  0.00  0.00    +0.012 A 
ATOM     12  C   UNL     1      -2.874  -1.133   0.232  0.00  0.00    +0.004 A 
ATOM     13  C   UNL     1      -2.390  -1.438  -1.035  0.00  0.00    -0.044 A 
ATOM     14  C   UNL     1      -3.270  -1.733  -2.054  0.00  0.00    -0.044 A 
ATOM     15  C   UNL     1      -4.635  -1.716  -1.813  0.00  0.00    +0.015 A 
ATOM     16  C   UNL     1      -2.811  -2.080  -3.446  0.00  0.00    +0.035 C 
ATOM     17  C   UNL     1      -1.365  -1.638  -3.662  0.00  0.00    +0.005 C 
ATOM     18  C   UNL     1      -0.516  -2.180  -2.505  0.00  0.00    +0.005 C 
ATOM     19  C   UNL     1      -0.895  -1.425  -1.233  0.00  0.00    +0.035 C 
ENDBRANCH   7  10
ENDBRANCH   2   5
BRANCH   1  20
ATOM     20  C   UNL     1     -12.110  -0.983   1.994  0.00  0.00    +0.094 C 
BRANCH  20  21
ATOM     21  C   UNL     1     -13.426  -1.089   1.221  0.00  0.00    -0.021 C 
BRANCH  21  22
ATOM     22  C   UNL     1     -13.500   0.018   0.201  0.00  0.00    -0.056 A 
ATOM     23  C   UNL     1     -13.876   1.290   0.589  0.00  0.00    +0.006 A 
ATOM     24  C   UNL     1     -13.940   2.310  -0.342  0.00  0.00    +0.049 A 
ATOM     25  C   UNL     1     -13.637   2.056  -1.669  0.00  0.00    +0.161 A 
ATOM     26  C   UNL     1     -13.263   0.774  -2.062  0.00  0.00    +0.162 A 
ATOM     27  C   UNL     1     -13.196  -0.242  -1.123  0.00  0.00    +0.051 A 
BRANCH  26  28
ATOM     28  O   UNL     1     -12.964   0.520  -3.364  0.00  0.00    -0.491 OA
ATOM     29  C   UNL     1     -12.588  -0.819  -3.694  0.00  0.00    +0.277 C 
ENDBRANCH  26  28
BRANCH  25  30
ATOM     30  O   UNL     1     -13.704   3.057  -2.588  0.00  0.00    -0.491 OA
ATOM     31  C   UNL     1     -14.095   4.347  -2.113  0.00  0.00    +0.277 C 
ENDBRANCH  25  30
ENDBRANCH  21  22
BRANCH  21  33
ATOM     32  C   UNL     1     -15.836  -1.120   1.453  0.00  0.00    -0.096 C 
ATOM     33  N   UNL     1     -14.554  -0.971   2.154  0.00  0.00    +0.382 N 
ATOM     34  C   UNL     1     -14.436  -1.944   3.248  0.00  0.00    -0.096 C 
ATOM     35  H   UNL     1     -14.524   0.038   2.594  0.00  0.00    -0.082 HD
ENDBRANCH  21  33
ENDBRANCH  20  21
ENDBRANCH   1  20
TORSDOF 8
