REMARK  Name = ZINC63480162
REMARK  8 active torsions:
REMARK  status: ('A' for Active; 'I' for Inactive)
REMARK    1  A    between atoms: C_1  and  C_2
REMARK    2  A    between atoms: C_2  and  C_38
REMARK    3  A    between atoms: C_3  and  C_17
REMARK    4  A    between atoms: N_19  and  C_20
REMARK    5  A    between atoms: C_20  and  C_22
REMARK    6  A    between atoms: C_20  and  C_32
REMARK    7  A    between atoms: C_22  and  C_23
REMARK    8  A    between atoms: N_34  and  C_35
REMARK                            x       y       z     vdW  Elec       q    Type
REMARK                         _______ _______ _______ _____ _____    ______ ____
ROOT
ATOM      1  C   UNL     1       1.503   0.626  -1.872  0.00  0.00    +0.236 C 
ATOM      2  O   UNL     1       2.660   0.904  -1.642  0.00  0.00    -0.274 OA
ATOM      3  N   UNL     1       0.795   1.361  -2.753  0.00  0.00    -0.302 N 
ATOM      4  H   UNL     1      -0.131   1.139  -2.937  0.00  0.00    +0.150 HD
ENDROOT
BRANCH   1   7
ATOM      5  C   UNL     1      -0.019   1.526   0.010  0.00  0.00    +0.025 C 
ATOM      6  C   UNL     1       0.002  -0.004   0.002  0.00  0.00    +0.040 C 
ATOM      7  C   UNL     1       0.855  -0.541  -1.172  0.00  0.00    +0.179 C 
ATOM      8  N   UNL     1       1.903  -1.473  -0.752  0.00  0.00    -0.269 N 
ATOM      9  C   UNL     1       2.481  -1.078   0.566  0.00  0.00    +0.167 C 
ATOM     10  S   UNL     1       0.924  -0.661   1.460  0.00  0.00    -0.125 S 
ATOM     11  C   UNL     1       3.107  -2.324   1.120  0.00  0.00    -0.005 A 
ATOM     12  C   UNL     1       3.577  -2.682   2.364  0.00  0.00    +0.007 A 
ATOM     13  C   UNL     1       4.131  -3.935   2.561  0.00  0.00    +0.000 A 
ATOM     14  C   UNL     1       4.215  -4.832   1.510  0.00  0.00    +0.001 A 
ATOM     15  C   UNL     1       3.739  -4.488   0.262  0.00  0.00    +0.013 A 
ATOM     16  C   UNL     1       3.172  -3.230   0.057  0.00  0.00    +0.043 A 
ATOM     17  C   UNL     1       2.539  -2.607  -1.115  0.00  0.00    +0.249 C 
ATOM     18  O   UNL     1       2.602  -3.042  -2.249  0.00  0.00    -0.270 OA
ATOM     19  C   UNL     1      -1.419  -0.569  -0.048  0.00  0.00    +0.025 C 
ENDBRANCH   1   7
BRANCH   3  20
ATOM     20  C   UNL     1       1.425   2.495  -3.433  0.00  0.00    +0.163 C 
BRANCH  20  21
ATOM     21  C   UNL     1       1.333   3.720  -2.558  0.00  0.00    +0.234 C 
ATOM     22  O   UNL     1       0.794   3.651  -1.474  0.00  0.00    -0.274 OA
ATOM     23  N   UNL     1       1.849   4.890  -2.981  0.00  0.00    -0.311 N 
ATOM     24  H   UNL     1       2.280   4.945  -3.849  0.00  0.00    +0.149 HD
BRANCH  23  25
ATOM     25  C   UNL     1       1.760   6.080  -2.131  0.00  0.00    +0.073 C 
ATOM     26  C   UNL     1       1.365   7.398  -2.800  0.00  0.00    +0.024 C 
ATOM     27  C   UNL     1       2.807   7.176  -2.338  0.00  0.00    +0.024 C 
ENDBRANCH  23  25
ENDBRANCH  20  21
BRANCH  20  28
ATOM     28  C   UNL     1       0.706   2.760  -4.757  0.00  0.00    +0.065 C 
BRANCH  28  29
ATOM     29  C   UNL     1       0.902   1.583  -5.679  0.00  0.00    -0.039 C 
ATOM     30  C   UNL     1       0.062   0.538  -5.853  0.00  0.00    -0.001 A 
ATOM     31  C   UNL     1      -1.235   0.195  -5.258  0.00  0.00    +0.010 A 
ATOM     32  C   UNL     1      -1.850  -0.948  -5.640  0.00  0.00    +0.001 A 
ATOM     33  C   UNL     1      -1.281  -1.810  -6.587  0.00  0.00    +0.002 A 
ATOM     34  C   UNL     1      -0.092  -1.563  -7.176  0.00  0.00    +0.026 A 
ATOM     35  C   UNL     1       0.642  -0.390  -6.850  0.00  0.00    +0.043 A 
ATOM     36  N   UNL     1       1.796   0.065  -7.276  0.00  0.00    -0.380 N 
ATOM     37  C   UNL     1       2.075   1.337  -6.601  0.00  0.00    +0.144 C 
ATOM     38  H   UNL     1       2.367  -0.366  -7.932  0.00  0.00    +0.160 HD
ENDBRANCH  28  29
ENDBRANCH  20  28
ENDBRANCH   3  20
TORSDOF 6
