REMARK  Name = ZINC52798233
REMARK  4 active torsions:
REMARK  status: ('A' for Active; 'I' for Inactive)
REMARK    1  A    between atoms: C_3  and  N_13
REMARK    2  A    between atoms: C_6  and  C_7
REMARK    3  A    between atoms: N_13  and  S_14
REMARK    4  A    between atoms: S_14  and  C_17
REMARK                            x       y       z     vdW  Elec       q    Type
REMARK                         _______ _______ _______ _____ _____    ______ ____
ROOT
ATOM      1  N   UNL     1       3.581   2.135  -0.022  0.00  0.00    -0.216 N 
ATOM      2  H   UNL     1       3.707   2.866  -0.647  0.00  0.00    +0.174 HD
ENDROOT
BRANCH   1   5
ATOM      3  C   UNL     1      -0.002   1.333  -0.112  0.00  0.00    +0.012 A 
ATOM      4  C   UNL     1       1.171   2.058  -0.095  0.00  0.00    +0.025 A 
ATOM      5  C   UNL     1       2.395   1.400  -0.038  0.00  0.00    +0.048 A 
ATOM      6  C   UNL     1       2.438   0.011   0.004  0.00  0.00    +0.025 A 
ATOM      7  C   UNL     1       1.267  -0.717  -0.012  0.00  0.00    +0.012 A 
ATOM      8  C   UNL     1       0.040  -0.059  -0.070  0.00  0.00    +0.002 A 
BRANCH   8   9
ATOM      9  C   UNL     1      -1.222  -0.841  -0.087  0.00  0.00    +0.092 A 
ATOM     10  C   UNL     1      -1.328  -2.245  -0.044  0.00  0.00    +0.049 A 
ATOM     11  C   UNL     1      -2.640  -2.562  -0.077  0.00  0.00    +0.105 A 
ATOM     12  N   UNL     1      -3.346  -1.412  -0.139  0.00  0.00    -0.284 N 
ATOM     13  H   UNL     1      -4.312  -1.339  -0.173  0.00  0.00    +0.188 HD
ATOM     14  N   UNL     1      -2.440  -0.344  -0.139  0.00  0.00    -0.174 NA
ENDBRANCH   8   9
ENDBRANCH   1   5
BRANCH   1  15
ATOM     15  S   UNL     1       4.775   1.758   1.063  0.00  0.00    +0.072 S 
ATOM     16  O   UNL     1       5.027   0.367   0.922  0.00  0.00    -0.150 OA
ATOM     17  O   UNL     1       5.792   2.737   0.903  0.00  0.00    -0.150 OA
BRANCH  15  18
ATOM     18  C   UNL     1       4.104   1.988   2.676  0.00  0.00    +0.109 A 
ATOM     19  C   UNL     1       4.107   3.243   3.256  0.00  0.00    +0.032 A 
ATOM     20  C   UNL     1       3.579   3.429   4.517  0.00  0.00    +0.048 A 
ATOM     21  C   UNL     1       3.039   2.353   5.217  0.00  0.00    +0.124 A 
ATOM     22  C   UNL     1       3.048   1.096   4.627  0.00  0.00    -0.001 A 
ATOM     23  C   UNL     1       3.567   0.914   3.363  0.00  0.00    +0.036 A 
ATOM     24  C   UNL     1       2.426   0.133   5.620  0.00  0.00    +0.080 C 
ATOM     25  C   UNL     1       2.461   0.958   6.928  0.00  0.00    +0.234 C 
ATOM     26  O   UNL     1       2.464   2.313   6.450  0.00  0.00    -0.491 OA
ENDBRANCH  15  18
ENDBRANCH   1  15
TORSDOF 4
