REMARK  Name = ZINC19075331
REMARK  4 active torsions:
REMARK  status: ('A' for Active; 'I' for Inactive)
REMARK    1  A    between atoms: N_8  and  C_9
REMARK    2  A    between atoms: C_9  and  C_10
REMARK    3  A    between atoms: C_15  and  C_18
REMARK    4  A    between atoms: C_18  and  N_19
REMARK                            x       y       z     vdW  Elec       q    Type
REMARK                         _______ _______ _______ _____ _____    ______ ____
ROOT
ATOM      1  C   UNL     1      -0.729   1.579   1.267  0.00  0.00    +0.006 C 
ATOM      2  C   UNL     1      -0.013   1.086   0.008  0.00  0.00    +0.005 C 
ATOM      3  C   UNL     1      -0.753   1.593  -1.232  0.00  0.00    +0.001 C 
ATOM      4  C   UNL     1      -0.773   3.123  -1.223  0.00  0.00    +0.005 C 
ATOM      5  C   UNL     1      -1.490   3.616   0.036  0.00  0.00    +0.006 C 
ATOM      6  C   UNL     1      -0.750   3.109   1.275  0.00  0.00    +0.010 C 
ENDROOT
BRANCH   1   7
ATOM      7  C   UNL     1      -2.164   1.050   1.278  0.00  0.00    +0.109 C 
BRANCH   7  15
ATOM      8  C   UNL     1      -2.546  -4.750   1.685  0.00  0.00    +0.020 C 
ATOM      9  C   UNL     1      -3.968  -4.695   1.066  0.00  0.00    +0.020 C 
ATOM     10  C   UNL     1      -4.472  -3.318   1.565  0.00  0.00    +0.109 C 
ATOM     11  N   UNL     1      -3.285  -2.443   1.522  0.00  0.00    -0.286 N 
ATOM     12  C   UNL     1      -2.080  -3.281   1.605  0.00  0.00    +0.109 C 
ATOM     13  C   UNL     1      -3.303  -1.100   1.419  0.00  0.00    +0.302 C 
ATOM     14  O   UNL     1      -4.364  -0.509   1.352  0.00  0.00    -0.253 OA
ATOM     15  N   UNL     1      -2.145  -0.411   1.390  0.00  0.00    -0.299 N 
ATOM     16  H   UNL     1      -1.299  -0.882   1.444  0.00  0.00    +0.150 HD
ENDBRANCH   7  15
ENDBRANCH   1   7
BRANCH   5  17
ATOM     17  C   UNL     1      -1.510   5.146   0.044  0.00  0.00    +0.109 C 
BRANCH  17  18
ATOM     18  N   UNL     1      -2.320   5.629  -1.077  0.00  0.00    -0.299 N 
ATOM     19  C   UNL     1      -2.481   6.953  -1.270  0.00  0.00    +0.302 C 
ATOM     20  O   UNL     1      -1.954   7.747  -0.514  0.00  0.00    -0.253 OA
ATOM     21  N   UNL     1      -3.226   7.398  -2.302  0.00  0.00    -0.286 N 
ATOM     22  C   UNL     1      -3.910   6.554  -3.291  0.00  0.00    +0.109 C 
ATOM     23  C   UNL     1      -4.613   7.496  -4.290  0.00  0.00    +0.020 C 
ATOM     24  C   UNL     1      -3.812   8.817  -4.142  0.00  0.00    +0.020 C 
ATOM     25  C   UNL     1      -3.484   8.813  -2.628  0.00  0.00    +0.109 C 
ATOM     26  H   UNL     1      -2.740   4.997  -1.680  0.00  0.00    +0.150 HD
ENDBRANCH  17  18
ENDBRANCH   5  17
TORSDOF 4
