REMARK  Name = ZINC13498970
REMARK  13 active torsions:
REMARK  status: ('A' for Active; 'I' for Inactive)
REMARK    1  A    between atoms: C_1  and  C_2
REMARK    2  A    between atoms: C_6  and  C_15
REMARK    3  A    between atoms: C_13  and  C_14
REMARK    4  A    between atoms: C_15  and  N_75
REMARK    5  A    between atoms: C_16  and  N_75
REMARK    6  A    between atoms: C_21  and  C_23
REMARK    7  A    between atoms: C_21  and  C_36
REMARK    8  A    between atoms: C_21  and  N_75
REMARK    9  A    between atoms: N_27  and  C_28
REMARK   10  A    between atoms: C_28  and  C_29
REMARK   11  A    between atoms: C_29  and  C_30
REMARK   12  A    between atoms: C_36  and  C_37
REMARK   13  A    between atoms: C_36  and  C_38
REMARK                            x       y       z     vdW  Elec       q    Type
REMARK                         _______ _______ _______ _____ _____    ______ ____
ROOT
ATOM      1  N   UNL     1      -5.324   4.075  -0.728  0.00  0.00    +0.391 N 
ATOM      2  H   UNL     1      -4.492   4.632  -0.955  0.00  0.00    -0.080 HD
ENDROOT
BRANCH   1   3
ATOM      3  C   UNL     1      -5.325   2.854  -1.561  0.00  0.00    -0.067 C 
ATOM      4  C   UNL     1      -3.886   2.309  -1.667  0.00  0.00    -0.015 C 
ATOM      5  C   UNL     1      -3.781   1.798  -3.126  0.00  0.00    -0.002 C 
ATOM      6  C   UNL     1      -4.588   2.856  -3.919  0.00  0.00    -0.002 C 
ATOM      7  C   UNL     1      -5.772   3.201  -2.992  0.00  0.00    -0.015 C 
ENDBRANCH   1   3
BRANCH   1   8
ATOM      8  C   UNL     1      -5.280   3.709   0.704  0.00  0.00    -0.036 C 
BRANCH   8  14
ATOM      9  C   UNL     1       1.967   4.112   2.416  0.00  0.00    +0.044 C 
ATOM     10  C   UNL     1       0.733   3.305   2.108  0.00  0.00    -0.047 A 
ATOM     11  C   UNL     1      -0.446   3.944   1.845  0.00  0.00    +0.013 A 
ATOM     12  C   UNL     1      -1.592   3.195   1.559  0.00  0.00    -0.001 A 
ATOM     13  C   UNL     1      -2.871   3.847   1.273  0.00  0.00    +0.017 A 
ATOM     14  C   UNL     1      -3.949   3.069   1.002  0.00  0.00    +0.001 A 
ATOM     15  C   UNL     1      -3.828   1.663   1.000  0.00  0.00    +0.251 A 
ATOM     16  O   UNL     1      -4.809   0.983   0.753  0.00  0.00    -0.268 OA
ATOM     17  N   UNL     1      -2.657   1.055   1.261  0.00  0.00    -0.322 N 
ATOM     18  H   UNL     1      -2.609   0.086   1.251  0.00  0.00    +0.169 HD
ATOM     19  C   UNL     1      -1.523   1.789   1.538  0.00  0.00    +0.049 A 
ATOM     20  C   UNL     1      -0.314   1.160   1.814  0.00  0.00    +0.030 A 
ATOM     21  C   UNL     1       0.803   1.919   2.094  0.00  0.00    -0.046 A 
ATOM     22  C   UNL     1       2.114   1.236   2.386  0.00  0.00    +0.044 C 
ENDBRANCH   8  14
ENDBRANCH   1   8
BRANCH   1  23
ATOM     23  C   UNL     1      -6.532   4.879  -1.007  0.00  0.00    +0.006 C 
BRANCH  23  24
ATOM     24  C   UNL     1      -7.777   4.074  -0.735  0.00  0.00    +0.138 A 
ATOM     25  N   UNL     1      -7.923   3.141   0.174  0.00  0.00    -0.115 NA
ATOM     26  N   UNL     1      -9.128   2.693   0.094  0.00  0.00    -0.023 NA
ATOM     27  N   UNL     1      -9.752   3.311  -0.847  0.00  0.00    -0.044 NA
ATOM     28  N   UNL     1      -8.953   4.170  -1.382  0.00  0.00    -0.231 N 
BRANCH  28  29
ATOM     29  C   UNL     1      -9.267   5.080  -2.486  0.00  0.00    +0.152 C 
BRANCH  29  30
ATOM     30  C   UNL     1      -9.076   4.351  -3.818  0.00  0.00    +0.058 C 
BRANCH  30  31
ATOM     31  C   UNL     1      -9.371   5.296  -4.955  0.00  0.00    -0.046 A 
ATOM     32  C   UNL     1     -10.654   5.389  -5.461  0.00  0.00    +0.004 A 
ATOM     33  C   UNL     1     -10.925   6.259  -6.500  0.00  0.00    +0.000 A 
ATOM     34  C   UNL     1      -9.912   7.029  -7.040  0.00  0.00    +0.000 A 
ATOM     35  C   UNL     1      -8.628   6.931  -6.538  0.00  0.00    +0.000 A 
ATOM     36  C   UNL     1      -8.357   6.065  -5.495  0.00  0.00    +0.004 A 
ENDBRANCH  30  31
ENDBRANCH  29  30
ENDBRANCH  28  29
ENDBRANCH  23  24
BRANCH  23  37
ATOM     37  C   UNL     1      -6.521   6.120  -0.112  0.00  0.00    -0.024 C 
ATOM     38  C   UNL     1      -5.259   6.938  -0.390  0.00  0.00    +0.006 C 
ATOM     39  C   UNL     1      -7.757   6.972  -0.407  0.00  0.00    +0.006 C 
ENDBRANCH  23  37
ENDBRANCH   1  23
TORSDOF 9
