REMARK  Name = ZINC40318050
REMARK  9 active torsions:
REMARK  status: ('A' for Active; 'I' for Inactive)
REMARK    1  A    between atoms: C_3  and  O_9
REMARK    2  A    between atoms: O_9  and  C_10
REMARK    3  A    between atoms: C_10  and  C_11
REMARK    4  A    between atoms: C_11  and  C_13
REMARK    5  A    between atoms: C_11  and  O_30
REMARK    6  A    between atoms: C_13  and  N_14
REMARK    7  A    between atoms: N_14  and  C_15
REMARK    8  A    between atoms: N_14  and  C_22
REMARK    9  A    between atoms: C_15  and  C_16
REMARK                            x       y       z     vdW  Elec       q    Type
REMARK                         _______ _______ _______ _____ _____    ______ ____
ROOT
ATOM      1  N   UNL     1       6.067   6.243   0.509  0.00  0.00    +0.389 N 
ATOM      2  H   UNL     1       6.490   6.058   1.407  0.00  0.00    -0.081 HD
ENDROOT
BRANCH   1   3
ATOM      3  C   UNL     1       6.996   5.850  -0.559  0.00  0.00    -0.045 C 
ATOM      4  C   UNL     1       8.436   6.200  -0.149  0.00  0.00    +0.009 C 
ATOM      5  C   UNL     1       9.374   6.091  -1.375  0.00  0.00    +0.164 C 
ATOM      6  S   UNL     1       8.245   6.452  -2.782  0.00  0.00    -0.033 S 
ATOM      7  O   UNL     1       8.167   5.305  -3.618  0.00  0.00    -0.174 OA
ATOM      8  O   UNL     1       8.597   7.707  -3.347  0.00  0.00    -0.174 OA
ATOM      9  C   UNL     1       6.660   6.632  -1.861  0.00  0.00    +0.151 C 
ENDBRANCH   1   3
BRANCH   1  10
ATOM     10  C   UNL     1       4.824   5.471   0.385  0.00  0.00    -0.043 C 
BRANCH  10  11
ATOM     11  C   UNL     1       5.082   4.018   0.790  0.00  0.00    +0.135 C 
BRANCH  11  12
ATOM     12  O   UNL     1       5.935   3.400  -0.176  0.00  0.00    -0.390 OA
ATOM     13  H   UNL     1       5.603   3.449  -1.083  0.00  0.00    +0.210 HD
ENDBRANCH  11  12
BRANCH  11  14
ATOM     14  C   UNL     1       3.754   3.263   0.856  0.00  0.00    +0.258 C 
BRANCH  14  15
ATOM     15  O   UNL     1       3.982   1.940   1.345  0.00  0.00    -0.488 OA
BRANCH  15  18
ATOM     16  C   UNL     1       0.536   0.776   1.241  0.00  0.00    +0.023 A 
ATOM     17  C   UNL     1       1.638   1.600   1.119  0.00  0.00    +0.048 A 
ATOM     18  C   UNL     1       2.896   1.130   1.465  0.00  0.00    +0.139 A 
ATOM     19  C   UNL     1       3.045  -0.168   1.934  0.00  0.00    +0.084 A 
ATOM     20  C   UNL     1       1.940  -0.989   2.055  0.00  0.00    +0.043 A 
ATOM     21  C   UNL     1       0.686  -0.518   1.709  0.00  0.00    +0.043 A 
ATOM     22 CL   UNL     1      -0.701  -1.551   1.861  0.00  0.00    -0.083 Cl
ATOM     23 CL   UNL     1       4.619  -0.760   2.368  0.00  0.00    -0.080 Cl
ENDBRANCH  15  18
ENDBRANCH  14  15
ENDBRANCH  11  14
ENDBRANCH  10  11
ENDBRANCH   1  10
BRANCH   1  24
ATOM     24  C   UNL     1       5.767   7.676   0.395  0.00  0.00    -0.003 C 
BRANCH  24  25
ATOM     25  C   UNL     1       7.020   8.474   0.650  0.00  0.00    +0.090 A 
ATOM     26  C   UNL     1       7.769   9.082  -0.286  0.00  0.00    +0.044 A 
ATOM     27  C   UNL     1       8.842   9.709   0.390  0.00  0.00    +0.057 A 
ATOM     28  C   UNL     1       8.683   9.445   1.700  0.00  0.00    +0.170 A 
ATOM     29  O   UNL     1       7.575   8.702   1.852  0.00  0.00    -0.455 OA
ATOM     30 BR   UNL     1       9.823  10.029   3.091  0.00  0.00    -0.008 Br
ENDBRANCH  24  25
ENDBRANCH   1  24
TORSDOF 9
