REMARK  Name = ZINC09129773
REMARK  8 active torsions:
REMARK  status: ('A' for Active; 'I' for Inactive)
REMARK    1  A    between atoms: C_1  and  O_2
REMARK    2  A    between atoms: O_2  and  C_3
REMARK    3  A    between atoms: C_6  and  C_9
REMARK    4  A    between atoms: C_14  and  C_15
REMARK    5  A    between atoms: C_18  and  O_22
REMARK    6  A    between atoms: C_20  and  O_21
REMARK    7  A    between atoms: O_22  and  C_23
REMARK    8  A    between atoms: C_23  and  C_24
REMARK                            x       y       z     vdW  Elec       q    Type
REMARK                         _______ _______ _______ _____ _____    ______ ____
ROOT
ATOM      1  C   UNL     1      -4.499  -4.045  -1.983  0.00  0.00    +0.044 A 
ATOM      2  C   UNL     1      -3.182  -3.606  -2.101  0.00  0.00    +0.017 A 
ATOM      3  C   UNL     1      -2.398  -4.052  -3.144  0.00  0.00    +0.046 A 
ATOM      4  C   UNL     1      -2.918  -4.939  -4.079  0.00  0.00    +0.124 A 
ATOM      5  C   UNL     1      -4.228  -5.380  -3.969  0.00  0.00    +0.091 A 
ATOM      6  C   UNL     1      -5.020  -4.942  -2.921  0.00  0.00    +0.130 A 
ENDROOT
BRANCH   1  12
ATOM      7  C   UNL     1      -4.967  -3.512   0.503  0.00  0.00    +0.027 A 
ATOM      8  C   UNL     1      -6.024  -3.009   1.200  0.00  0.00    +0.114 A 
ATOM      9  N   UNL     1      -7.019  -2.765   0.322  0.00  0.00    -0.284 N 
ATOM     10  H   UNL     1      -7.892  -2.402   0.541  0.00  0.00    +0.188 HD
ATOM     11  N   UNL     1      -6.578  -3.123  -0.957  0.00  0.00    -0.173 NA
ATOM     12  C   UNL     1      -5.344  -3.567  -0.862  0.00  0.00    +0.104 A 
BRANCH   7  16
ATOM     13  C   UNL     1      -1.215  -4.686   2.128  0.00  0.00    +0.120 A 
ATOM     14  C   UNL     1      -1.693  -3.402   2.346  0.00  0.00    +0.046 A 
ATOM     15  C   UNL     1      -2.909  -3.018   1.821  0.00  0.00    +0.012 A 
ATOM     16  C   UNL     1      -3.658  -3.922   1.070  0.00  0.00    -0.014 A 
ATOM     17  C   UNL     1      -3.175  -5.211   0.851  0.00  0.00    +0.012 A 
ATOM     18  C   UNL     1      -1.956  -5.587   1.375  0.00  0.00    +0.046 A 
BRANCH  13  20
ATOM     19  C   UNL     1       0.694  -4.085   3.411  0.00  0.00    +0.277 C 
ATOM     20  O   UNL     1      -0.016  -5.062   2.647  0.00  0.00    -0.495 OA
ENDBRANCH  13  20
ENDBRANCH   7  16
ENDBRANCH   1  12
BRANCH   6  21
ATOM     21  O   UNL     1      -6.302  -5.378  -2.808  0.00  0.00    -0.506 OA
ATOM     22  H   UNL     1      -6.947  -4.827  -3.271  0.00  0.00    +0.292 HD
ENDBRANCH   6  21
BRANCH   4  23
ATOM     23  O   UNL     1      -2.141  -5.374  -5.105  0.00  0.00    -0.487 OA
BRANCH  23  24
ATOM     24  C   UNL     1      -0.801  -4.879  -5.160  0.00  0.00    +0.266 C 
BRANCH  24  25
ATOM     25  C   UNL     1      -0.097  -5.467  -6.355  0.00  0.00    +0.008 A 
ATOM     26  C   UNL     1      -0.768  -6.337  -7.194  0.00  0.00    +0.010 A 
ATOM     27  C   UNL     1      -0.123  -6.876  -8.291  0.00  0.00    +0.020 A 
ATOM     28  C   UNL     1       1.196  -6.545  -8.550  0.00  0.00    +0.042 A 
ATOM     29  C   UNL     1       1.868  -5.675  -7.711  0.00  0.00    +0.040 A 
ATOM     30  C   UNL     1       1.220  -5.132  -6.616  0.00  0.00    +0.049 A 
ATOM     31 CL   UNL     1       2.061  -4.034  -5.566  0.00  0.00    -0.083 Cl
ATOM     32 CL   UNL     1       2.006  -7.223  -9.927  0.00  0.00    -0.083 Cl
ENDBRANCH  24  25
ENDBRANCH  23  24
ENDBRANCH   4  23
TORSDOF 7
