REMARK  Name = ZINC08915431
REMARK  6 active torsions:
REMARK  status: ('A' for Active; 'I' for Inactive)
REMARK    1  A    between atoms: C_3  and  C_8
REMARK    2  A    between atoms: C_11  and  C_13
REMARK    3  A    between atoms: C_15  and  C_27
REMARK    4  A    between atoms: C_17  and  C_22
REMARK    5  A    between atoms: C_19  and  O_21
REMARK    6  A    between atoms: C_27  and  C_29
REMARK                            x       y       z     vdW  Elec       q    Type
REMARK                         _______ _______ _______ _____ _____    ______ ____
ROOT
ATOM      1  C   UNL     1       5.940   5.807   0.097  0.00  0.00    +0.156 C 
ATOM      2  C   UNL     1       5.826   5.925   1.625  0.00  0.00    +0.152 C 
ATOM      3  C   UNL     1       6.094   7.379   2.018  0.00  0.00    +0.284 C 
ATOM      4  N   UNL     1       5.295   8.286   1.202  0.00  0.00    -0.306 N 
ATOM      5  C   UNL     1       4.786   7.965   0.061  0.00  0.00    +0.256 C 
ATOM      6  N   UNL     1       4.944   6.717  -0.490  0.00  0.00    -0.290 N 
ATOM      7  O   UNL     1       7.480   7.671   1.829  0.00  0.00    -0.194 OA
ATOM      8  H   UNL     1       4.410   6.441  -1.251  0.00  0.00    +0.151 HD
ATOM      9  H   UNL     1       5.138   9.183   1.537  0.00  0.00    +0.167 HD
ENDROOT
BRANCH   1  13
ATOM     10  C   UNL     1       4.559   2.559  -0.850  0.00  0.00    +0.135 A 
ATOM     11  C   UNL     1       5.884   2.287  -0.992  0.00  0.00    +0.050 A 
ATOM     12  C   UNL     1       6.579   3.466  -0.656  0.00  0.00    +0.047 A 
ATOM     13  C   UNL     1       5.654   4.390  -0.330  0.00  0.00    +0.127 A 
ATOM     14  O   UNL     1       4.435   3.840  -0.453  0.00  0.00    -0.458 OA
BRANCH  10  17
ATOM     15  C   UNL     1       1.094   1.141  -1.148  0.00  0.00    +0.002 A 
ATOM     16  C   UNL     1       2.127   2.027  -0.917  0.00  0.00    +0.011 A 
ATOM     17  C   UNL     1       3.449   1.615  -1.095  0.00  0.00    +0.019 A 
ATOM     18  C   UNL     1       3.717   0.309  -1.507  0.00  0.00    +0.031 A 
ATOM     19  C   UNL     1       2.675  -0.567  -1.734  0.00  0.00    +0.042 A 
ATOM     20  C   UNL     1       1.366  -0.152  -1.555  0.00  0.00    +0.020 A 
ATOM     21 CL   UNL     1       3.006  -2.193  -2.246  0.00  0.00    -0.084 Cl
ENDBRANCH  10  17
ENDBRANCH   1  13
BRANCH   3  22
ATOM     22  C   UNL     1       5.734   7.577   3.492  0.00  0.00    +0.441 C 
ATOM     23  F   UNL     1       6.434   6.650   4.272  0.00  0.00    -0.166 F 
ATOM     24  F   UNL     1       6.079   8.874   3.887  0.00  0.00    -0.166 F 
ATOM     25  F   UNL     1       4.358   7.388   3.666  0.00  0.00    -0.166 F 
ENDBRANCH   3  22
BRANCH   5  26
ATOM     26  O   UNL     1       4.071   8.890  -0.616  0.00  0.00    -0.483 OA
ATOM     27  H   UNL     1       4.004   9.743  -0.166  0.00  0.00    +0.295 HD
ENDBRANCH   5  26
BRANCH   2  28
ATOM     28  C   UNL     1       4.441   5.526   2.063  0.00  0.00    +0.173 C 
ATOM     29  O   UNL     1       3.474   5.909   1.439  0.00  0.00    -0.292 OA
BRANCH  28  30
ATOM     30  C   UNL     1       4.261   4.673   3.246  0.00  0.00    +0.018 A 
ATOM     31  C   UNL     1       5.375   4.136   3.901  0.00  0.00    +0.014 A 
ATOM     32  C   UNL     1       5.199   3.337   5.010  0.00  0.00    +0.039 A 
ATOM     33  C   UNL     1       3.922   3.064   5.477  0.00  0.00    +0.123 A 
ATOM     34  C   UNL     1       2.813   3.593   4.832  0.00  0.00    +0.039 A 
ATOM     35  C   UNL     1       2.975   4.398   3.726  0.00  0.00    +0.014 A 
ATOM     36  F   UNL     1       3.757   2.279   6.564  0.00  0.00    -0.205 F 
ENDBRANCH  28  30
ENDBRANCH   2  28
TORSDOF 6
