REMARK  Name = ZINC29697793
REMARK  7 active torsions:
REMARK  status: ('A' for Active; 'I' for Inactive)
REMARK    1  A    between atoms: C_3  and  N_8
REMARK    2  A    between atoms: N_8  and  S_9
REMARK    3  A    between atoms: S_9  and  C_12
REMARK    4  A    between atoms: C_15  and  O_32
REMARK    5  A    between atoms: C_16  and  N_18
REMARK    6  A    between atoms: C_19  and  C_21
REMARK    7  A    between atoms: C_21  and  C_22
REMARK                            x       y       z     vdW  Elec       q    Type
REMARK                         _______ _______ _______ _____ _____    ______ ____
ROOT
ATOM      1  C   UNL     1      -6.895  -3.019   1.394  0.00  0.00    +0.110 A 
ATOM      2  C   UNL     1      -7.081  -4.092   0.542  0.00  0.00    +0.032 A 
ATOM      3  C   UNL     1      -6.455  -4.117  -0.690  0.00  0.00    +0.049 A 
ATOM      4  C   UNL     1      -5.637  -3.067  -1.074  0.00  0.00    +0.138 A 
ATOM      5  C   UNL     1      -5.449  -1.986  -0.216  0.00  0.00    +0.077 A 
ATOM      6  C   UNL     1      -6.076  -1.970   1.021  0.00  0.00    +0.055 A 
ENDROOT
BRANCH   5   7
ATOM      7  N   UNL     1      -4.623  -0.920  -0.599  0.00  0.00    -0.283 N 
ATOM      8  C   UNL     1      -4.824   0.308  -0.081  0.00  0.00    +0.218 C 
ATOM      9  O   UNL     1      -5.668   0.475   0.774  0.00  0.00    -0.275 OA
ATOM     10  H   UNL     1      -3.811  -1.086  -1.322  0.00  0.00    +0.155 HD
BRANCH   8  11
ATOM     11  C   UNL     1      -4.001   1.474  -0.565  0.00  0.00    +0.100 C 
BRANCH  11  12
ATOM     12  C   UNL     1      -4.426   2.742   0.178  0.00  0.00    +0.001 C 
ATOM     13  C   UNL     1      -3.953   2.688   1.649  0.00  0.00    +0.007 C 
ATOM     14  C   UNL     1      -2.992   3.910   1.801  0.00  0.00    -0.010 C 
ATOM     15  C   UNL     1      -1.735   3.521   0.965  0.00  0.00    +0.004 C 
ATOM     16  C   UNL     1      -2.208   3.575  -0.505  0.00  0.00    +0.004 C 
ATOM     17  C   UNL     1      -3.709   3.990  -0.422  0.00  0.00    -0.007 C 
ATOM     18  C   UNL     1      -3.679   4.936   0.830  0.00  0.00    +0.007 C 
ENDBRANCH  11  12
ENDBRANCH   8  11
ENDBRANCH   5   7
BRANCH   1  19
ATOM     19  S   UNL     1      -7.696  -2.994   2.963  0.00  0.00    +0.072 S 
ATOM     20  O   UNL     1      -7.688  -1.642   3.402  0.00  0.00    -0.150 OA
ATOM     21  O   UNL     1      -8.897  -3.740   2.818  0.00  0.00    -0.150 OA
BRANCH  19  22
ATOM     22  N   UNL     1      -6.738  -3.839   4.016  0.00  0.00    -0.216 N 
ATOM     23  H   UNL     1      -7.105  -4.773   4.465  0.00  0.00    +0.174 HD
BRANCH  22  26
ATOM     24  C   UNL     1      -4.056  -1.796   5.480  0.00  0.00    +0.003 A 
ATOM     25  C   UNL     1      -5.318  -2.260   5.164  0.00  0.00    +0.024 A 
ATOM     26  C   UNL     1      -5.463  -3.365   4.334  0.00  0.00    +0.049 A 
ATOM     27  C   UNL     1      -4.338  -3.994   3.818  0.00  0.00    +0.044 A 
ATOM     28  C   UNL     1      -3.078  -3.523   4.134  0.00  0.00    +0.043 A 
ATOM     29  C   UNL     1      -2.937  -2.424   4.965  0.00  0.00    +0.020 A 
ATOM     30 CL   UNL     1      -1.670  -4.308   3.489  0.00  0.00    -0.083 Cl
ENDBRANCH  22  26
ENDBRANCH  19  22
ENDBRANCH   1  19
BRANCH   4  31
ATOM     31  O   UNL     1      -5.020  -3.090  -2.286  0.00  0.00    -0.505 OA
ATOM     32  H   UNL     1      -4.372  -2.255  -2.589  0.00  0.00    +0.292 HD
ENDBRANCH   4  31
TORSDOF 7
