REMARK  Name = ZINC09542029
REMARK  8 active torsions:
REMARK  status: ('A' for Active; 'I' for Inactive)
REMARK    1  A    between atoms: C_1  and  C_2
REMARK    2  A    between atoms: C_4  and  N_9
REMARK    3  A    between atoms: C_10  and  C_12
REMARK    4  A    between atoms: C_12  and  S_13
REMARK    5  A    between atoms: S_13  and  C_14
REMARK    6  A    between atoms: C_17  and  C_20
REMARK    7  A    between atoms: N_18  and  N_19
REMARK    8  A    between atoms: C_22  and  C_26
REMARK                            x       y       z     vdW  Elec       q    Type
REMARK                         _______ _______ _______ _____ _____    ______ ____
ROOT
ATOM      1  C   UNL     1       0.519  -7.322  -5.034  0.00  0.00    +0.209 A 
ATOM      2  N   UNL     1       0.604  -6.695  -6.186  0.00  0.00    -0.120 NA
ATOM      3  N   UNL     1       0.706  -7.544  -7.145  0.00  0.00    -0.125 NA
ATOM      4  C   UNL     1       0.693  -8.767  -6.664  0.00  0.00    +0.199 A 
ATOM      5  N   UNL     1       0.578  -8.662  -5.296  0.00  0.00    -0.223 N 
ENDROOT
BRANCH   4   6
ATOM      6  C   UNL     1       0.789 -10.015  -7.441  0.00  0.00    +0.105 A 
ATOM      7  C   UNL     1       1.207 -10.130  -8.738  0.00  0.00    +0.061 A 
ATOM      8  C   UNL     1       1.145 -11.489  -9.089  0.00  0.00    +0.093 A 
ATOM      9  N   UNL     1       0.709 -12.167  -8.048  0.00  0.00    -0.173 NA
ATOM     10  N   UNL     1       0.482 -11.270  -6.997  0.00  0.00    -0.273 N 
ATOM     11  H   UNL     1       0.162 -11.498  -6.110  0.00  0.00    +0.189 HD
BRANCH   8  12
ATOM     12  C   UNL     1       1.510 -12.062 -10.408  0.00  0.00    +0.002 A 
ATOM     13  C   UNL     1       1.966 -11.231 -11.430  0.00  0.00    +0.013 A 
ATOM     14  C   UNL     1       2.304 -11.769 -12.655  0.00  0.00    +0.039 A 
ATOM     15  C   UNL     1       2.191 -13.133 -12.870  0.00  0.00    +0.123 A 
ATOM     16  C   UNL     1       1.739 -13.963 -11.857  0.00  0.00    +0.039 A 
ATOM     17  C   UNL     1       1.403 -13.434 -10.627  0.00  0.00    +0.013 A 
ATOM     18  F   UNL     1       2.523 -13.655 -14.071  0.00  0.00    -0.205 F 
ENDBRANCH   8  12
ENDBRANCH   4   6
BRANCH   5  19
ATOM     19  N   UNL     1       0.530  -9.683  -4.390  0.00  0.00    -0.295 N 
ATOM     20  H   UNL     1      -0.424  -9.940  -4.185  0.00  0.00    +0.163 HD
ATOM     21  H   UNL     1       1.057 -10.480  -4.715  0.00  0.00    +0.163 HD
ENDBRANCH   5  19
BRANCH   1  22
ATOM     22  S   UNL     1       0.366  -6.574  -3.446  0.00  0.00    -0.075 S 
BRANCH  22  23
ATOM     23  C   UNL     1       0.347  -4.795  -3.799  0.00  0.00    +0.173 C 
BRANCH  23  25
ATOM     24  N   UNL     1       0.182  -2.681  -2.525  0.00  0.00    -0.285 N 
ATOM     25  C   UNL     1       0.218  -4.028  -2.508  0.00  0.00    +0.227 C 
ATOM     26  O   UNL     1       0.146  -4.623  -1.454  0.00  0.00    -0.275 OA
ATOM     27  H   UNL     1       0.165  -2.207  -3.371  0.00  0.00    +0.155 HD
BRANCH  24  31
ATOM     28  C   UNL     1       1.590  -2.268   2.167  0.00  0.00    +0.045 C 
ATOM     29  C   UNL     1       0.844  -1.742   0.968  0.00  0.00    -0.035 A 
ATOM     30  C   UNL     1       0.858  -2.451  -0.218  0.00  0.00    +0.027 A 
ATOM     31  C   UNL     1       0.170  -1.966  -1.322  0.00  0.00    +0.034 A 
ATOM     32  C   UNL     1      -0.530  -0.770  -1.231  0.00  0.00    +0.024 A 
ATOM     33  C   UNL     1      -0.541  -0.066  -0.043  0.00  0.00    +0.017 A 
ATOM     34  C   UNL     1       0.141  -0.554   1.058  0.00  0.00    +0.021 A 
ATOM     35 BR   UNL     1       0.118   0.408   2.686  0.00  0.00    -0.050 Br
ENDBRANCH  24  31
ENDBRANCH  23  25
ENDBRANCH  22  23
ENDBRANCH   1  22
TORSDOF 7
