REMARK  Name = ZINC14720898
REMARK  11 active torsions:
REMARK  status: ('A' for Active; 'I' for Inactive)
REMARK    1  A    between atoms: C_1  and  C_2
REMARK    2  A    between atoms: C_2  and  C_3
REMARK    3  A    between atoms: C_3  and  C_4
REMARK    4  A    between atoms: C_4  and  N_5
REMARK    5  A    between atoms: N_5  and  C_6
REMARK    6  A    between atoms: C_7  and  N_19
REMARK    7  A    between atoms: N_8  and  C_15
REMARK    8  A    between atoms: C_15  and  C_16
REMARK    9  A    between atoms: C_16  and  C_17
REMARK   10  A    between atoms: C_16  and  C_18
REMARK   11  A    between atoms: C_20  and  C_22
REMARK                            x       y       z     vdW  Elec       q    Type
REMARK                         _______ _______ _______ _____ _____    ______ ____
ROOT
ATOM      1  N   UNL     1       0.331  -3.158   2.352  0.00  0.00    -0.259 N 
ATOM      2  C   UNL     1       0.595  -2.566   3.533  0.00  0.00    +0.271 C 
ATOM      3  O   UNL     1       0.458  -1.364   3.655  0.00  0.00    -0.268 OA
ENDROOT
BRANCH   2   4
ATOM      4  C   UNL     1       1.053  -3.378   4.683  0.00  0.00    +0.147 A 
ATOM      5  C   UNL     1       1.209  -2.781   5.933  0.00  0.00    +0.091 A 
ATOM      6  C   UNL     1       1.633  -3.557   7.003  0.00  0.00    +0.083 A 
ATOM      7  C   UNL     1       1.897  -4.902   6.781  0.00  0.00    +0.097 A 
ATOM      8  C   UNL     1       1.725  -5.427   5.507  0.00  0.00    +0.150 A 
ATOM      9  N   UNL     1       1.316  -4.669   4.513  0.00  0.00    -0.228 NA
ATOM     10 CL   UNL     1       2.053  -7.108   5.224  0.00  0.00    -0.060 Cl
ATOM     11 CL   UNL     1       2.438  -5.915   8.082  0.00  0.00    -0.079 Cl
ATOM     12 CL   UNL     1       1.836  -2.861   8.580  0.00  0.00    -0.080 Cl
ATOM     13 CL   UNL     1       0.871  -1.092   6.150  0.00  0.00    -0.080 Cl
ENDBRANCH   2   4
BRANCH   1  14
ATOM     14  C   UNL     1       0.006  -2.373   1.227  0.00  0.00    +0.140 A 
ATOM     15  C   UNL     1      -1.261  -2.418   0.682  0.00  0.00    +0.127 A 
ATOM     16  N   UNL     1      -1.548  -1.640  -0.416  0.00  0.00    -0.280 N 
ATOM     17  C   UNL     1      -0.602  -0.849  -0.955  0.00  0.00    +0.331 A 
ATOM     18  O   UNL     1      -0.874  -0.172  -1.928  0.00  0.00    -0.246 OA
ATOM     19  N   UNL     1       0.636  -0.788  -0.434  0.00  0.00    -0.273 N 
ATOM     20  H   UNL     1       1.318  -0.186  -0.850  0.00  0.00    +0.173 HD
ATOM     21  C   UNL     1       0.969  -1.530   0.640  0.00  0.00    +0.277 A 
ATOM     22  O   UNL     1       2.096  -1.471   1.102  0.00  0.00    -0.266 OA
BRANCH  15  23
ATOM     23  N   UNL     1      -2.225  -3.229   1.230  0.00  0.00    -0.343 N 
ATOM     24  H   UNL     1      -3.083  -3.331   0.787  0.00  0.00    +0.144 HD
ATOM     25  H   UNL     1      -2.049  -3.701   2.058  0.00  0.00    +0.144 HD
ENDBRANCH  15  23
BRANCH  16  26
ATOM     26  C   UNL     1      -2.889  -1.677  -1.005  0.00  0.00    +0.131 C 
BRANCH  26  27
ATOM     27  C   UNL     1      -3.767  -0.615  -0.340  0.00  0.00    +0.003 C 
ATOM     28  C   UNL     1      -5.128  -0.569  -1.039  0.00  0.00    +0.009 C 
ATOM     29  C   UNL     1      -3.963  -0.966   1.136  0.00  0.00    +0.009 C 
ENDBRANCH  26  27
ENDBRANCH  16  26
ENDBRANCH   1  14
BRANCH   1  30
ATOM     30  C   UNL     1       0.381  -4.618   2.237  0.00  0.00    +0.114 C 
BRANCH  30  31
ATOM     31  C   UNL     1       1.810  -5.055   1.911  0.00  0.00    +0.019 C 
BRANCH  31  33
ATOM     32  C   UNL     1       3.292  -7.017   1.466  0.00  0.00    +0.004 C 
ATOM     33  C   UNL     1       1.862  -6.580   1.792  0.00  0.00    -0.002 C 
ENDBRANCH  31  33
ENDBRANCH  30  31
ENDBRANCH   1  30
TORSDOF 8
