REMARK  Name = ZINC08490567
REMARK  10 active torsions:
REMARK  status: ('A' for Active; 'I' for Inactive)
REMARK    1  A    between atoms: C_1  and  C_2
REMARK    2  A    between atoms: C_3  and  C_15
REMARK    3  A    between atoms: C_9  and  O_14
REMARK    4  A    between atoms: C_11  and  O_13
REMARK    5  A    between atoms: C_15  and  C_16
REMARK    6  A    between atoms: N_18  and  C_19
REMARK    7  A    between atoms: C_19  and  C_21
REMARK    8  A    between atoms: C_19  and  C_22
REMARK    9  A    between atoms: C_22  and  C_23
REMARK   10  A    between atoms: C_23  and  C_24
REMARK                            x       y       z     vdW  Elec       q    Type
REMARK                         _______ _______ _______ _____ _____    ______ ____
ROOT
ATOM      1  C   UNL     1       4.938   1.416  -0.039  0.00  0.00    +0.045 C 
ATOM      2  C   UNL     1       3.612   2.132  -0.022  0.00  0.00    -0.026 A 
ATOM      3  C   UNL     1       3.559   3.488   0.030  0.00  0.00    +0.049 A 
ATOM      4  C   UNL     1       2.311   4.143   0.044  0.00  0.00    +0.341 A 
ATOM      5  O   UNL     1       2.272   5.359   0.091  0.00  0.00    -0.245 OA
ATOM      6  O   UNL     1       1.163   3.445   0.009  0.00  0.00    -0.422 OA
ATOM      7  C   UNL     1       1.172   2.094  -0.043  0.00  0.00    +0.146 A 
ATOM      8  C   UNL     1       2.397   1.401  -0.059  0.00  0.00    +0.062 A 
ATOM      9  C   UNL     1       2.405  -0.004  -0.113  0.00  0.00    +0.131 A 
ATOM     10  C   UNL     1       1.209  -0.693  -0.149  0.00  0.00    +0.091 A 
ATOM     11  C   UNL     1       0.002  -0.001  -0.133  0.00  0.00    +0.124 A 
ATOM     12  C   UNL     1      -0.017   1.384  -0.080  0.00  0.00    +0.092 A 
ENDROOT
BRANCH  11  13
ATOM     13  O   UNL     1      -1.168  -0.689  -0.168  0.00  0.00    -0.507 OA
ATOM     14  H   UNL     1      -2.125  -0.147  -0.155  0.00  0.00    +0.292 HD
ENDBRANCH  11  13
BRANCH   9  15
ATOM     15  O   UNL     1       3.582  -0.679  -0.130  0.00  0.00    -0.506 OA
ATOM     16  H   UNL     1       3.585  -1.778  -0.172  0.00  0.00    +0.292 HD
ENDBRANCH   9  15
BRANCH   3  17
ATOM     17  C   UNL     1       4.833   4.292   0.071  0.00  0.00    +0.138 C 
BRANCH  17  18
ATOM     18  C   UNL     1       5.246   4.506   1.504  0.00  0.00    +0.218 C 
ATOM     19  O   UNL     1       4.572   4.050   2.404  0.00  0.00    -0.275 OA
ATOM     20  N   UNL     1       6.364   5.203   1.787  0.00  0.00    -0.312 N 
ATOM     21  H   UNL     1       6.976   5.617   0.971  0.00  0.00    +0.149 HD
BRANCH  20  22
ATOM     22  C   UNL     1       6.766   5.411   3.180  0.00  0.00    +0.070 C 
ATOM     23  C   UNL     1       7.573   4.204   3.664  0.00  0.00    +0.028 C 
BRANCH  22  24
ATOM     24  C   UNL     1       7.626   6.672   3.281  0.00  0.00    +0.026 C 
BRANCH  24  25
ATOM     25  C   UNL     1       6.782   7.895   2.916  0.00  0.00    +0.037 C 
BRANCH  25  26
ATOM     26  C   UNL     1       7.628   9.138   3.015  0.00  0.00    -0.047 A 
ATOM     27  C   UNL     1       7.696   9.835   4.207  0.00  0.00    +0.003 A 
ATOM     28  C   UNL     1       8.477  10.972   4.300  0.00  0.00    +0.000 A 
ATOM     29  C   UNL     1       9.182  11.418   3.197  0.00  0.00    +0.000 A 
ATOM     30  C   UNL     1       9.110  10.724   2.004  0.00  0.00    +0.000 A 
ATOM     31  C   UNL     1       8.333   9.584   1.913  0.00  0.00    +0.003 A 
ENDBRANCH  25  26
ENDBRANCH  24  25
ENDBRANCH  22  24
ENDBRANCH  20  22
ENDBRANCH  17  18
ENDBRANCH   3  17
TORSDOF 8
