REMARK  Name = ZINC06361181
REMARK  5 active torsions:
REMARK  status: ('A' for Active; 'I' for Inactive)
REMARK    1  A    between atoms: C_1  and  C_2
REMARK    2  A    between atoms: C_2  and  C_16
REMARK    3  A    between atoms: N_3  and  N_4
REMARK    4  A    between atoms: C_5  and  C_10
REMARK    5  A    between atoms: C_20  and  N_22
REMARK                            x       y       z     vdW  Elec       q    Type
REMARK                         _______ _______ _______ _____ _____    ______ ____
ROOT
ATOM      1  N   UNL     1       0.123   0.026   2.348  0.00  0.00    -0.188 N 
ATOM      2  C   UNL     1      -0.690  -0.198   3.402  0.00  0.00    +0.184 A 
ATOM      3  N   UNL     1      -0.362   0.671   4.361  0.00  0.00    -0.152 NA
ATOM      4  N   UNL     1       0.606   1.413   3.949  0.00  0.00    -0.253 N 
ATOM      5  C   UNL     1       0.943   1.040   2.699  0.00  0.00    +0.197 A 
ATOM      6  S   UNL     1       2.178   1.726   1.733  0.00  0.00    -0.010 S 
ATOM      7  H   UNL     1       1.027   2.124   4.458  0.00  0.00    +0.191 HD
ENDROOT
BRANCH   2   8
ATOM      8  C   UNL     1      -1.748  -1.218   3.481  0.00  0.00    +0.021 A 
ATOM      9  C   UNL     1      -1.983  -2.074   2.397  0.00  0.00    +0.011 A 
ATOM     10  C   UNL     1      -2.975  -3.026   2.479  0.00  0.00    +0.001 A 
ATOM     11  C   UNL     1      -3.740  -3.139   3.629  0.00  0.00    +0.000 A 
ATOM     12  C   UNL     1      -3.514  -2.297   4.705  0.00  0.00    +0.001 A 
ATOM     13  C   UNL     1      -2.522  -1.343   4.642  0.00  0.00    +0.011 A 
ENDBRANCH   2   8
BRANCH   1  16
ATOM     14  C   UNL     1      -0.675   1.391   0.075  0.00  0.00    +0.068 C 
ATOM     15  C   UNL     1      -0.199  -0.038   0.022  0.00  0.00    +0.066 C 
ATOM     16  N   UNL     1       0.121  -0.664   1.129  0.00  0.00    -0.167 NA
BRANCH  15  17
ATOM     17  C   UNL     1      -0.092  -0.728  -1.268  0.00  0.00    -0.000 A 
ATOM     18  C   UNL     1      -0.427  -0.060  -2.456  0.00  0.00    +0.010 A 
ATOM     19  C   UNL     1      -0.323  -0.716  -3.662  0.00  0.00    +0.003 A 
ATOM     20  C   UNL     1       0.111  -2.032  -3.705  0.00  0.00    +0.033 A 
ATOM     21  C   UNL     1       0.443  -2.700  -2.538  0.00  0.00    +0.127 A 
ATOM     22  C   UNL     1       0.351  -2.058  -1.322  0.00  0.00    +0.042 A 
BRANCH  21  23
ATOM     23  N   UNL     1       0.905  -4.105  -2.597  0.00  0.00    +0.056 N 
ATOM     24  O   UNL     1       0.999  -4.718  -3.759  0.00  0.00    -0.126 OA
ATOM     25  O   UNL     1       1.222  -4.741  -1.489  0.00  0.00    -0.126 OA
ENDBRANCH  21  23
ENDBRANCH  15  17
ENDBRANCH   1  16
TORSDOF 4
