REMARK  Name = ZINC36648024
REMARK  11 active torsions:
REMARK  status: ('A' for Active; 'I' for Inactive)
REMARK    1  A    between atoms: C_1  and  C_2
REMARK    2  A    between atoms: C_2  and  C_3
REMARK    3  A    between atoms: C_3  and  N_4
REMARK    4  A    between atoms: C_10  and  N_17
REMARK    5  A    between atoms: C_11  and  C_12
REMARK    6  A    between atoms: C_12  and  O_14
REMARK    7  A    between atoms: O_14  and  C_15
REMARK    8  A    between atoms: C_15  and  C_16
REMARK    9  A    between atoms: C_18  and  C_20
REMARK   10  A    between atoms: N_26  and  S_27
REMARK   11  A    between atoms: S_27  and  C_30
REMARK                            x       y       z     vdW  Elec       q    Type
REMARK                         _______ _______ _______ _____ _____    ______ ____
ROOT
ATOM      1  N   UNL     1       1.216  -1.712   0.923  0.00  0.00    +0.383 N 
ATOM      2  C   UNL     1       2.044  -2.077   2.079  0.00  0.00    -0.074 C 
ATOM      3  C   UNL     1       1.874  -3.565   2.402  0.00  0.00    +0.018 C 
ATOM      4  C   UNL     1       2.113  -4.352   1.121  0.00  0.00    -0.025 A 
ATOM      5  C   UNL     1       2.075  -3.727  -0.077  0.00  0.00    -0.021 A 
ATOM      6  S   UNL     1       2.405  -5.001  -1.256  0.00  0.00    -0.079 S 
ATOM      7  C   UNL     1       2.585  -6.311  -0.220  0.00  0.00    +0.086 A 
ATOM      8  C   UNL     1       2.392  -5.773   1.045  0.00  0.00    +0.091 A 
ATOM      9  C   UNL     1       1.806  -2.273  -0.306  0.00  0.00    -0.035 C 
ATOM     10  H   UNL     1       0.285  -2.080   1.047  0.00  0.00    -0.081 HD
ENDROOT
BRANCH   7  11
ATOM     11  N   UNL     1       2.861  -7.628  -0.552  0.00  0.00    -0.278 N 
ATOM     12  C   UNL     1       3.019  -7.979  -1.844  0.00  0.00    +0.236 C 
ATOM     13  O   UNL     1       2.919  -7.141  -2.716  0.00  0.00    -0.274 OA
ATOM     14  H   UNL     1       2.941  -8.298   0.145  0.00  0.00    +0.155 HD
BRANCH  12  15
ATOM     15  C   UNL     1       3.320  -9.410  -2.205  0.00  0.00    +0.166 C 
ATOM     16  C   UNL     1       4.696  -9.493  -2.873  0.00  0.00    +0.030 C 
ATOM     17  C   UNL     1       4.936 -10.924  -3.362  0.00  0.00    +0.003 C 
ATOM     18  C   UNL     1       3.873 -11.295  -4.398  0.00  0.00    +0.017 C 
ATOM     19  C   UNL     1       2.487 -11.233  -3.748  0.00  0.00    +0.110 C 
ATOM     20  N   UNL     1       2.304  -9.905  -3.145  0.00  0.00    -0.164 NA
BRANCH  20  21
ATOM     21  S   UNL     1       0.982  -8.982  -3.521  0.00  0.00    +0.068 S 
ATOM     22  O   UNL     1      -0.039  -9.882  -3.930  0.00  0.00    -0.152 OA
ATOM     23  O   UNL     1       0.806  -8.068  -2.447  0.00  0.00    -0.152 OA
BRANCH  21  24
ATOM     24  C   UNL     1       1.403  -8.021  -4.937  0.00  0.00    +0.143 A 
ATOM     25  C   UNL     1       1.244  -8.320  -6.249  0.00  0.00    +0.036 A 
ATOM     26  C   UNL     1       1.651  -7.402  -7.200  0.00  0.00    +0.010 A 
ATOM     27  C   UNL     1       2.197  -6.231  -6.791  0.00  0.00    +0.047 A 
ATOM     28  S   UNL     1       2.141  -6.397  -5.014  0.00  0.00    -0.077 S 
ENDBRANCH  21  24
ENDBRANCH  20  21
ENDBRANCH  12  15
ENDBRANCH   7  11
BRANCH   8  29
ATOM     29  C   UNL     1       2.468  -6.603   2.249  0.00  0.00    +0.342 C 
ATOM     30  O   UNL     1       1.467  -7.146   2.676  0.00  0.00    -0.245 OA
BRANCH  29  31
ATOM     31  O   UNL     1       3.647  -6.765   2.883  0.00  0.00    -0.461 OA
BRANCH  31  32
ATOM     32  C   UNL     1       3.648  -7.588   4.051  0.00  0.00    +0.229 C 
ATOM     33  C   UNL     1       5.063  -7.653   4.629  0.00  0.00    +0.048 C 
ENDBRANCH  31  32
ENDBRANCH  29  31
ENDBRANCH   8  29
BRANCH   1  34
ATOM     34  C   UNL     1       1.151  -0.248   0.810  0.00  0.00    -0.079 C 
BRANCH  34  36
ATOM     35  C   UNL     1       0.119   1.659  -0.431  0.00  0.00    +0.002 C 
ATOM     36  C   UNL     1       0.186   0.135  -0.314  0.00  0.00    -0.022 C 
ENDBRANCH  34  36
ENDBRANCH   1  34
TORSDOF 9
