REMARK  Name = ZINC01076877
REMARK  11 active torsions:
REMARK  status: ('A' for Active; 'I' for Inactive)
REMARK    1  A    between atoms: C_1  and  C_2
REMARK    2  A    between atoms: C_9  and  N_40
REMARK    3  A    between atoms: C_10  and  C_38
REMARK    4  A    between atoms: C_14  and  O_27
REMARK    5  A    between atoms: C_21  and  C_25
REMARK    6  A    between atoms: C_21  and  C_26
REMARK    7  A    between atoms: C_23  and  C_24
REMARK    8  A    between atoms: O_27  and  C_28
REMARK    9  A    between atoms: C_28  and  C_30
REMARK   10  A    between atoms: C_35  and  O_36
REMARK   11  A    between atoms: O_36  and  C_37
REMARK                            x       y       z     vdW  Elec       q    Type
REMARK                         _______ _______ _______ _____ _____    ______ ____
ROOT
ATOM      1  C   UNL     1       0.070   1.721   0.058  0.00  0.00    +0.068 C 
ATOM      2  C   UNL     1       0.107   0.218   0.163  0.00  0.00    +0.068 A 
ATOM      3  C   UNL     1       0.091  -0.673  -0.900  0.00  0.00    +0.061 A 
ATOM      4  C   UNL     1       0.139  -1.942  -0.390  0.00  0.00    +0.223 A 
ATOM      5  N   UNL     1       0.182  -1.839   0.948  0.00  0.00    -0.246 N 
ATOM      6  H   UNL     1       0.221  -2.577   1.577  0.00  0.00    +0.192 HD
ATOM      7  N   UNL     1       0.167  -0.474   1.276  0.00  0.00    -0.176 NA
ATOM      8  O   UNL     1       0.139  -3.047  -1.177  0.00  0.00    -0.423 OA
ATOM      9  C   UNL     1      -0.177  -2.895  -2.479  0.00  0.00    +0.201 C 
ATOM     10  C   UNL     1      -0.245  -1.694  -3.100  0.00  0.00    +0.110 C 
ATOM     11  C   UNL     1       0.033  -0.405  -2.378  0.00  0.00    +0.145 C 
ATOM     12  C   UNL     1       1.288   0.236  -2.868  0.00  0.00    +0.003 A 
ATOM     13  C   UNL     1       2.617  -0.130  -2.902  0.00  0.00    +0.053 A 
ATOM     14  C   UNL     1       3.521   0.778  -3.463  0.00  0.00    +0.133 A 
ATOM     15  C   UNL     1       3.124   2.008  -3.975  0.00  0.00    +0.056 A 
ATOM     16  C   UNL     1       1.791   2.381  -3.943  0.00  0.00    +0.003 A 
ATOM     17  C   UNL     1       0.888   1.461  -3.377  0.00  0.00    +0.050 A 
ATOM     18  N   UNL     1      -0.481   1.670  -3.263  0.00  0.00    -0.260 N 
ATOM     19  C   UNL     1      -1.062   0.604  -2.679  0.00  0.00    +0.241 C 
ATOM     20  O   UNL     1      -2.244   0.473  -2.438  0.00  0.00    -0.273 OA
ATOM     21  C   UNL     1      -1.109   2.908  -3.740  0.00  0.00    +0.055 C 
ATOM     22  C   UNL     1      -0.099   3.844  -4.332  0.00  0.00    +0.002 C 
ATOM     23  C   UNL     1       1.203   3.634  -4.436  0.00  0.00    -0.043 C 
ATOM     24  C   UNL     1       2.086   4.683  -5.062  0.00  0.00    +0.044 C 
ATOM     25  C   UNL     1      -1.804   3.601  -2.567  0.00  0.00    +0.036 C 
ATOM     26  C   UNL     1      -2.152   2.562  -4.804  0.00  0.00    +0.036 C 
ENDROOT
BRANCH   9  27
ATOM     27  N   UNL     1      -0.444  -4.022  -3.216  0.00  0.00    -0.328 N 
ATOM     28  H   UNL     1      -0.403  -4.896  -2.798  0.00  0.00    +0.145 HD
ATOM     29  H   UNL     1      -0.674  -3.944  -4.155  0.00  0.00    +0.145 HD
ENDBRANCH   9  27
BRANCH  10  30
ATOM     30  C   UNL     1      -0.593  -1.650  -4.488  0.00  0.00    +0.102 C 
ATOM     31  N   UNL     1      -0.869  -1.616  -5.590  0.00  0.00    -0.191 NA
ENDBRANCH  10  30
BRANCH  14  32
ATOM     32  O   UNL     1       4.838   0.446  -3.510  0.00  0.00    -0.422 OA
BRANCH  32  33
ATOM     33  C   UNL     1       5.212  -0.543  -4.346  0.00  0.00    +0.348 C 
ATOM     34  O   UNL     1       4.401  -1.036  -5.104  0.00  0.00    -0.244 OA
BRANCH  33  35
ATOM     35  C   UNL     1       6.605  -1.026  -4.340  0.00  0.00    +0.101 A 
ATOM     36  C   UNL     1       7.540  -0.466  -3.465  0.00  0.00    +0.018 A 
ATOM     37  C   UNL     1       8.839  -0.922  -3.464  0.00  0.00    +0.001 A 
ATOM     38  C   UNL     1       9.225  -1.935  -4.328  0.00  0.00    +0.004 A 
ATOM     39  C   UNL     1       8.312  -2.497  -5.197  0.00  0.00    +0.046 A 
ATOM     40  C   UNL     1       6.998  -2.054  -5.208  0.00  0.00    +0.134 A 
BRANCH  40  41
ATOM     41  O   UNL     1       6.098  -2.610  -6.058  0.00  0.00    -0.494 OA
ATOM     42  C   UNL     1       6.572  -3.653  -6.912  0.00  0.00    +0.277 C 
ENDBRANCH  40  41
ENDBRANCH  33  35
ENDBRANCH  32  33
ENDBRANCH  14  32
TORSDOF 6
