REMARK  Name = ZINC19912592
REMARK  9 active torsions:
REMARK  status: ('A' for Active; 'I' for Inactive)
REMARK    1  A    between atoms: C_1  and  C_2
REMARK    2  A    between atoms: C_5  and  C_8
REMARK    3  A    between atoms: N_10  and  C_11
REMARK    4  A    between atoms: C_11  and  C_26
REMARK    5  A    between atoms: C_12  and  C_13
REMARK    6  A    between atoms: C_16  and  C_18
REMARK    7  A    between atoms: N_28  and  C_29
REMARK    8  A    between atoms: C_29  and  C_30
REMARK    9  A    between atoms: C_29  and  C_31
REMARK                            x       y       z     vdW  Elec       q    Type
REMARK                         _______ _______ _______ _____ _____    ______ ____
ROOT
ATOM      1  C   UNL     1       0.036  -0.027   0.157  0.00  0.00    +0.100 C 
ATOM      2  C   UNL     1       1.235  -0.608  -0.123  0.00  0.00    +0.074 C 
ENDROOT
BRANCH   2   3
ATOM      3  C   UNL     1       2.417   0.167  -0.109  0.00  0.00    +0.131 A 
ATOM      4  C   UNL     1       3.701  -0.307  -0.304  0.00  0.00    +0.050 A 
ATOM      5  C   UNL     1       4.555   0.795  -0.211  0.00  0.00    +0.050 A 
ATOM      6  C   UNL     1       3.776   1.888   0.043  0.00  0.00    +0.137 A 
ATOM      7  O   UNL     1       2.490   1.498   0.101  0.00  0.00    -0.455 OA
BRANCH   6   8
ATOM      8  C   UNL     1       4.264   3.269   0.222  0.00  0.00    +0.036 A 
ATOM      9  C   UNL     1       5.308   3.534   1.112  0.00  0.00    +0.014 A 
ATOM     10  C   UNL     1       5.764   4.826   1.270  0.00  0.00    +0.021 A 
ATOM     11  C   UNL     1       5.181   5.862   0.559  0.00  0.00    +0.042 A 
ATOM     12  C   UNL     1       4.142   5.608  -0.321  0.00  0.00    +0.040 A 
ATOM     13  C   UNL     1       3.680   4.319  -0.493  0.00  0.00    +0.053 A 
ATOM     14 CL   UNL     1       2.377   4.002  -1.596  0.00  0.00    -0.083 Cl
ATOM     15 CL   UNL     1       5.756   7.486   0.771  0.00  0.00    -0.083 Cl
ENDBRANCH   6   8
ENDBRANCH   2   3
BRANCH   1  18
ATOM     16  C   UNL     1      -0.770   2.165  -0.299  0.00  0.00    +0.248 C 
ATOM     17  O   UNL     1      -1.467   1.713  -1.187  0.00  0.00    -0.270 OA
ATOM     18  N   UNL     1      -0.025   1.338   0.461  0.00  0.00    -0.277 N 
ATOM     19  H   UNL     1       0.534   1.735   1.321  0.00  0.00    +0.155 HD
BRANCH  16  24
ATOM     20  C   UNL     1      -0.648   7.838   0.655  0.00  0.00    +0.044 C 
ATOM     21  C   UNL     1      -0.680   6.353   0.406  0.00  0.00    -0.050 A 
ATOM     22  C   UNL     1      -1.474   5.841  -0.605  0.00  0.00    +0.004 A 
ATOM     23  C   UNL     1      -1.508   4.482  -0.839  0.00  0.00    +0.013 A 
ATOM     24  C   UNL     1      -0.739   3.622  -0.054  0.00  0.00    +0.037 A 
ATOM     25  C   UNL     1       0.056   4.144   0.968  0.00  0.00    +0.013 A 
ATOM     26  C   UNL     1       0.086   5.506   1.188  0.00  0.00    +0.004 A 
ENDBRANCH  16  24
ENDBRANCH   1  18
BRANCH   1  27
ATOM     27  C   UNL     1      -1.189  -0.829   0.139  0.00  0.00    +0.259 C 
ATOM     28  O   UNL     1      -1.152  -1.989  -0.228  0.00  0.00    -0.269 OA
ATOM     29  N   UNL     1      -2.358  -0.282   0.527  0.00  0.00    -0.308 N 
ATOM     30  H   UNL     1      -2.408   0.787   0.780  0.00  0.00    +0.149 HD
BRANCH  29  31
ATOM     31  C   UNL     1      -3.562  -1.112   0.613  0.00  0.00    +0.067 C 
ATOM     32  C   UNL     1      -4.539  -0.492   1.615  0.00  0.00    +0.027 C 
ATOM     33  C   UNL     1      -4.226  -1.192  -0.763  0.00  0.00    +0.027 C 
ENDBRANCH  29  31
ENDBRANCH   1  27
TORSDOF 6
