REMARK  Name = ZINC38550159
REMARK  11 active torsions:
REMARK  status: ('A' for Active; 'I' for Inactive)
REMARK    1  A    between atoms: C_1  and  C_2
REMARK    2  A    between atoms: C_2  and  C_4
REMARK    3  A    between atoms: C_2  and  N_21
REMARK    4  A    between atoms: N_6  and  C_7
REMARK    5  A    between atoms: C_15  and  C_17
REMARK    6  A    between atoms: C_17  and  O_19
REMARK    7  A    between atoms: O_19  and  C_20
REMARK    8  A    between atoms: C_26  and  O_33
REMARK    9  A    between atoms: C_27  and  O_31
REMARK   10  A    between atoms: O_31  and  C_32
REMARK   11  A    between atoms: O_33  and  C_34
REMARK                            x       y       z     vdW  Elec       q    Type
REMARK                         _______ _______ _______ _____ _____    ______ ____
ROOT
ATOM      1  C   UNL     1       0.510  -0.472  -1.375  0.00  0.00    +0.203 C 
ATOM      2  O   UNL     1       1.318  -1.363  -1.222  0.00  0.00    -0.277 OA
ATOM      3  N   UNL     1       0.244  -0.008  -2.612  0.00  0.00    -0.288 N 
ATOM      4  H   UNL     1      -0.458   0.649  -2.743  0.00  0.00    +0.155 HD
ENDROOT
BRANCH   3   5
ATOM      5  C   UNL     1       0.961  -0.461  -3.678  0.00  0.00    +0.053 C 
ATOM      6  C   UNL     1       0.726  -0.195  -5.016  0.00  0.00    +0.018 A 
ATOM      7  C   UNL     1      -0.259   0.575  -5.678  0.00  0.00    +0.011 A 
ATOM      8  C   UNL     1      -0.248   0.661  -7.031  0.00  0.00    +0.001 A 
ATOM      9  C   UNL     1       0.718   0.004  -7.799  0.00  0.00    +0.002 A 
ATOM     10  C   UNL     1       1.690  -0.751  -7.233  0.00  0.00    +0.026 A 
ATOM     11  C   UNL     1       1.746  -0.889  -5.822  0.00  0.00    +0.045 A 
ATOM     12  N   UNL     1       2.575  -1.553  -5.043  0.00  0.00    -0.367 N 
ATOM     13  C   UNL     1       2.182  -1.353  -3.644  0.00  0.00    +0.234 C 
ATOM     14  H   UNL     1       3.327  -2.085  -5.345  0.00  0.00    +0.161 HD
BRANCH  13  15
ATOM     15  C   UNL     1       3.294  -0.682  -2.880  0.00  0.00    +0.335 C 
ATOM     16  O   UNL     1       4.085   0.025  -3.460  0.00  0.00    -0.248 OA
BRANCH  15  17
ATOM     17  O   UNL     1       3.406  -0.869  -1.556  0.00  0.00    -0.466 OA
ATOM     18  C   UNL     1       4.484  -0.202  -0.895  0.00  0.00    +0.280 C 
ENDBRANCH  15  17
ENDBRANCH  13  15
ENDBRANCH   3   5
BRANCH   1  20
ATOM     19  C   UNL     1       0.113   1.611  -0.090  0.00  0.00    -0.004 C 
ATOM     20  C   UNL     1      -0.198   0.116  -0.181  0.00  0.00    +0.017 C 
BRANCH  20  21
ATOM     21  N   UNL     1       0.263  -0.555   1.042  0.00  0.00    +0.390 N 
ATOM     22  C   UNL     1      -0.045  -1.991   0.961  0.00  0.00    -0.073 C 
ATOM     23  C   UNL     1       0.704  -2.715   2.080  0.00  0.00    +0.017 C 
ATOM     24  C   UNL     1       0.438  -2.031   3.397  0.00  0.00    -0.044 A 
ATOM     25  C   UNL     1       0.731  -2.712   4.569  0.00  0.00    +0.053 A 
ATOM     26  C   UNL     1       0.504  -2.118   5.798  0.00  0.00    +0.162 A 
ATOM     27  C   UNL     1      -0.019  -0.829   5.854  0.00  0.00    +0.162 A 
ATOM     28  C   UNL     1      -0.310  -0.155   4.682  0.00  0.00    +0.051 A 
ATOM     29  C   UNL     1      -0.083  -0.755   3.452  0.00  0.00    -0.057 A 
ATOM     30  C   UNL     1      -0.424   0.015   2.204  0.00  0.00    -0.042 C 
ATOM     31  H   UNL     1       1.259  -0.428   1.142  0.00  0.00    -0.080 HD
BRANCH  27  32
ATOM     32  O   UNL     1      -0.245  -0.236   7.057  0.00  0.00    -0.491 OA
ATOM     33  C   UNL     1      -0.783   1.087   7.037  0.00  0.00    +0.277 C 
ENDBRANCH  27  32
BRANCH  26  34
ATOM     34  O   UNL     1       0.791  -2.790   6.945  0.00  0.00    -0.491 OA
ATOM     35  C   UNL     1       1.325  -4.108   6.808  0.00  0.00    +0.277 C 
ENDBRANCH  26  34
ENDBRANCH  20  21
ENDBRANCH   1  20
TORSDOF 7
