REMARK  Name = ZINC01010188
REMARK  4 active torsions:
REMARK  status: ('A' for Active; 'I' for Inactive)
REMARK    1  A    between atoms: C_8  and  C_13
REMARK    2  A    between atoms: C_13  and  C_14
REMARK    3  A    between atoms: N_16  and  C_17
REMARK    4  A    between atoms: C_18  and  C_26
REMARK                            x       y       z     vdW  Elec       q    Type
REMARK                         _______ _______ _______ _____ _____    ______ ____
ROOT
ATOM      1  C   UNL     1       1.636   4.438   0.010  0.00  0.00    +0.220 C 
ATOM      2  O   UNL     1       0.424   4.403   0.021  0.00  0.00    -0.275 OA
ATOM      3  N   UNL     1       2.343   3.290  -0.003  0.00  0.00    -0.279 N 
ATOM      4  H   UNL     1       3.313   3.318  -0.013  0.00  0.00    +0.155 HD
ENDROOT
BRANCH   3   5
ATOM      5  C   UNL     1       1.684   2.069  -0.003  0.00  0.00    +0.090 A 
ATOM      6  C   UNL     1       2.231   0.794  -0.015  0.00  0.00    +0.084 A 
ATOM      7  C   UNL     1       1.313  -0.331  -0.012  0.00  0.00    -0.018 A 
ATOM      8  C   UNL     1       0.002  -0.004   0.002  0.00  0.00    -0.004 A 
ATOM      9  S   UNL     1      -0.022   1.766   0.012  0.00  0.00    -0.077 S 
ATOM     10  C   UNL     1      -1.163  -0.945   0.007  0.00  0.00    +0.043 C 
ATOM     11  C   UNL     1      -0.659  -2.341  -0.383  0.00  0.00    +0.005 C 
ATOM     12  C   UNL     1       0.592  -2.663   0.441  0.00  0.00    +0.005 C 
ATOM     13  C   UNL     1       1.758  -1.788  -0.022  0.00  0.00    +0.037 C 
BRANCH   6  14
ATOM     14  C   UNL     1       3.649   0.596  -0.030  0.00  0.00    +0.102 C 
ATOM     15  N   UNL     1       4.774   0.438  -0.042  0.00  0.00    -0.191 NA
ENDBRANCH   6  14
ENDBRANCH   3   5
BRANCH   1  16
ATOM     16  C   UNL     1       2.352   5.764   0.009  0.00  0.00    +0.127 C 
BRANCH  16  24
ATOM     17  C   UNL     1       1.491   7.489   4.808  0.00  0.00    +0.002 A 
ATOM     18  C   UNL     1       2.409   8.512   4.658  0.00  0.00    +0.002 A 
ATOM     19  C   UNL     1       2.732   8.982   3.398  0.00  0.00    +0.025 A 
ATOM     20  C   UNL     1       2.139   8.420   2.279  0.00  0.00    +0.055 A 
ATOM     21  C   UNL     1       1.201   7.399   2.434  0.00  0.00    +0.049 A 
ATOM     22  C   UNL     1       0.884   6.931   3.697  0.00  0.00    +0.025 A 
ATOM     23  N   UNL     1       0.581   6.870   1.293  0.00  0.00    -0.331 N 
ATOM     24  C   UNL     1       1.324   6.898   0.025  0.00  0.00    +0.166 C 
ATOM     25  C   UNL     1       2.033   8.223  -0.099  0.00  0.00    +0.238 C 
ATOM     26  O   UNL     1       2.222   8.702  -1.197  0.00  0.00    -0.273 OA
ATOM     27  N   UNL     1       2.459   8.879   0.996  0.00  0.00    -0.282 N 
ATOM     28  H   UNL     1      -0.314   6.496   1.339  0.00  0.00    +0.147 HD
ATOM     29  H   UNL     1       2.994   9.682   0.894  0.00  0.00    +0.155 HD
ENDBRANCH  16  24
ENDBRANCH   1  16
TORSDOF 4
