REMARK  Name = ZINC09470664
REMARK  4 active torsions:
REMARK  status: ('A' for Active; 'I' for Inactive)
REMARK    1  A    between atoms: N_10  and  C_11
REMARK    2  A    between atoms: C_11  and  C_12
REMARK    3  A    between atoms: C_12  and  C_14
REMARK    4  A    between atoms: C_14  and  C_26
REMARK                            x       y       z     vdW  Elec       q    Type
REMARK                         _______ _______ _______ _____ _____    ______ ____
ROOT
ATOM      1  C   UNL     1       3.294   5.736  -1.252  0.00  0.00    +0.131 C 
ATOM      2  C   UNL     1       2.291   5.232  -0.413  0.00  0.00    +0.116 C 
ATOM      3  N   UNL     1       2.337   3.934   0.024  0.00  0.00    -0.301 N 
ATOM      4  C   UNL     1       1.132   3.243   0.096  0.00  0.00    +0.044 A 
ATOM      5  C   UNL     1       1.069   1.862   0.035  0.00  0.00    +0.024 A 
ATOM      6  C   UNL     1      -0.157   1.230   0.109  0.00  0.00    +0.002 A 
ATOM      7  C   UNL     1      -1.324   1.968   0.238  0.00  0.00    +0.001 A 
ATOM      8  C   UNL     1      -1.280   3.345   0.306  0.00  0.00    +0.015 A 
ATOM      9  C   UNL     1      -0.050   3.995   0.233  0.00  0.00    +0.058 A 
ATOM     10  C   UNL     1       0.060   5.464   0.296  0.00  0.00    +0.251 C 
ATOM     11  O   UNL     1      -0.891   6.148   0.622  0.00  0.00    -0.270 OA
ATOM     12  N   UNL     1       1.250   6.030  -0.018  0.00  0.00    -0.268 N 
ATOM     13  H   UNL     1       3.301   3.480   0.299  0.00  0.00    +0.153 HD
ATOM     14  H   UNL     1       1.384   7.120   0.042  0.00  0.00    +0.156 HD
ENDROOT
BRANCH   1  15
ATOM     15  C   UNL     1       3.160   7.018  -1.818  0.00  0.00    +0.193 C 
ATOM     16  O   UNL     1       2.214   7.719  -1.518  0.00  0.00    -0.290 OA
BRANCH  15  17
ATOM     17  C   UNL     1       4.191   7.522  -2.795  0.00  0.00    +0.185 C 
BRANCH  17  27
ATOM     18  C   UNL     1       4.130  11.373   0.170  0.00  0.00    +0.000 A 
ATOM     19  C   UNL     1       4.971  10.285   0.025  0.00  0.00    +0.002 A 
ATOM     20  C   UNL     1       4.869   9.479  -1.088  0.00  0.00    +0.023 A 
ATOM     21  C   UNL     1       3.918   9.752  -2.073  0.00  0.00    +0.033 A 
ATOM     22  C   UNL     1       3.075  10.839  -1.921  0.00  0.00    -0.026 A 
ATOM     23  C   UNL     1       3.186  11.647  -0.800  0.00  0.00    +0.005 A 
ATOM     24  C   UNL     1       2.016  11.178  -2.939  0.00  0.00    +0.038 C 
ATOM     25  C   UNL     1       2.298  10.429  -4.244  0.00  0.00    +0.024 C 
ATOM     26  C   UNL     1       2.594   8.965  -3.894  0.00  0.00    +0.106 C 
ATOM     27  N   UNL     1       3.869   8.903  -3.178  0.00  0.00    -0.322 N 
ENDBRANCH  17  27
ENDBRANCH  15  17
ENDBRANCH   1  15
BRANCH   1  28
ATOM     28  C   UNL     1       4.455   4.947  -1.534  0.00  0.00    +0.106 C 
ATOM     29  N   UNL     1       5.377   4.321  -1.757  0.00  0.00    -0.191 NA
ENDBRANCH   1  28
TORSDOF 4
