REMARK  Name = ZINC13721920
REMARK  9 active torsions:
REMARK  status: ('A' for Active; 'I' for Inactive)
REMARK    1  A    between atoms: C_1  and  C_2
REMARK    2  A    between atoms: C_2  and  C_4
REMARK    3  A    between atoms: C_2  and  N_17
REMARK    4  A    between atoms: C_4  and  N_6
REMARK    5  A    between atoms: C_18  and  C_20
REMARK    6  A    between atoms: C_24  and  O_32
REMARK    7  A    between atoms: C_25  and  O_30
REMARK    8  A    between atoms: O_30  and  C_31
REMARK    9  A    between atoms: O_32  and  C_33
REMARK                            x       y       z     vdW  Elec       q    Type
REMARK                         _______ _______ _______ _____ _____    ______ ____
ROOT
ATOM      1  N   UNL     1      -1.381  -0.481   0.027  0.00  0.00    -0.299 N 
ATOM      2  C   UNL     1      -2.066  -0.608  -1.127  0.00  0.00    +0.261 C 
ATOM      3  O   UNL     1      -1.539  -0.312  -2.183  0.00  0.00    -0.269 OA
ATOM      4  H   UNL     1      -1.802  -0.717   0.869  0.00  0.00    +0.150 HD
ENDROOT
BRANCH   2   5
ATOM      5  C   UNL     1      -3.449  -1.103  -1.110  0.00  0.00    +0.103 A 
ATOM      6  C   UNL     1      -4.237  -1.279  -2.203  0.00  0.00    +0.041 A 
ATOM      7  C   UNL     1      -5.488  -1.769  -1.760  0.00  0.00    +0.004 A 
ATOM      8  C   UNL     1      -6.670  -2.127  -2.426  0.00  0.00    +0.059 A 
ATOM      9  C   UNL     1      -7.743  -2.579  -1.711  0.00  0.00    +0.162 A 
ATOM     10  C   UNL     1      -7.673  -2.688  -0.318  0.00  0.00    +0.163 A 
ATOM     11  C   UNL     1      -6.518  -2.340   0.354  0.00  0.00    +0.075 A 
ATOM     12  C   UNL     1      -5.415  -1.878  -0.358  0.00  0.00    +0.051 A 
ATOM     13  N   UNL     1      -4.155  -1.471   0.021  0.00  0.00    -0.350 N 
ATOM     14  H   UNL     1      -3.820  -1.444   0.931  0.00  0.00    +0.166 HD
BRANCH  10  15
ATOM     15  O   UNL     1      -8.749  -3.138   0.378  0.00  0.00    -0.491 OA
ATOM     16  C   UNL     1      -8.612  -3.226   1.798  0.00  0.00    +0.277 C 
ENDBRANCH  10  15
BRANCH   9  17
ATOM     17  O   UNL     1      -8.889  -2.926  -2.358  0.00  0.00    -0.491 OA
ATOM     18  C   UNL     1      -8.896  -2.791  -3.781  0.00  0.00    +0.277 C 
ENDBRANCH   9  17
ENDBRANCH   2   5
BRANCH   1  20
ATOM     19  C   UNL     1      -0.009   1.543   0.017  0.00  0.00    +0.038 C 
ATOM     20  C   UNL     1      -0.002   0.013   0.010  0.00  0.00    +0.158 C 
BRANCH  20  21
ATOM     21  C   UNL     1       0.727  -0.491   1.229  0.00  0.00    +0.258 C 
ATOM     22  O   UNL     1       0.150  -1.196   2.034  0.00  0.00    -0.272 OA
BRANCH  21  23
ATOM     23  N   UNL     1       2.001  -0.166   1.423  0.00  0.00    -0.155 NA
ATOM     24  C   UNL     1       2.615  -0.523   2.549  0.00  0.00    +0.164 A 
ATOM     25  N   UNL     1       2.135  -1.309   3.545  0.00  0.00    -0.335 N 
ATOM     26  H   UNL     1       1.242  -1.683   3.483  0.00  0.00    +0.168 HD
ATOM     27  C   UNL     1       2.921  -1.576   4.650  0.00  0.00    +0.055 A 
ATOM     28  C   UNL     1       2.627  -2.352   5.780  0.00  0.00    +0.027 A 
ATOM     29  C   UNL     1       3.551  -2.501   6.787  0.00  0.00    +0.002 A 
ATOM     30  C   UNL     1       4.793  -1.891   6.717  0.00  0.00    +0.001 A 
ATOM     31  C   UNL     1       5.108  -1.120   5.612  0.00  0.00    +0.017 A 
ATOM     32  C   UNL     1       4.185  -0.971   4.604  0.00  0.00    +0.039 A 
ATOM     33  S   UNL     1       4.163  -0.109   3.054  0.00  0.00    -0.052 S 
ENDBRANCH  21  23
ENDBRANCH  20  21
ENDBRANCH   1  20
TORSDOF 6
