REMARK  Name = ZINC20064417
REMARK  8 active torsions:
REMARK  status: ('A' for Active; 'I' for Inactive)
REMARK    1  A    between atoms: C_1  and  C_2
REMARK    2  A    between atoms: C_7  and  C_8
REMARK    3  A    between atoms: C_10  and  N_30
REMARK    4  A    between atoms: C_12  and  C_28
REMARK    5  A    between atoms: C_12  and  C_29
REMARK    6  A    between atoms: C_13  and  N_25
REMARK    7  A    between atoms: C_15  and  C_18
REMARK    8  A    between atoms: C_23  and  C_24
REMARK                            x       y       z     vdW  Elec       q    Type
REMARK                         _______ _______ _______ _____ _____    ______ ____
ROOT
ATOM      1  C   UNL     1      -1.384   0.994  -3.009  0.00  0.00    +0.115 C 
ATOM      2  C   UNL     1      -2.284  -0.112  -2.454  0.00  0.00    +0.199 C 
ATOM      3  C   UNL     1      -3.678   0.459  -2.182  0.00  0.00    +0.023 C 
ATOM      4  C   UNL     1      -3.558   1.632  -1.205  0.00  0.00    +0.199 C 
ATOM      5  C   UNL     1      -2.621   2.688  -1.796  0.00  0.00    +0.115 C 
ATOM      6  N   UNL     1      -1.301   2.092  -2.038  0.00  0.00    -0.299 NA
ATOM      7  C   UNL     1      -4.565  -0.627  -1.570  0.00  0.00    +0.015 C 
ATOM      8  C   UNL     1      -4.297   0.947  -3.493  0.00  0.00    +0.015 C 
ATOM      9  H   UNL     1      -0.908   1.709  -1.084  0.00  0.00    +0.123 HD
ENDROOT
BRANCH   1  16
ATOM     10  C   UNL     1      -0.800  -0.355  -5.496  0.00  0.00    +0.044 C 
ATOM     11  C   UNL     1       0.274  -0.207  -4.449  0.00  0.00    -0.046 A 
ATOM     12  C   UNL     1       1.537  -0.720  -4.677  0.00  0.00    +0.003 A 
ATOM     13  C   UNL     1       2.522  -0.585  -3.717  0.00  0.00    +0.000 A 
ATOM     14  C   UNL     1       2.243   0.064  -2.528  0.00  0.00    +0.000 A 
ATOM     15  C   UNL     1       0.980   0.577  -2.300  0.00  0.00    +0.005 A 
ATOM     16  C   UNL     1      -0.005   0.441  -3.261  0.00  0.00    -0.025 A 
ENDBRANCH   1  16
BRANCH   5  17
ATOM     17  C   UNL     1      -3.190   3.193  -3.096  0.00  0.00    -0.025 A 
ATOM     18  C   UNL     1      -4.514   2.951  -3.411  0.00  0.00    +0.005 A 
ATOM     19  C   UNL     1      -5.037   3.415  -4.604  0.00  0.00    +0.000 A 
ATOM     20  C   UNL     1      -4.235   4.120  -5.482  0.00  0.00    +0.000 A 
ATOM     21  C   UNL     1      -2.910   4.361  -5.167  0.00  0.00    +0.003 A 
ATOM     22  C   UNL     1      -2.390   3.902  -3.972  0.00  0.00    -0.046 A 
ATOM     23  C   UNL     1      -0.948   4.171  -3.625  0.00  0.00    +0.044 C 
ENDBRANCH   5  17
BRANCH   4  24
ATOM     24  N   UNL     1      -4.880   2.221  -0.982  0.00  0.00    +0.028 N 
ATOM     25  O   UNL     1      -4.995   3.214  -0.285  0.00  0.00    -0.131 OA
ATOM     26  O   UNL     1      -5.865   1.719  -1.494  0.00  0.00    -0.131 OA
ENDBRANCH   4  24
BRANCH   2  27
ATOM     27  N   UNL     1      -1.714  -0.627  -1.207  0.00  0.00    +0.028 N 
ATOM     28  O   UNL     1      -1.548   0.120  -0.259  0.00  0.00    -0.131 OA
ATOM     29  O   UNL     1      -1.405  -1.802  -1.118  0.00  0.00    -0.131 OA
ENDBRANCH   2  27
TORSDOF 4
