REMARK  Name = ZINC36158630
REMARK  12 active torsions:
REMARK  status: ('A' for Active; 'I' for Inactive)
REMARK    1  A    between atoms: C_1  and  C_2
REMARK    2  A    between atoms: C_2  and  C_3
REMARK    3  A    between atoms: C_3  and  N_4
REMARK    4  A    between atoms: N_4  and  C_5
REMARK    5  A    between atoms: N_4  and  C_21
REMARK    6  A    between atoms: C_5  and  C_6
REMARK    7  A    between atoms: C_21  and  C_22
REMARK    8  A    between atoms: C_22  and  C_24
REMARK    9  A    between atoms: C_22  and  O_33
REMARK   10  A    between atoms: C_24  and  O_25
REMARK   11  A    between atoms: O_25  and  C_26
REMARK   12  A    between atoms: C_26  and  C_27
REMARK                            x       y       z     vdW  Elec       q    Type
REMARK                         _______ _______ _______ _____ _____    ______ ____
ROOT
ATOM      1  N   UNL     1       0.874  -2.012  -1.475  0.00  0.00    +0.386 N 
ATOM      2  H   UNL     1       1.399  -2.254  -0.648  0.00  0.00    -0.081 HD
ENDROOT
BRANCH   1   3
ATOM      3  C   UNL     1       0.792  -0.550  -1.593  0.00  0.00    -0.078 C 
BRANCH   3   5
ATOM      4  C   UNL     1       0.262   1.562  -0.368  0.00  0.00    +0.002 C 
ATOM      5  C   UNL     1       0.211   0.034  -0.303  0.00  0.00    -0.022 C 
ENDBRANCH   3   5
ENDBRANCH   1   3
BRANCH   1   6
ATOM      6  C   UNL     1      -0.481  -2.572  -1.377  0.00  0.00    -0.003 C 
BRANCH   6   7
ATOM      7  C   UNL     1      -0.394  -4.047  -1.083  0.00  0.00    +0.094 A 
ATOM      8  N   UNL     1      -1.528  -4.795  -1.085  0.00  0.00    -0.312 N 
ATOM      9  H   UNL     1      -2.378  -4.369  -1.275  0.00  0.00    +0.170 HD
ATOM     10  C   UNL     1      -1.496  -6.116  -0.828  0.00  0.00    +0.260 A 
ATOM     11  O   UNL     1      -2.522  -6.774  -0.834  0.00  0.00    -0.267 OA
ATOM     12  C   UNL     1      -0.234  -6.737  -0.547  0.00  0.00    +0.075 A 
ATOM     13  C   UNL     1       0.040  -8.140  -0.242  0.00  0.00    -0.023 A 
ATOM     14  C   UNL     1       1.327  -8.477  -0.014  0.00  0.00    -0.004 A 
ATOM     15  S   UNL     1       2.235  -6.965  -0.189  0.00  0.00    -0.073 S 
ATOM     16  C   UNL     1       0.880  -5.883  -0.568  0.00  0.00    +0.116 A 
ATOM     17  N   UNL     1       0.770  -4.585  -0.836  0.00  0.00    -0.229 NA
ATOM     18  C   UNL     1       1.864  -9.836   0.318  0.00  0.00    +0.043 C 
ATOM     19  C   UNL     1       0.689 -10.735   0.727  0.00  0.00    +0.005 C 
ATOM     20  C   UNL     1      -0.431 -10.579  -0.305  0.00  0.00    +0.005 C 
ATOM     21  C   UNL     1      -1.064  -9.193  -0.181  0.00  0.00    +0.037 C 
ENDBRANCH   6   7
ENDBRANCH   1   6
BRANCH   1  22
ATOM     22  C   UNL     1       1.546  -2.562  -2.660  0.00  0.00    -0.044 C 
BRANCH  22  23
ATOM     23  C   UNL     1       2.997  -2.077  -2.695  0.00  0.00    +0.124 C 
BRANCH  23  24
ATOM     24  O   UNL     1       3.705  -2.613  -1.575  0.00  0.00    -0.391 OA
ATOM     25  H   UNL     1       3.728  -3.579  -1.550  0.00  0.00    +0.210 HD
ENDBRANCH  23  24
BRANCH  23  26
ATOM     26  C   UNL     1       3.660  -2.546  -3.991  0.00  0.00    +0.189 C 
BRANCH  26  27
ATOM     27  O   UNL     1       4.977  -1.996  -4.078  0.00  0.00    -0.373 OA
BRANCH  27  28
ATOM     28  C   UNL     1       5.688  -2.375  -5.258  0.00  0.00    +0.195 C 
BRANCH  28  29
ATOM     29  C   UNL     1       7.056  -1.743  -5.245  0.00  0.00    -0.022 A 
ATOM     30  C   UNL     1       7.244  -0.493  -5.805  0.00  0.00    +0.006 A 
ATOM     31  C   UNL     1       8.499   0.087  -5.793  0.00  0.00    +0.000 A 
ATOM     32  C   UNL     1       9.565  -0.582  -5.221  0.00  0.00    +0.000 A 
ATOM     33  C   UNL     1       9.376  -1.831  -4.660  0.00  0.00    +0.000 A 
ATOM     34  C   UNL     1       8.120  -2.410  -4.668  0.00  0.00    +0.006 A 
ENDBRANCH  28  29
ENDBRANCH  27  28
ENDBRANCH  26  27
ENDBRANCH  23  26
ENDBRANCH  22  23
ENDBRANCH   1  22
TORSDOF 11
