REMARK  Name = ZINC35642193
REMARK  9 active torsions:
REMARK  status: ('A' for Active; 'I' for Inactive)
REMARK    1  A    between atoms: C_1  and  C_2
REMARK    2  A    between atoms: C_2  and  O_3
REMARK    3  A    between atoms: O_3  and  C_4
REMARK    4  A    between atoms: C_4  and  C_6
REMARK    5  A    between atoms: C_7  and  C_22
REMARK    6  A    between atoms: N_8  and  C_21
REMARK    7  A    between atoms: C_12  and  C_14
REMARK    8  A    between atoms: C_22  and  N_23
REMARK    9  A    between atoms: C_29  and  C_31
REMARK                            x       y       z     vdW  Elec       q    Type
REMARK                         _______ _______ _______ _____ _____    ______ ____
ROOT
ATOM      1  C   UNL     1       1.450  -2.485  -2.851  0.00  0.00    +0.080 C 
ATOM      2  C   UNL     1       1.710  -3.809  -2.889  0.00  0.00    +0.041 C 
ATOM      3  N   UNL     1       2.394  -4.364  -3.932  0.00  0.00    -0.260 N 
ATOM      4  C   UNL     1       2.853  -3.662  -4.976  0.00  0.00    +0.307 C 
ATOM      5  O   UNL     1       3.452  -4.244  -5.859  0.00  0.00    -0.252 OA
ATOM      6  N   UNL     1       2.671  -2.330  -5.080  0.00  0.00    -0.288 N 
ATOM      7  C   UNL     1       1.938  -1.637  -4.008  0.00  0.00    +0.144 C 
ATOM      8  C   UNL     1       2.642  -5.807  -3.908  0.00  0.00    +0.139 C 
ATOM      9  H   UNL     1       3.012  -1.841  -5.846  0.00  0.00    +0.151 HD
ENDROOT
BRANCH   7  10
ATOM     10  C   UNL     1       0.742  -0.955  -4.621  0.00  0.00    -0.021 A 
ATOM     11  C   UNL     1      -0.080  -1.650  -5.490  0.00  0.00    +0.006 A 
ATOM     12  C   UNL     1      -1.177  -1.026  -6.053  0.00  0.00    +0.002 A 
ATOM     13  C   UNL     1      -1.453   0.294  -5.748  0.00  0.00    +0.020 A 
ATOM     14  C   UNL     1      -0.632   0.989  -4.879  0.00  0.00    +0.041 A 
ATOM     15  C   UNL     1       0.463   0.362  -4.311  0.00  0.00    +0.025 A 
ATOM     16 CL   UNL     1      -0.979   2.647  -4.496  0.00  0.00    -0.084 Cl
ENDBRANCH   7  10
BRANCH   1  17
ATOM     17  C   UNL     1       0.740  -1.909  -1.771  0.00  0.00    +0.339 C 
ATOM     18  O   UNL     1      -0.424  -1.586  -1.911  0.00  0.00    -0.245 OA
BRANCH  17  19
ATOM     19  O   UNL     1       1.355  -1.719  -0.585  0.00  0.00    -0.462 OA
BRANCH  19  21
ATOM     20  C   UNL     1       1.439  -0.997   1.720  0.00  0.00    +0.048 C 
ATOM     21  C   UNL     1       0.579  -1.133   0.462  0.00  0.00    +0.229 C 
ENDBRANCH  19  21
ENDBRANCH  17  19
ENDBRANCH   1  17
BRANCH   2  22
ATOM     22  C   UNL     1       1.238  -4.690  -1.761  0.00  0.00    +0.136 C 
BRANCH  22  23
ATOM     23  N   UNL     1       0.230  -5.633  -2.264  0.00  0.00    -0.294 NA
ATOM     24  C   UNL     1      -0.983  -4.926  -2.696  0.00  0.00    +0.104 C 
ATOM     25  C   UNL     1      -1.932  -5.917  -3.378  0.00  0.00    +0.123 C 
ATOM     26  N   UNL     1      -2.163  -7.047  -2.466  0.00  0.00    -0.295 N 
ATOM     27  C   UNL     1      -0.993  -7.720  -1.883  0.00  0.00    +0.123 C 
ATOM     28  C   UNL     1      -0.080  -6.658  -1.259  0.00  0.00    +0.104 C 
ATOM     29  C   UNL     1      -3.413  -7.455  -2.172  0.00  0.00    +0.249 C 
ATOM     30  O   UNL     1      -3.589  -8.328  -1.345  0.00  0.00    -0.270 OA
BRANCH  29  31
ATOM     31  C   UNL     1      -4.570  -6.840  -2.854  0.00  0.00    +0.072 A 
ATOM     32  C   UNL     1      -4.604  -6.765  -4.249  0.00  0.00    +0.016 A 
ATOM     33  C   UNL     1      -5.686  -6.190  -4.880  0.00  0.00    +0.001 A 
ATOM     34  C   UNL     1      -6.740  -5.687  -4.135  0.00  0.00    +0.003 A 
ATOM     35  C   UNL     1      -6.716  -5.756  -2.755  0.00  0.00    +0.039 A 
ATOM     36  C   UNL     1      -5.639  -6.335  -2.108  0.00  0.00    +0.135 A 
ATOM     37  F   UNL     1      -5.618  -6.407  -0.759  0.00  0.00    -0.205 F 
ENDBRANCH  29  31
ENDBRANCH  22  23
ENDBRANCH   2  22
TORSDOF 7
