REMARK  Name = ZINC39683489
REMARK  9 active torsions:
REMARK  status: ('A' for Active; 'I' for Inactive)
REMARK    1  A    between atoms: C_1  and  C_2
REMARK    2  A    between atoms: C_2  and  C_3
REMARK    3  A    between atoms: C_3  and  C_4
REMARK    4  A    between atoms: C_4  and  N_5
REMARK    5  A    between atoms: C_8  and  C_11
REMARK    6  A    between atoms: C_11  and  N_12
REMARK    7  A    between atoms: C_13  and  C_15
REMARK    8  A    between atoms: C_26  and  C_28
REMARK    9  A    between atoms: C_28  and  C_34
REMARK                            x       y       z     vdW  Elec       q    Type
REMARK                         _______ _______ _______ _____ _____    ______ ____
ROOT
ATOM      1  C   UNL     1       3.417  -8.122   7.100  0.00  0.00    +0.100 C 
ATOM      2  C   UNL     1       2.029  -8.721   7.423  0.00  0.00    +0.121 C 
ATOM      3  N   UNL     1       2.316  -9.876   8.306  0.00  0.00    -0.300 N 
ATOM      4  C   UNL     1       3.411  -9.404   9.186  0.00  0.00    +0.115 C 
ATOM      5  C   UNL     1       4.321  -8.572   8.260  0.00  0.00    -0.004 C 
ATOM      6  C   UNL     1       5.466  -9.431   7.734  0.00  0.00    -0.010 C 
ATOM      7  C   UNL     1       6.383  -9.819   8.899  0.00  0.00    -0.082 C 
ATOM      8  N   UNL     1       6.907  -8.605   9.536  0.00  0.00    +0.379 N 
ATOM      9  C   UNL     1       5.806  -7.830  10.120  0.00  0.00    -0.082 C 
ATOM     10  C   UNL     1       4.865  -7.359   9.007  0.00  0.00    -0.010 C 
ATOM     11  C   UNL     1       1.717 -11.084   8.307  0.00  0.00    +0.222 C 
ATOM     12  O   UNL     1       2.009 -11.904   9.152  0.00  0.00    -0.275 OA
ATOM     13  H   UNL     1       7.558  -8.863  10.263  0.00  0.00    -0.086 HD
ATOM     14  H   UNL     1       7.383  -8.044   8.846  0.00  0.00    -0.086 HD
ENDROOT
BRANCH  11  15
ATOM     15  C   UNL     1       0.686 -11.415   7.260  0.00  0.00    +0.044 C 
ATOM     16  C   UNL     1      -0.420 -10.357   7.281  0.00  0.00    +0.016 C 
ATOM     17  C   UNL     1      -1.081 -10.339   8.661  0.00  0.00    +0.001 C 
ATOM     18  C   UNL     1      -1.685 -11.713   8.956  0.00  0.00    +0.000 C 
ATOM     19  C   UNL     1      -0.579 -12.771   8.934  0.00  0.00    +0.001 C 
ATOM     20  C   UNL     1       0.082 -12.789   7.555  0.00  0.00    +0.016 C 
ATOM     21  C   UNL     1       1.347 -11.433   5.880  0.00  0.00    +0.021 C 
ENDBRANCH  11  15
BRANCH   1  23
ATOM     22  N   UNL     1       4.287  -5.917   6.394  0.00  0.00    -0.315 N 
ATOM     23  C   UNL     1       3.339  -6.618   7.048  0.00  0.00    +0.218 C 
ATOM     24  O   UNL     1       2.425  -6.039   7.594  0.00  0.00    -0.275 OA
ATOM     25  H   UNL     1       5.018  -6.381   5.957  0.00  0.00    +0.149 HD
BRANCH  22  26
ATOM     26  C   UNL     1       4.212  -4.455   6.343  0.00  0.00    +0.107 C 
BRANCH  26  30
ATOM     27  N   UNL     1       7.693  -2.145   5.435  0.00  0.00    +0.380 N 
ATOM     28  C   UNL     1       6.485  -1.846   4.657  0.00  0.00    -0.079 C 
ATOM     29  C   UNL     1       5.256  -2.394   5.385  0.00  0.00    -0.014 C 
ATOM     30  C   UNL     1       5.399  -3.911   5.546  0.00  0.00    +0.003 C 
ATOM     31  C   UNL     1       6.700  -4.214   6.294  0.00  0.00    -0.014 C 
ATOM     32  C   UNL     1       7.875  -3.598   5.532  0.00  0.00    -0.079 C 
ATOM     33  H   UNL     1       7.599  -1.756   6.362  0.00  0.00    -0.082 HD
BRANCH  27  34
ATOM     34  C   UNL     1       8.861  -1.550   4.772  0.00  0.00    -0.079 C 
BRANCH  34  35
ATOM     35  C   UNL     1       8.730  -0.025   4.781  0.00  0.00    -0.019 C 
BRANCH  35  37
ATOM     36  C   UNL     1       9.816   2.119   4.100  0.00  0.00    +0.004 C 
ATOM     37  C   UNL     1       9.946   0.595   4.090  0.00  0.00    -0.005 C 
ENDBRANCH  35  37
ENDBRANCH  34  35
ENDBRANCH  27  34
ENDBRANCH  26  30
ENDBRANCH  22  26
ENDBRANCH   1  23
TORSDOF 7
