REMARK  Name = ZINC20762045
REMARK  10 active torsions:
REMARK  status: ('A' for Active; 'I' for Inactive)
REMARK    1  A    between atoms: C_1  and  C_2
REMARK    2  A    between atoms: C_2  and  C_3
REMARK    3  A    between atoms: C_2  and  C_4
REMARK    4  A    between atoms: C_4  and  C_6
REMARK    5  A    between atoms: C_4  and  N_10
REMARK    6  A    between atoms: C_6  and  O_8
REMARK    7  A    between atoms: O_8  and  C_9
REMARK    8  A    between atoms: C_22  and  C_24
REMARK    9  A    between atoms: C_27  and  O_30
REMARK   10  A    between atoms: O_30  and  C_31
REMARK                            x       y       z     vdW  Elec       q    Type
REMARK                         _______ _______ _______ _____ _____    ______ ____
ROOT
ATOM      1  N   UNL     1      -1.240  -2.030   2.720  0.00  0.00    -0.286 N 
ATOM      2  C   UNL     1      -1.282  -2.525   1.467  0.00  0.00    +0.304 C 
ATOM      3  O   UNL     1      -1.453  -1.779   0.523  0.00  0.00    -0.253 OA
ATOM      4  N   UNL     1      -1.133  -3.849   1.261  0.00  0.00    -0.273 N 
ATOM      5  C   UNL     1      -1.057  -4.396  -0.102  0.00  0.00    +0.116 C 
ATOM      6  C   UNL     1      -2.267  -5.306  -0.348  0.00  0.00    +0.076 C 
ATOM      7  C   UNL     1      -2.454  -6.203   0.851  0.00  0.00    +0.066 A 
ATOM      8  C   UNL     1      -1.916  -5.971   2.067  0.00  0.00    +0.064 A 
ATOM      9  N   UNL     1      -2.308  -6.988   2.882  0.00  0.00    -0.346 N 
ATOM     10  H   UNL     1      -2.081  -7.097   3.819  0.00  0.00    +0.167 HD
ATOM     11  C   UNL     1      -3.074  -7.818   2.136  0.00  0.00    +0.197 A 
ATOM     12  N   UNL     1      -3.155  -7.339   0.922  0.00  0.00    -0.240 NA
ATOM     13  C   UNL     1      -1.038  -4.785   2.396  0.00  0.00    +0.156 C 
ATOM     14  H   UNL     1      -1.167  -2.631   3.477  0.00  0.00    +0.151 HD
ENDROOT
BRANCH  13  15
ATOM     15  C   UNL     1       0.391  -5.232   2.574  0.00  0.00    -0.021 A 
ATOM     16  C   UNL     1       1.016  -5.956   1.575  0.00  0.00    +0.009 A 
ATOM     17  C   UNL     1       2.325  -6.367   1.736  0.00  0.00    +0.046 A 
ATOM     18  C   UNL     1       3.012  -6.053   2.899  0.00  0.00    +0.120 A 
ATOM     19  C   UNL     1       2.382  -5.326   3.899  0.00  0.00    +0.046 A 
ATOM     20  C   UNL     1       1.075  -4.913   3.732  0.00  0.00    +0.009 A 
BRANCH  18  21
ATOM     21  O   UNL     1       4.300  -6.457   3.059  0.00  0.00    -0.495 OA
ATOM     22  C   UNL     1       4.945  -6.098   4.283  0.00  0.00    +0.277 C 
ENDBRANCH  18  21
ENDBRANCH  13  15
BRANCH   1  23
ATOM     23  C   UNL     1      -1.306  -0.582   2.937  0.00  0.00    +0.186 C 
BRANCH  23  25
ATOM     24  C   UNL     1      -2.839   1.374   3.193  0.00  0.00    +0.009 C 
ATOM     25  C   UNL     1      -2.770  -0.137   2.966  0.00  0.00    +0.014 C 
ATOM     26  C   UNL     1      -3.435  -0.484   1.633  0.00  0.00    +0.009 C 
ENDBRANCH  23  25
BRANCH  23  27
ATOM     27  C   UNL     1      -0.651  -0.241   4.250  0.00  0.00    +0.328 C 
ATOM     28  O   UNL     1      -0.177  -1.117   4.934  0.00  0.00    -0.249 OA
BRANCH  27  29
ATOM     29  O   UNL     1      -0.593   1.036   4.660  0.00  0.00    -0.467 OA
ATOM     30  C   UNL     1       0.042   1.287   5.915  0.00  0.00    +0.280 C 
ENDBRANCH  27  29
ENDBRANCH  23  27
ENDBRANCH   1  23
TORSDOF 6
