REMARK  Name = ZINC39324792
REMARK  8 active torsions:
REMARK  status: ('A' for Active; 'I' for Inactive)
REMARK    1  A    between atoms: C_1  and  O_2
REMARK    2  A    between atoms: O_2  and  C_3
REMARK    3  A    between atoms: C_8  and  C_15
REMARK    4  A    between atoms: C_15  and  N_16
REMARK    5  A    between atoms: N_16  and  C_17
REMARK    6  A    between atoms: N_16  and  S_27
REMARK    7  A    between atoms: C_17  and  C_18
REMARK    8  A    between atoms: S_27  and  C_30
REMARK                            x       y       z     vdW  Elec       q    Type
REMARK                         _______ _______ _______ _____ _____    ______ ____
ROOT
ATOM      1  N   UNL     1       1.788  -5.977  -5.638  0.00  0.00    -0.171 NA
ENDROOT
BRANCH   1   2
ATOM      2  S   UNL     1       3.086  -6.694  -6.376  0.00  0.00    +0.064 S 
ATOM      3  O   UNL     1       2.667  -7.997  -6.759  0.00  0.00    -0.153 OA
ATOM      4  O   UNL     1       3.593  -5.752  -7.311  0.00  0.00    -0.153 OA
BRANCH   2   5
ATOM      5  C   UNL     1       4.332  -6.906  -5.149  0.00  0.00    +0.140 A 
ATOM      6  C   UNL     1       4.713  -8.177  -4.762  0.00  0.00    +0.031 A 
ATOM      7  C   UNL     1       5.690  -8.344  -3.799  0.00  0.00    +0.002 A 
ATOM      8  C   UNL     1       6.288  -7.239  -3.221  0.00  0.00    +0.003 A 
ATOM      9  C   UNL     1       5.909  -5.967  -3.606  0.00  0.00    +0.040 A 
ATOM     10  C   UNL     1       4.934  -5.799  -4.575  0.00  0.00    +0.150 A 
ATOM     11  F   UNL     1       4.566  -4.556  -4.955  0.00  0.00    -0.203 F 
ENDBRANCH   2   5
ENDBRANCH   1   2
BRANCH   1  12
ATOM     12  C   UNL     1       1.605  -4.527  -5.726  0.00  0.00    +0.126 C 
BRANCH  12  18
ATOM     13  C   UNL     1       1.088  -0.668 -10.359  0.00  0.00    +0.122 A 
ATOM     14  C   UNL     1       0.648   0.040  -9.230  0.00  0.00    +0.046 A 
ATOM     15  C   UNL     1       0.398  -0.591  -8.058  0.00  0.00    +0.013 A 
ATOM     16  C   UNL     1       0.592  -2.041  -7.974  0.00  0.00    -0.007 A 
ATOM     17  C   UNL     1       0.351  -2.709  -6.814  0.00  0.00    -0.003 C 
ATOM     18  C   UNL     1       0.576  -4.208  -6.813  0.00  0.00    +0.114 C 
ATOM     19  C   UNL     1       1.051  -4.841  -8.101  0.00  0.00    +0.225 C 
ATOM     20  O   UNL     1       1.247  -6.041  -8.155  0.00  0.00    -0.275 OA
ATOM     21  N   UNL     1       1.251  -4.087  -9.167  0.00  0.00    -0.284 N 
ATOM     22  C   UNL     1       1.054  -2.766  -9.172  0.00  0.00    +0.044 A 
ATOM     23  C   UNL     1       1.283  -2.031 -10.343  0.00  0.00    +0.069 A 
ATOM     24  H   UNL     1       1.556  -4.512  -9.983  0.00  0.00    +0.155 HD
BRANCH  13  26
ATOM     25  C   UNL     1       1.108   1.425 -11.478  0.00  0.00    +0.277 C 
ATOM     26  O   UNL     1       1.323   0.013 -11.506  0.00  0.00    -0.495 OA
ENDBRANCH  13  26
ENDBRANCH  12  18
ENDBRANCH   1  12
BRANCH   1  27
ATOM     27  C   UNL     1       0.824  -6.794  -4.897  0.00  0.00    +0.144 C 
BRANCH  27  28
ATOM     28  C   UNL     1      -0.318  -7.171  -5.806  0.00  0.00    -0.028 A 
ATOM     29  C   UNL     1      -1.426  -6.349  -5.898  0.00  0.00    +0.009 A 
ATOM     30  C   UNL     1      -2.476  -6.690  -6.731  0.00  0.00    +0.050 A 
ATOM     31  C   UNL     1      -2.420  -7.857  -7.474  0.00  0.00    +0.166 A 
ATOM     32  C   UNL     1      -1.304  -8.685  -7.381  0.00  0.00    +0.167 A 
ATOM     33  C   UNL     1      -0.253  -8.334  -6.549  0.00  0.00    +0.054 A 
ATOM     34  O   UNL     1      -1.489  -9.761  -8.201  0.00  0.00    -0.453 OA
ATOM     35  C   UNL     1      -2.900  -9.790  -8.485  0.00  0.00    +0.466 C 
ATOM     36  O   UNL     1      -3.304  -8.414  -8.353  0.00  0.00    -0.453 OA
ENDBRANCH  27  28
ENDBRANCH   1  27
TORSDOF 7
