REMARK  Name = ZINC01044970
REMARK  8 active torsions:
REMARK  status: ('A' for Active; 'I' for Inactive)
REMARK    1  A    between atoms: C_3  and  N_11
REMARK    2  A    between atoms: C_6  and  C_7
REMARK    3  A    between atoms: N_11  and  S_12
REMARK    4  A    between atoms: S_12  and  C_15
REMARK    5  A    between atoms: C_18  and  N_21
REMARK    6  A    between atoms: N_21  and  S_22
REMARK    7  A    between atoms: S_22  and  C_25
REMARK    8  A    between atoms: C_28  and  C_31
REMARK                            x       y       z     vdW  Elec       q    Type
REMARK                         _______ _______ _______ _____ _____    ______ ____
ROOT
ATOM      1  C   UNL     1       4.344   3.426  -0.280  0.00  0.00    +0.109 A 
ATOM      2  C   UNL     1       3.113   3.708  -0.844  0.00  0.00    +0.030 A 
ATOM      3  C   UNL     1       2.054   2.840  -0.666  0.00  0.00    +0.026 A 
ATOM      4  C   UNL     1       2.227   1.681   0.080  0.00  0.00    +0.048 A 
ATOM      5  C   UNL     1       3.463   1.403   0.650  0.00  0.00    +0.026 A 
ATOM      6  C   UNL     1       4.519   2.273   0.463  0.00  0.00    +0.030 A 
ENDROOT
BRANCH   1   7
ATOM      7  S   UNL     1       5.692   4.537  -0.509  0.00  0.00    +0.072 S 
ATOM      8  O   UNL     1       6.875   3.806  -0.218  0.00  0.00    -0.150 OA
ATOM      9  O   UNL     1       5.481   5.179  -1.760  0.00  0.00    -0.150 OA
BRANCH   7  10
ATOM     10  N   UNL     1       5.562   5.710   0.652  0.00  0.00    -0.216 N 
ATOM     11  H   UNL     1       5.378   6.627   0.397  0.00  0.00    +0.174 HD
BRANCH  10  14
ATOM     12  C   UNL     1       7.130   4.763   3.838  0.00  0.00    +0.014 A 
ATOM     13  C   UNL     1       6.980   5.090   2.505  0.00  0.00    +0.025 A 
ATOM     14  C   UNL     1       5.718   5.378   2.000  0.00  0.00    +0.048 A 
ATOM     15  C   UNL     1       4.612   5.341   2.840  0.00  0.00    +0.025 A 
ATOM     16  C   UNL     1       4.769   5.008   4.171  0.00  0.00    +0.014 A 
ATOM     17  C   UNL     1       6.027   4.722   4.670  0.00  0.00    +0.055 A 
BRANCH  17  18
ATOM     18  C   UNL     1       6.195   4.364   6.125  0.00  0.00    +0.417 C 
ATOM     19  F   UNL     1       6.421   5.527   6.868  0.00  0.00    -0.166 F 
ATOM     20  F   UNL     1       5.035   3.733   6.587  0.00  0.00    -0.166 F 
ATOM     21  F   UNL     1       7.285   3.499   6.269  0.00  0.00    -0.166 F 
ENDBRANCH  17  18
ENDBRANCH  10  14
ENDBRANCH   7  10
ENDBRANCH   1   7
BRANCH   4  22
ATOM     22  N   UNL     1       1.158   0.800   0.263  0.00  0.00    -0.216 N 
ATOM     23  H   UNL     1       0.283   1.143   0.502  0.00  0.00    +0.174 HD
BRANCH  22  24
ATOM     24  S   UNL     1       1.383  -0.828   0.063  0.00  0.00    +0.072 S 
ATOM     25  O   UNL     1       2.505  -1.184   0.860  0.00  0.00    -0.150 OA
ATOM     26  O   UNL     1       0.110  -1.437   0.224  0.00  0.00    -0.150 OA
BRANCH  24  27
ATOM     27  C   UNL     1       1.856  -1.087  -1.615  0.00  0.00    +0.109 A 
ATOM     28  C   UNL     1       0.889  -1.206  -2.595  0.00  0.00    +0.029 A 
ATOM     29  C   UNL     1       1.260  -1.404  -3.912  0.00  0.00    +0.014 A 
ATOM     30  C   UNL     1       2.598  -1.493  -4.247  0.00  0.00    +0.055 A 
ATOM     31  C   UNL     1       3.565  -1.379  -3.266  0.00  0.00    +0.014 A 
ATOM     32  C   UNL     1       3.194  -1.176  -1.950  0.00  0.00    +0.029 A 
BRANCH  30  33
ATOM     33  C   UNL     1       3.002  -1.714  -5.682  0.00  0.00    +0.417 C 
ATOM     34  F   UNL     1       3.089  -3.087  -5.936  0.00  0.00    -0.166 F 
ATOM     35  F   UNL     1       2.047  -1.143  -6.529  0.00  0.00    -0.166 F 
ATOM     36  F   UNL     1       4.247  -1.118  -5.913  0.00  0.00    -0.166 F 
ENDBRANCH  30  33
ENDBRANCH  24  27
ENDBRANCH  22  24
ENDBRANCH   4  22
TORSDOF 8
