REMARK  Name = ZINC43218939
REMARK  6 active torsions:
REMARK  status: ('A' for Active; 'I' for Inactive)
REMARK    1  A    between atoms: C_1  and  O_2
REMARK    2  A    between atoms: O_2  and  C_3
REMARK    3  A    between atoms: C_6  and  C_13
REMARK    4  A    between atoms: N_21  and  C_24
REMARK    5  A    between atoms: C_30  and  C_32
REMARK    6  A    between atoms: C_30  and  C_38
REMARK                            x       y       z     vdW  Elec       q    Type
REMARK                         _______ _______ _______ _____ _____    ______ ____
ROOT
ATOM      1  C   UNL     1       2.535  -2.442  -4.436  0.00  0.00    -0.026 C 
ATOM      2  C   UNL     1       3.969  -2.832  -4.095  0.00  0.00    +0.077 C 
ATOM      3  C   UNL     1       4.578  -1.379  -4.119  0.00  0.00    +0.090 C 
ATOM      4  C   UNL     1       5.822  -1.564  -3.410  0.00  0.00    +0.225 C 
ATOM      5  O   UNL     1       6.873  -0.990  -3.601  0.00  0.00    -0.275 OA
ATOM      6  N   UNL     1       5.555  -2.530  -2.472  0.00  0.00    -0.239 N 
ATOM      7  C   UNL     1       4.361  -3.184  -2.695  0.00  0.00    +0.225 C 
ATOM      8  O   UNL     1       3.750  -3.892  -1.923  0.00  0.00    -0.275 OA
ATOM      9  C   UNL     1       4.072  -0.816  -5.377  0.00  0.00    +0.074 C 
ATOM     10  N   UNL     1       2.704  -1.442  -5.540  0.00  0.00    +0.398 N 
ATOM     11  H   UNL     1       2.653  -1.907  -6.434  0.00  0.00    -0.083 HD
ATOM     12  H   UNL     1       1.985  -0.737  -5.477  0.00  0.00    -0.083 HD
ENDROOT
BRANCH   1  16
ATOM     13  C   UNL     1       0.605  -0.607  -1.055  0.00  0.00    +0.128 A 
ATOM     14  C   UNL     1       1.165   0.146  -2.049  0.00  0.00    +0.046 A 
ATOM     15  C   UNL     1       1.787  -0.456  -3.138  0.00  0.00    +0.006 A 
ATOM     16  C   UNL     1       1.857  -1.812  -3.247  0.00  0.00    -0.053 A 
ATOM     17  C   UNL     1       1.294  -2.622  -2.246  0.00  0.00    -0.013 A 
ATOM     18  C   UNL     1       0.663  -2.013  -1.132  0.00  0.00    +0.024 A 
ATOM     19  C   UNL     1       0.105  -2.822  -0.129  0.00  0.00    +0.012 A 
ATOM     20  C   UNL     1       0.179  -4.177  -0.237  0.00  0.00    +0.001 A 
ATOM     21  C   UNL     1       0.803  -4.776  -1.330  0.00  0.00    +0.001 A 
ATOM     22  C   UNL     1       1.347  -4.024  -2.326  0.00  0.00    +0.009 A 
BRANCH  13  24
ATOM     23  C   UNL     1      -0.017   1.425   0.010  0.00  0.00    +0.277 C 
ATOM     24  O   UNL     1       0.002  -0.004   0.002  0.00  0.00    -0.495 OA
ENDBRANCH  13  24
ENDBRANCH   1  16
BRANCH   6  25
ATOM     25  C   UNL     1       6.450  -2.846  -1.356  0.00  0.00    +0.084 C 
ATOM     26  C   UNL     1       5.718  -2.614  -0.033  0.00  0.00    +0.023 C 
ATOM     27  C   UNL     1       6.652  -2.943   1.132  0.00  0.00    +0.002 C 
ATOM     28  C   UNL     1       7.086  -4.408   1.040  0.00  0.00    +0.000 C 
ATOM     29  C   UNL     1       7.819  -4.640  -0.283  0.00  0.00    +0.002 C 
ATOM     30  C   UNL     1       6.884  -4.310  -1.449  0.00  0.00    +0.023 C 
ENDBRANCH   6  25
BRANCH   9  31
ATOM     31  C   UNL     1       3.942   0.681  -5.268  0.00  0.00    -0.047 A 
ATOM     32  C   UNL     1       4.795   1.391  -4.444  0.00  0.00    +0.003 A 
ATOM     33  C   UNL     1       4.675   2.765  -4.344  0.00  0.00    +0.000 A 
ATOM     34  C   UNL     1       3.702   3.428  -5.069  0.00  0.00    +0.000 A 
ATOM     35  C   UNL     1       2.850   2.718  -5.893  0.00  0.00    +0.000 A 
ATOM     36  C   UNL     1       2.972   1.345  -5.996  0.00  0.00    +0.003 A 
ENDBRANCH   9  31
BRANCH   9  37
ATOM     37  C   UNL     1       4.982  -1.184  -6.520  0.00  0.00    +0.350 C 
ATOM     38  O   UNL     1       4.550  -1.829  -7.460  0.00  0.00    -0.248 OA
ATOM     39  O   UNL     1       6.151  -0.836  -6.506  0.00  0.00    -0.248 OA
ENDBRANCH   9  37
TORSDOF 5
