REMARK  Name = ZINC32937789
REMARK  9 active torsions:
REMARK  status: ('A' for Active; 'I' for Inactive)
REMARK    1  A    between atoms: C_1  and  C_2
REMARK    2  A    between atoms: C_2  and  C_4
REMARK    3  A    between atoms: C_2  and  N_14
REMARK    4  A    between atoms: C_15  and  C_17
REMARK    5  A    between atoms: C_17  and  O_18
REMARK    6  A    between atoms: O_18  and  C_19
REMARK    7  A    between atoms: C_19  and  C_21
REMARK    8  A    between atoms: N_29  and  C_30
REMARK    9  A    between atoms: C_30  and  C_31
REMARK                            x       y       z     vdW  Elec       q    Type
REMARK                         _______ _______ _______ _____ _____    ______ ____
ROOT
ATOM      1  O   UNL     1      -2.869   5.690  -0.147  0.00  0.00    -0.455 OA
ENDROOT
BRANCH   1   2
ATOM      2  C   UNL     1      -3.034   7.019  -0.239  0.00  0.00    +0.311 C 
ATOM      3  O   UNL     1      -2.254   7.764   0.306  0.00  0.00    -0.251 OA
BRANCH   2   4
ATOM      4  C   UNL     1      -4.191   7.583  -1.023  0.00  0.00    +0.101 C 
ATOM      5  C   UNL     1      -4.095   7.119  -2.478  0.00  0.00    +0.034 C 
ATOM      6  C   UNL     1      -5.291   7.666  -3.264  0.00  0.00    +0.110 C 
ATOM      7  N   UNL     1      -5.340   9.125  -3.098  0.00  0.00    -0.286 N 
ATOM      8  C   UNL     1      -5.343   9.681  -1.738  0.00  0.00    +0.110 C 
ATOM      9  C   UNL     1      -4.146   9.112  -0.969  0.00  0.00    +0.034 C 
ATOM     10  C   UNL     1      -5.380   9.937  -4.172  0.00  0.00    +0.303 C 
ATOM     11  O   UNL     1      -5.511  11.137  -4.023  0.00  0.00    -0.253 OA
ATOM     12  N   UNL     1      -5.274   9.420  -5.412  0.00  0.00    -0.292 N 
ATOM     13  H   UNL     1      -5.239   8.330  -5.553  0.00  0.00    +0.151 HD
BRANCH  12  14
ATOM     14  C   UNL     1      -5.205  10.310  -6.574  0.00  0.00    +0.180 C 
BRANCH  14  15
ATOM     15  C   UNL     1      -5.091   9.488  -7.831  0.00  0.00    +0.122 A 
ATOM     16  C   UNL     1      -6.119   9.034  -8.570  0.00  0.00    +0.046 A 
ATOM     17  C   UNL     1      -5.560   8.315  -9.652  0.00  0.00    +0.041 A 
ATOM     18  C   UNL     1      -4.224   8.371  -9.508  0.00  0.00    +0.195 A 
ATOM     19  O   UNL     1      -3.946   9.088  -8.407  0.00  0.00    -0.466 OA
ENDBRANCH  14  15
ENDBRANCH  12  14
ENDBRANCH   2   4
ENDBRANCH   1   2
BRANCH   1  20
ATOM     20  C   UNL     1      -1.733   5.218   0.624  0.00  0.00    +0.327 C 
BRANCH  20  22
ATOM     21  N   UNL     1      -0.739   3.048   1.272  0.00  0.00    -0.306 N 
ATOM     22  C   UNL     1      -1.712   3.712   0.616  0.00  0.00    +0.251 C 
ATOM     23  O   UNL     1      -2.570   3.096   0.019  0.00  0.00    -0.272 OA
ATOM     24  H   UNL     1       0.039   3.606   1.813  0.00  0.00    +0.149 HD
BRANCH  21  26
ATOM     25  C   UNL     1      -0.003   1.090   0.004  0.00  0.00    +0.033 C 
ATOM     26  C   UNL     1      -0.718   1.583   1.264  0.00  0.00    +0.100 C 
BRANCH  26  27
ATOM     27  C   UNL     1       0.012   1.085   2.484  0.00  0.00    -0.027 A 
ATOM     28  C   UNL     1       1.156   1.728   2.919  0.00  0.00    +0.006 A 
ATOM     29  C   UNL     1       1.817   1.268   4.039  0.00  0.00    +0.004 A 
ATOM     30  C   UNL     1       1.350   0.155   4.727  0.00  0.00    -0.044 A 
ATOM     31  C   UNL     1       0.212  -0.487   4.293  0.00  0.00    -0.044 A 
ATOM     32  C   UNL     1      -0.456  -0.018   3.168  0.00  0.00    +0.009 A 
ATOM     33  C   UNL     1      -0.357  -1.692   4.994  0.00  0.00    +0.035 C 
ATOM     34  C   UNL     1       0.690  -2.325   5.909  0.00  0.00    +0.005 C 
ATOM     35  C   UNL     1       1.278  -1.226   6.802  0.00  0.00    +0.005 C 
ATOM     36  C   UNL     1       2.129  -0.303   5.932  0.00  0.00    +0.035 C 
ENDBRANCH  26  27
ENDBRANCH  21  26
ENDBRANCH  20  22
ENDBRANCH   1  20
TORSDOF 8
