REMARK  Name = ZINC39439793
REMARK  10 active torsions:
REMARK  status: ('A' for Active; 'I' for Inactive)
REMARK    1  A    between atoms: C_1  and  C_2
REMARK    2  A    between atoms: C_2  and  O_3
REMARK    3  A    between atoms: O_3  and  C_4
REMARK    4  A    between atoms: C_4  and  C_6
REMARK    5  A    between atoms: C_8  and  N_17
REMARK    6  A    between atoms: C_18  and  C_20
REMARK    7  A    between atoms: C_20  and  S_21
REMARK    8  A    between atoms: S_21  and  C_22
REMARK    9  A    between atoms: N_28  and  N_29
REMARK   10  A    between atoms: C_30  and  C_31
REMARK                            x       y       z     vdW  Elec       q    Type
REMARK                         _______ _______ _______ _____ _____    ______ ____
ROOT
ATOM      1  C   UNL     1       3.937   1.591  -3.935  0.00  0.00    +0.168 C 
ENDROOT
BRANCH   1   3
ATOM      2  N   UNL     1       3.075  -0.677  -3.451  0.00  0.00    -0.301 N 
ATOM      3  C   UNL     1       3.787   0.390  -3.037  0.00  0.00    +0.224 C 
ATOM      4  O   UNL     1       4.306   0.384  -1.941  0.00  0.00    -0.275 OA
ATOM      5  H   UNL     1       2.659  -0.672  -4.328  0.00  0.00    +0.150 HD
BRANCH   2   7
ATOM      6  C   UNL     1       1.468  -2.353  -2.550  0.00  0.00    +0.155 C 
ATOM      7  C   UNL     1       2.929  -1.844  -2.578  0.00  0.00    +0.153 C 
ATOM      8  S   UNL     1       3.731  -3.337  -3.302  0.00  0.00    -0.106 S 
ATOM      9  C   UNL     1       2.488  -4.532  -2.871  0.00  0.00    -0.013 C 
ATOM     10  C   UNL     1       1.407  -3.859  -2.501  0.00  0.00    -0.044 C 
ATOM     11  C   UNL     1       0.146  -4.590  -2.044  0.00  0.00    +0.032 C 
ATOM     12  C   UNL     1       0.199  -6.036  -2.536  0.00  0.00    +0.005 C 
ATOM     13  C   UNL     1       1.526  -6.673  -2.111  0.00  0.00    +0.005 C 
ATOM     14  C   UNL     1       2.652  -6.026  -2.920  0.00  0.00    +0.042 C 
BRANCH   6  15
ATOM     15  C   UNL     1       0.775  -1.794  -1.334  0.00  0.00    +0.317 C 
ATOM     16  O   UNL     1       0.314  -2.540  -0.504  0.00  0.00    -0.250 OA
BRANCH  15  17
ATOM     17  O   UNL     1       0.671  -0.465  -1.174  0.00  0.00    -0.464 OA
BRANCH  17  19
ATOM     18  C   UNL     1      -0.019   1.526   0.010  0.00  0.00    +0.048 C 
ATOM     19  C   UNL     1       0.002  -0.004   0.002  0.00  0.00    +0.229 C 
ENDBRANCH  17  19
ENDBRANCH  15  17
ENDBRANCH   6  15
ENDBRANCH   2   7
ENDBRANCH   1   3
BRANCH   1  20
ATOM     20  S   UNL     1       4.941   2.849  -3.100  0.00  0.00    -0.104 S 
BRANCH  20  21
ATOM     21  C   UNL     1       5.026   4.209  -4.297  0.00  0.00    +0.274 C 
ATOM     22  N   UNL     1       3.670   4.678  -4.643  0.00  0.00    -0.281 N 
ATOM     23  C   UNL     1       3.572   4.446  -6.006  0.00  0.00    +0.231 C 
ATOM     24  N   UNL     1       4.727   3.898  -6.456  0.00  0.00    -0.116 NA
ATOM     25  N   UNL     1       5.578   3.738  -5.575  0.00  0.00    -0.150 NA
ATOM     26  N   UNL     1       2.520   4.716  -6.749  0.00  0.00    -0.247 N 
ATOM     27  H   UNL     1       3.002   5.061  -4.053  0.00  0.00    +0.152 HD
ATOM     28  H   UNL     1       2.534   4.521  -7.699  0.00  0.00    +0.192 HD
BRANCH  26  29
ATOM     29  N   UNL     1       1.469   5.239  -6.213  0.00  0.00    -0.179 NA
ATOM     30  C   UNL     1       0.422   5.507  -6.952  0.00  0.00    +0.142 C 
BRANCH  30  31
ATOM     31  C   UNL     1      -0.774   6.103  -6.341  0.00  0.00    +0.013 A 
ATOM     32  C   UNL     1      -1.898   6.386  -7.126  0.00  0.00    +0.011 A 
ATOM     33  C   UNL     1      -3.017   6.944  -6.546  0.00  0.00    +0.001 A 
ATOM     34  C   UNL     1      -3.032   7.225  -5.190  0.00  0.00    +0.001 A 
ATOM     35  C   UNL     1      -1.926   6.949  -4.406  0.00  0.00    +0.020 A 
ATOM     36  C   UNL     1      -0.799   6.385  -4.970  0.00  0.00    +0.050 A 
ATOM     37 CL   UNL     1       0.585   6.033  -3.983  0.00  0.00    -0.083 Cl
ENDBRANCH  30  31
ENDBRANCH  26  29
ENDBRANCH  20  21
ENDBRANCH   1  20
TORSDOF 9
