REMARK  Name = ZINC12268191
REMARK  12 active torsions:
REMARK  status: ('A' for Active; 'I' for Inactive)
REMARK    1  A    between atoms: C_1  and  C_2
REMARK    2  A    between atoms: C_2  and  O_3
REMARK    3  A    between atoms: O_3  and  C_4
REMARK    4  A    between atoms: C_4  and  C_6
REMARK    5  A    between atoms: C_7  and  C_30
REMARK    6  A    between atoms: C_8  and  C_13
REMARK    7  A    between atoms: C_9  and  C_12
REMARK    8  A    between atoms: C_13  and  C_15
REMARK    9  A    between atoms: C_15  and  S_16
REMARK   10  A    between atoms: S_16  and  C_17
REMARK   11  A    between atoms: C_20  and  C_23
REMARK   12  A    between atoms: N_21  and  N_22
REMARK                            x       y       z     vdW  Elec       q    Type
REMARK                         _______ _______ _______ _____ _____    ______ ____
ROOT
ATOM      1  C   UNL     1      -2.261   2.902  -7.988  0.00  0.00    +0.157 C 
ENDROOT
BRANCH   1   2
ATOM      2  C   UNL     1      -1.276   2.111  -7.166  0.00  0.00    +0.175 C 
ATOM      3  O   UNL     1      -0.458   1.403  -7.714  0.00  0.00    -0.291 OA
BRANCH   2   6
ATOM      4  C   UNL     1      -1.756   1.774  -3.556  0.00  0.00    +0.128 A 
ATOM      5  C   UNL     1      -1.994   1.328  -4.822  0.00  0.00    -0.008 A 
ATOM      6  C   UNL     1      -1.307   2.198  -5.702  0.00  0.00    +0.042 A 
ATOM      7  C   UNL     1      -0.665   3.144  -4.918  0.00  0.00    +0.024 A 
ATOM      8  N   UNL     1      -0.939   2.883  -3.632  0.00  0.00    -0.352 N 
ATOM      9  H   UNL     1      -0.614   3.393  -2.874  0.00  0.00    +0.166 HD
ATOM     10  C   UNL     1       0.195   4.273  -5.425  0.00  0.00    +0.064 C 
ATOM     11  C   UNL     1      -2.831   0.137  -5.210  0.00  0.00    +0.047 C 
BRANCH   4  12
ATOM     12  C   UNL     1      -2.275   1.174  -2.322  0.00  0.00    +0.356 C 
ATOM     13  O   UNL     1      -2.990   0.192  -2.378  0.00  0.00    -0.243 OA
BRANCH  12  14
ATOM     14  O   UNL     1      -1.959   1.711  -1.126  0.00  0.00    -0.460 OA
BRANCH  14  16
ATOM     15  C   UNL     1      -2.045   1.810   1.306  0.00  0.00    +0.048 C 
ATOM     16  C   UNL     1      -2.509   1.065   0.052  0.00  0.00    +0.229 C 
ENDBRANCH  14  16
ENDBRANCH  12  14
ENDBRANCH   4  12
ENDBRANCH   2   6
ENDBRANCH   1   2
BRANCH   1  17
ATOM     17  S   UNL     1      -2.082   2.459  -9.734  0.00  0.00    -0.077 S 
BRANCH  17  18
ATOM     18  C   UNL     1      -3.315   3.499 -10.442  0.00  0.00    +0.209 A 
ATOM     19  N   UNL     1      -4.102   4.328  -9.793  0.00  0.00    -0.121 NA
ATOM     20  N   UNL     1      -4.880   4.934 -10.617  0.00  0.00    -0.127 NA
ATOM     21  C   UNL     1      -4.645   4.522 -11.841  0.00  0.00    +0.183 A 
ATOM     22  N   UNL     1      -3.635   3.590 -11.766  0.00  0.00    -0.224 N 
BRANCH  21  23
ATOM     23  C   UNL     1      -5.335   4.973 -13.068  0.00  0.00    +0.035 A 
ATOM     24  C   UNL     1      -5.801   4.039 -13.995  0.00  0.00    +0.013 A 
ATOM     25  C   UNL     1      -6.443   4.467 -15.138  0.00  0.00    +0.001 A 
ATOM     26  C   UNL     1      -6.628   5.820 -15.367  0.00  0.00    +0.001 A 
ATOM     27  C   UNL     1      -6.170   6.751 -14.453  0.00  0.00    +0.016 A 
ATOM     28  C   UNL     1      -5.529   6.336 -13.302  0.00  0.00    +0.029 A 
ATOM     29 BR   UNL     1      -4.910   7.611 -12.049  0.00  0.00    -0.050 Br
ENDBRANCH  21  23
BRANCH  22  30
ATOM     30  N   UNL     1      -3.071   2.900 -12.801  0.00  0.00    -0.295 N 
ATOM     31  H   UNL     1      -3.528   2.010 -12.934  0.00  0.00    +0.163 HD
ATOM     32  H   UNL     1      -3.087   3.445 -13.651  0.00  0.00    +0.163 HD
ENDBRANCH  22  30
ENDBRANCH  17  18
ENDBRANCH   1  17
TORSDOF 9
