REMARK  Name = ZINC39539649
REMARK  4 active torsions:
REMARK  status: ('A' for Active; 'I' for Inactive)
REMARK    1  A    between atoms: C_4  and  C_7
REMARK    2  A    between atoms: C_7  and  N_8
REMARK    3  A    between atoms: C_13  and  C_23
REMARK    4  A    between atoms: C_15  and  C_17
REMARK                            x       y       z     vdW  Elec       q    Type
REMARK                         _______ _______ _______ _____ _____    ______ ____
ROOT
ATOM      1  N   UNL     1       3.688  -0.536   1.576  0.00  0.00    -0.242 N 
ATOM      2  C   UNL     1       4.716   0.105   2.217  0.00  0.00    +0.160 A 
ATOM      3  C   UNL     1       4.875  -0.544   3.459  0.00  0.00    +0.051 A 
ATOM      4  C   UNL     1       3.912  -1.573   3.516  0.00  0.00    +0.145 A 
ATOM      5  N   UNL     1       3.220  -1.556   2.413  0.00  0.00    -0.177 NA
ATOM      6  C   UNL     1       5.877  -0.092   4.349  0.00  0.00    +0.051 A 
ATOM      7  C   UNL     1       6.665   0.982   3.951  0.00  0.00    +0.042 A 
ATOM      8  C   UNL     1       6.442   1.568   2.702  0.00  0.00    +0.074 A 
ATOM      9  N   UNL     1       5.496   1.124   1.891  0.00  0.00    -0.228 NA
ENDROOT
BRANCH   6  10
ATOM     10  C   UNL     1       6.079  -0.741   5.662  0.00  0.00    +0.252 C 
ATOM     11  O   UNL     1       5.131  -0.931   6.398  0.00  0.00    -0.270 OA
ATOM     12  N   UNL     1       7.315  -1.121   6.042  0.00  0.00    -0.257 N 
ATOM     13  C   UNL     1       8.491  -0.820   5.212  0.00  0.00    +0.210 C 
ATOM     14  C   UNL     1       9.395  -2.026   5.183  0.00  0.00    +0.235 C 
ATOM     15  O   UNL     1      10.097  -2.225   4.215  0.00  0.00    -0.274 OA
ATOM     16  N   UNL     1       9.432  -2.884   6.219  0.00  0.00    -0.283 N 
ATOM     17  C   UNL     1       8.595  -2.705   7.327  0.00  0.00    +0.055 A 
ATOM     18  C   UNL     1       7.522  -1.812   7.245  0.00  0.00    +0.058 A 
ATOM     19  C   UNL     1       6.685  -1.623   8.330  0.00  0.00    +0.025 A 
ATOM     20  C   UNL     1       6.917  -2.317   9.505  0.00  0.00    +0.002 A 
ATOM     21  C   UNL     1       7.982  -3.195   9.595  0.00  0.00    +0.002 A 
ATOM     22  C   UNL     1       8.820  -3.399   8.504  0.00  0.00    +0.025 A 
ATOM     23  H   UNL     1      10.045  -3.635   6.198  0.00  0.00    +0.155 HD
ENDBRANCH   6  10
BRANCH   8  24
ATOM     24  C   UNL     1       7.282   2.714   2.277  0.00  0.00    +0.000 A 
ATOM     25  C   UNL     1       8.287   3.194   3.116  0.00  0.00    +0.010 A 
ATOM     26  C   UNL     1       9.066   4.260   2.716  0.00  0.00    +0.001 A 
ATOM     27  C   UNL     1       8.851   4.853   1.485  0.00  0.00    +0.000 A 
ATOM     28  C   UNL     1       7.855   4.382   0.648  0.00  0.00    +0.001 A 
ATOM     29  C   UNL     1       7.074   3.312   1.035  0.00  0.00    +0.010 A 
ENDBRANCH   8  24
BRANCH   1  30
ATOM     30  C   UNL     1       3.165  -0.206   0.248  0.00  0.00    +0.181 C 
BRANCH  30  34
ATOM     31  C   UNL     1       0.039   2.680   0.621  0.00  0.00    +0.000 A 
ATOM     32  C   UNL     1       1.348   3.096   0.465  0.00  0.00    +0.000 A 
ATOM     33  C   UNL     1       2.360   2.161   0.344  0.00  0.00    +0.005 A 
ATOM     34  C   UNL     1       2.062   0.812   0.380  0.00  0.00    -0.026 A 
ATOM     35  C   UNL     1       0.753   0.397   0.538  0.00  0.00    +0.005 A 
ATOM     36  C   UNL     1      -0.259   1.331   0.657  0.00  0.00    +0.000 A 
ENDBRANCH  30  34
ENDBRANCH   1  30
TORSDOF 4
