REMARK  Name = ZINC05324423
REMARK  4 active torsions:
REMARK  status: ('A' for Active; 'I' for Inactive)
REMARK    1  A    between atoms: C_4  and  O_29
REMARK    2  A    between atoms: C_5  and  C_7
REMARK    3  A    between atoms: CA_13  and  C_15
REMARK    4  A    between atoms: N_19  and  C_22
REMARK                            x       y       z     vdW  Elec       q    Type
REMARK                         _______ _______ _______ _____ _____    ______ ____
ROOT
ATOM      1  C   UNL     1      -1.258  -2.824  -1.253  0.00  0.00    -0.024 C 
ATOM      2  C   UNL     1      -0.741  -2.210   0.064  0.00  0.00    +0.077 C 
ATOM      3  C   UNL     1       0.804  -2.188  -0.086  0.00  0.00    +0.083 C 
ATOM      4  CA  UNL     1       1.075  -2.792  -1.480  0.00  0.00    +0.057 C 
ATOM      5  C   UNL     1       1.131  -0.712  -0.116  0.00  0.00    +0.229 C 
ATOM      6  O   UNL     1       2.244  -0.243  -0.228  0.00  0.00    -0.275 OA
ATOM      7  N   UNL     1       0.002  -0.004   0.002  0.00  0.00    -0.210 N 
ATOM      8  C   UNL     1      -1.108  -0.743   0.107  0.00  0.00    +0.229 C 
ATOM      9  O   UNL     1      -2.233  -0.306   0.218  0.00  0.00    -0.275 OA
ATOM     10  N   UNL     1      -0.118  -3.594  -1.752  0.00  0.00    +0.394 N 
ATOM     11  H1  UNL     1      -0.214  -3.757  -2.761  0.00  0.00    -0.084 HD
ATOM     12  H2  UNL     1      -0.058  -4.495  -1.263  0.00  0.00    -0.084 HD
ENDROOT
BRANCH   7  13
ATOM     13  C   UNL     1      -0.017   1.398   0.010  0.00  0.00    +0.044 A 
ATOM     14  C   UNL     1      -0.591   2.091  -1.047  0.00  0.00    +0.025 A 
ATOM     15  C   UNL     1      -0.613   3.472  -1.035  0.00  0.00    +0.022 A 
ATOM     16  C   UNL     1      -0.054   4.165   0.025  0.00  0.00    +0.041 A 
ATOM     17  C   UNL     1       0.523   3.476   1.077  0.00  0.00    +0.022 A 
ATOM     18  C   UNL     1       0.543   2.095   1.072  0.00  0.00    +0.025 A 
ATOM     19 CL   UNL     1      -0.078   5.901   0.035  0.00  0.00    -0.084 Cl
ENDBRANCH   7  13
BRANCH   1  24
ATOM     20  C   UNL     1      -3.363  -5.885  -0.574  0.00  0.00    +0.000 A 
ATOM     21  C   UNL     1      -4.631  -5.340  -0.499  0.00  0.00    +0.004 A 
ATOM     22  C   UNL     1      -4.812  -3.981  -0.666  0.00  0.00    +0.045 A 
ATOM     23  C   UNL     1      -3.718  -3.161  -0.907  0.00  0.00    +0.118 A 
ATOM     24  C   UNL     1      -2.447  -3.711  -0.988  0.00  0.00    -0.019 A 
ATOM     25  C   UNL     1      -2.272  -5.071  -0.818  0.00  0.00    +0.005 A 
BRANCH  23  26
ATOM     26  O   UNL     1      -3.893  -1.823  -1.067  0.00  0.00    -0.507 OA
ATOM     27  H   UNL     1      -4.049  -1.554  -1.983  0.00  0.00    +0.292 HD
ENDBRANCH  23  26
ENDBRANCH   1  24
BRANCH   4  28
ATOM     28  C   UNL     1       1.213  -1.698  -2.508  0.00  0.00    +0.343 C 
ATOM     29  O   UNL     1       0.283  -1.425  -3.229  0.00  0.00    -0.248 OA
ATOM     30  OXT UNL     1       2.371  -1.028  -2.623  0.00  0.00    -0.248 OA
ENDBRANCH   4  28
TORSDOF 4
