REMARK  Name = ZINC44792924
REMARK  12 active torsions:
REMARK  status: ('A' for Active; 'I' for Inactive)
REMARK    1  A    between atoms: C_1  and  C_2
REMARK    2  A    between atoms: C_2  and  C_3
REMARK    3  A    between atoms: C_3  and  C_5
REMARK    4  A    between atoms: C_3  and  N_6
REMARK    5  A    between atoms: C_7  and  S_9
REMARK    6  A    between atoms: S_9  and  C_10
REMARK    7  A    between atoms: C_10  and  C_11
REMARK    8  A    between atoms: C_12  and  C_24
REMARK    9  A    between atoms: C_13  and  C_19
REMARK   10  A    between atoms: C_24  and  O_26
REMARK   11  A    between atoms: O_26  and  C_27
REMARK   12  A    between atoms: C_27  and  C_28
REMARK                            x       y       z     vdW  Elec       q    Type
REMARK                         _______ _______ _______ _____ _____    ______ ____
ROOT
ATOM      1  C   UNL     1      -6.935   0.831  -3.439  0.00  0.00    +0.034 C 
ATOM      2  C   UNL     1      -7.407  -0.143  -4.248  0.00  0.00    +0.082 C 
ATOM      3  C   UNL     1      -8.053   0.276  -5.553  0.00  0.00    +0.179 C 
ATOM      4  N   UNL     1      -8.113   1.720  -5.835  0.00  0.00    -0.285 N 
ATOM      5  C   UNL     1      -7.597   2.573  -4.927  0.00  0.00    +0.304 C 
ATOM      6  O   UNL     1      -7.642   3.767  -5.150  0.00  0.00    -0.252 OA
ATOM      7  N   UNL     1      -7.042   2.148  -3.785  0.00  0.00    -0.272 N 
ATOM      8  H   UNL     1      -8.514   2.050  -6.654  0.00  0.00    +0.151 HD
ATOM      9  H   UNL     1      -6.692   2.812  -3.171  0.00  0.00    +0.156 HD
ENDROOT
BRANCH   3  10
ATOM     10  C   UNL     1      -7.298  -0.385  -6.678  0.00  0.00    +0.130 A 
ATOM     11  C   UNL     1      -7.682  -1.492  -7.339  0.00  0.00    +0.047 A 
ATOM     12  C   UNL     1      -6.685  -1.757  -8.306  0.00  0.00    +0.041 A 
ATOM     13  C   UNL     1      -5.752  -0.797  -8.177  0.00  0.00    +0.195 A 
ATOM     14  O   UNL     1      -6.131   0.035  -7.194  0.00  0.00    -0.466 OA
ENDBRANCH   3  10
BRANCH   2  15
ATOM     15  C   UNL     1      -7.301  -1.507  -3.888  0.00  0.00    +0.339 C 
ATOM     16  O   UNL     1      -8.268  -2.095  -3.442  0.00  0.00    -0.245 OA
BRANCH  15  17
ATOM     17  O   UNL     1      -6.128  -2.156  -4.041  0.00  0.00    -0.462 OA
BRANCH  17  18
ATOM     18  C   UNL     1      -6.093  -3.532  -3.657  0.00  0.00    +0.229 C 
ATOM     19  C   UNL     1      -4.691  -4.094  -3.901  0.00  0.00    +0.048 C 
ENDBRANCH  17  18
ENDBRANCH  15  17
ENDBRANCH   2  15
BRANCH   1  20
ATOM     20  C   UNL     1      -6.285   0.458  -2.132  0.00  0.00    +0.128 C 
BRANCH  20  21
ATOM     21  S   UNL     1      -4.486   0.641  -2.277  0.00  0.00    -0.087 S 
BRANCH  21  23
ATOM     22  N   UNL     1      -2.599   0.194  -0.449  0.00  0.00    -0.366 N 
ATOM     23  C   UNL     1      -3.880   0.175  -0.690  0.00  0.00    +0.126 C 
ATOM     24  N   UNL     1      -4.760  -0.209   0.296  0.00  0.00    -0.339 N 
ATOM     25  H   UNL     1      -4.426  -0.466   1.170  0.00  0.00    +0.144 HD
ATOM     26  H   UNL     1      -5.713  -0.223   0.117  0.00  0.00    +0.144 HD
ATOM     27  H   UNL     1      -1.979   0.465  -1.144  0.00  0.00    +0.162 HD
BRANCH  22  28
ATOM     28  C   UNL     1      -2.095  -0.194   0.871  0.00  0.00    +0.078 C 
ATOM     29  C   UNL     1      -1.935  -1.714   0.929  0.00  0.00    +0.030 C 
BRANCH  28  31
ATOM     30  C   UNL     1      -0.921   1.990   1.181  0.00  0.00    +0.006 C 
ATOM     31  C   UNL     1      -0.739   0.472   1.115  0.00  0.00    +0.021 C 
ENDBRANCH  28  31
ENDBRANCH  22  28
ENDBRANCH  21  23
ENDBRANCH  20  21
ENDBRANCH   1  20
TORSDOF 9
