REMARK  Name = ZINC52823761
REMARK  7 active torsions:
REMARK  status: ('A' for Active; 'I' for Inactive)
REMARK    1  A    between atoms: C_1  and  C_2
REMARK    2  A    between atoms: C_2  and  C_4
REMARK    3  A    between atoms: C_2  and  N_13
REMARK    4  A    between atoms: N_9  and  C_10
REMARK    5  A    between atoms: C_10  and  C_11
REMARK    6  A    between atoms: C_10  and  C_12
REMARK    7  A    between atoms: C_16  and  C_19
REMARK                            x       y       z     vdW  Elec       q    Type
REMARK                         _______ _______ _______ _____ _____    ______ ____
ROOT
ATOM      1  N   UNL     1       0.713  -0.491   1.192  0.00  0.00    +0.390 N 
ATOM      2  C   UNL     1       2.097   0.008   1.177  0.00  0.00    -0.073 C 
ATOM      3  C   UNL     1       2.737  -0.286   2.537  0.00  0.00    +0.017 C 
ATOM      4  C   UNL     1       2.510  -1.729   2.898  0.00  0.00    -0.046 C 
ATOM      5  C   UNL     1       1.609  -2.474   2.291  0.00  0.00    -0.041 C 
ATOM      6  C   UNL     1       0.734  -1.958   1.186  0.00  0.00    -0.050 C 
ATOM      7  H   UNL     1       0.243  -0.163   2.023  0.00  0.00    -0.080 HD
ENDROOT
BRANCH   4   8
ATOM      8  C   UNL     1       3.327  -2.331   3.970  0.00  0.00    +0.003 A 
ATOM      9  C   UNL     1       4.630  -2.702   3.885  0.00  0.00    +0.091 A 
ATOM     10  N   UNL     1       5.040  -3.219   5.080  0.00  0.00    -0.360 N 
ATOM     11  H   UNL     1       5.933  -3.552   5.263  0.00  0.00    +0.165 HD
ATOM     12  C   UNL     1       4.004  -3.200   5.988  0.00  0.00    +0.050 A 
ATOM     13  C   UNL     1       2.889  -2.640   5.342  0.00  0.00    +0.007 A 
ATOM     14  C   UNL     1       1.685  -2.490   6.029  0.00  0.00    +0.013 A 
ATOM     15  C   UNL     1       1.596  -2.889   7.343  0.00  0.00    +0.039 A 
ATOM     16  C   UNL     1       2.699  -3.440   7.986  0.00  0.00    +0.125 A 
ATOM     17  C   UNL     1       3.893  -3.602   7.315  0.00  0.00    +0.064 A 
ATOM     18  F   UNL     1       2.597  -3.827   9.276  0.00  0.00    -0.205 F 
ENDBRANCH   4   8
BRANCH   1  20
ATOM     19  C   UNL     1      -0.019   1.526   0.010  0.00  0.00    -0.004 C 
ATOM     20  C   UNL     1       0.002  -0.004   0.002  0.00  0.00    +0.017 C 
BRANCH  20  21
ATOM     21  C   UNL     1      -1.412  -0.526   0.013  0.00  0.00    +0.207 C 
ATOM     22  O   UNL     1      -1.790  -1.233   0.922  0.00  0.00    -0.277 OA
ATOM     23  N   UNL     1      -2.256  -0.206  -0.988  0.00  0.00    -0.242 N 
ATOM     24  C   UNL     1      -3.520  -0.672  -0.979  0.00  0.00    +0.306 C 
ATOM     25  O   UNL     1      -3.899  -1.381  -0.067  0.00  0.00    -0.252 OA
ATOM     26  N   UNL     1      -4.364  -0.353  -1.980  0.00  0.00    -0.297 N 
ATOM     27  H   UNL     1      -1.953   0.360  -1.716  0.00  0.00    +0.159 HD
ATOM     28  H   UNL     1      -4.061   0.213  -2.707  0.00  0.00    +0.151 HD
BRANCH  26  29
ATOM     29  C   UNL     1      -5.738  -0.860  -1.970  0.00  0.00    +0.068 C 
ATOM     30  C   UNL     1      -6.633   0.077  -2.783  0.00  0.00    +0.027 C 
ATOM     31  C   UNL     1      -5.770  -2.260  -2.586  0.00  0.00    +0.027 C 
ENDBRANCH  26  29
ENDBRANCH  20  21
ENDBRANCH   1  20
TORSDOF 4
