REMARK  Name = ZINC03344720
REMARK  7 active torsions:
REMARK  status: ('A' for Active; 'I' for Inactive)
REMARK    1  A    between atoms: C_1  and  C_2
REMARK    2  A    between atoms: C_5  and  N_9
REMARK    3  A    between atoms: C_10  and  C_12
REMARK    4  A    between atoms: C_12  and  O_13
REMARK    5  A    between atoms: O_13  and  C_14
REMARK    6  A    between atoms: C_14  and  C_16
REMARK    7  A    between atoms: N_21  and  C_23
REMARK                            x       y       z     vdW  Elec       q    Type
REMARK                         _______ _______ _______ _____ _____    ______ ____
ROOT
ATOM      1  C   UNL     1      -6.219   1.714  -1.398  0.00  0.00    +0.355 C 
ATOM      2  O   UNL     1      -6.503   2.830  -1.787  0.00  0.00    -0.243 OA
ENDROOT
BRANCH   1   3
ATOM      3  C   UNL     1      -7.286   0.786  -0.981  0.00  0.00    +0.126 C 
ATOM      4  C   UNL     1      -6.969  -0.435  -0.557  0.00  0.00    +0.014 C 
ATOM      5  C   UNL     1      -8.011  -1.424  -0.125  0.00  0.00    +0.127 C 
ATOM      6  C   UNL     1      -9.326  -0.751   0.139  0.00  0.00    +0.240 C 
ATOM      7  O   UNL     1     -10.171  -1.337   0.783  0.00  0.00    -0.273 OA
ATOM      8  N   UNL     1      -9.592   0.484  -0.317  0.00  0.00    -0.190 N 
ATOM      9  N   UNL     1      -8.622   1.198  -1.030  0.00  0.00    -0.251 N 
ATOM     10  H   UNL     1      -8.875   1.972  -1.556  0.00  0.00    +0.171 HD
BRANCH   8  11
ATOM     11  C   UNL     1     -10.844   1.062  -0.076  0.00  0.00    +0.056 A 
ATOM     12  C   UNL     1     -12.003   0.341  -0.327  0.00  0.00    +0.025 A 
ATOM     13  C   UNL     1     -13.237   0.911  -0.082  0.00  0.00    +0.002 A 
ATOM     14  C   UNL     1     -13.318   2.204   0.401  0.00  0.00    +0.000 A 
ATOM     15  C   UNL     1     -12.166   2.928   0.646  0.00  0.00    +0.002 A 
ATOM     16  C   UNL     1     -10.929   2.361   0.409  0.00  0.00    +0.025 A 
ENDBRANCH   8  11
ENDBRANCH   1   3
BRANCH   1  17
ATOM     17  O   UNL     1      -4.930   1.325  -1.349  0.00  0.00    -0.451 OA
BRANCH  17  18
ATOM     18  C   UNL     1      -3.933   2.291  -1.774  0.00  0.00    +0.328 C 
BRANCH  18  20
ATOM     19  N   UNL     1      -1.472   2.402  -1.992  0.00  0.00    -0.282 N 
ATOM     20  C   UNL     1      -2.559   1.683  -1.651  0.00  0.00    +0.255 C 
ATOM     21  O   UNL     1      -2.433   0.548  -1.244  0.00  0.00    -0.272 OA
ATOM     22  H   UNL     1      -1.566   3.332  -2.253  0.00  0.00    +0.155 HD
BRANCH  19  27
ATOM     23  C   UNL     1       3.663  -0.012  -1.926  0.00  0.00    +0.044 C 
ATOM     24  C   UNL     1       2.300   0.629  -1.942  0.00  0.00    -0.049 A 
ATOM     25  C   UNL     1       1.166  -0.161  -1.999  0.00  0.00    +0.005 A 
ATOM     26  C   UNL     1      -0.085   0.424  -2.014  0.00  0.00    +0.025 A 
ATOM     27  C   UNL     1      -0.205   1.806  -1.972  0.00  0.00    +0.048 A 
ATOM     28  C   UNL     1       0.935   2.598  -1.915  0.00  0.00    +0.039 A 
ATOM     29  C   UNL     1       2.185   2.007  -1.901  0.00  0.00    +0.020 A 
ATOM     30 BR   UNL     1       0.779   4.482  -1.858  0.00  0.00    -0.048 Br
ENDBRANCH  19  27
ENDBRANCH  18  20
ENDBRANCH  17  18
ENDBRANCH   1  17
TORSDOF 6
