REMARK  Name = ZINC19898983
REMARK  10 active torsions:
REMARK  status: ('A' for Active; 'I' for Inactive)
REMARK    1  A    between atoms: C_1  and  C_2
REMARK    2  A    between atoms: C_2  and  C_40
REMARK    3  A    between atoms: C_6  and  C_14
REMARK    4  A    between atoms: C_8  and  C_12
REMARK    5  A    between atoms: C_9  and  N_11
REMARK    6  A    between atoms: C_18  and  C_20
REMARK    7  A    between atoms: C_22  and  C_35
REMARK    8  A    between atoms: C_23  and  N_34
REMARK    9  A    between atoms: C_30  and  C_32
REMARK   10  A    between atoms: C_30  and  C_33
REMARK                            x       y       z     vdW  Elec       q    Type
REMARK                         _______ _______ _______ _____ _____    ______ ____
ROOT
ATOM      1  C   UNL     1       1.989  -3.049  -2.924  0.00  0.00    -0.034 A 
ATOM      2  C   UNL     1       2.105  -2.147  -3.966  0.00  0.00    +0.004 A 
ATOM      3  C   UNL     1       1.964  -0.793  -3.728  0.00  0.00    +0.001 A 
ATOM      4  C   UNL     1       1.706  -0.340  -2.448  0.00  0.00    +0.004 A 
ATOM      5  C   UNL     1       1.590  -1.241  -1.406  0.00  0.00    -0.034 A 
ATOM      6  C   UNL     1       1.736  -2.595  -1.643  0.00  0.00    +0.009 A 
ENDROOT
BRANCH   1  12
ATOM      7  C   UNL     1       5.291  -7.329  -4.226  0.00  0.00    +0.012 C 
ATOM      8  C   UNL     1       5.935  -5.983  -4.563  0.00  0.00    -0.021 C 
ATOM      9  C   UNL     1       5.088  -5.255  -5.608  0.00  0.00    +0.081 C 
ATOM     10  C   UNL     1       3.706  -4.997  -5.053  0.00  0.00    +0.115 C 
ATOM     11  C   UNL     1       3.523  -4.795  -3.735  0.00  0.00    +0.046 C 
ATOM     12  C   UNL     1       2.144  -4.525  -3.184  0.00  0.00    +0.101 C 
ATOM     13  C   UNL     1       1.099  -4.970  -4.169  0.00  0.00    +0.098 C 
ATOM     14  C   UNL     1       1.424  -5.169  -5.470  0.00  0.00    +0.198 C 
ATOM     15  O   UNL     1       2.674  -4.973  -5.916  0.00  0.00    -0.445 OA
ATOM     16  C   UNL     1       4.603  -4.830  -2.832  0.00  0.00    +0.164 C 
ATOM     17  O   UNL     1       4.399  -4.626  -1.652  0.00  0.00    -0.292 OA
ATOM     18  C   UNL     1       6.003  -5.114  -3.302  0.00  0.00    +0.086 C 
ATOM     19  C   UNL     1       7.345  -6.211  -5.112  0.00  0.00    +0.012 C 
BRANCH  14  20
ATOM     20  N   UNL     1       0.454  -5.581  -6.349  0.00  0.00    -0.328 N 
ATOM     21  H   UNL     1       0.705  -5.747  -7.407  0.00  0.00    +0.145 HD
ATOM     22  H   UNL     1      -0.575  -5.746  -5.996  0.00  0.00    +0.145 HD
ENDBRANCH  14  20
BRANCH  13  23
ATOM     23  C   UNL     1      -0.247  -5.184  -3.731  0.00  0.00    +0.101 C 
ATOM     24  N   UNL     1      -1.315  -5.355  -3.383  0.00  0.00    -0.191 NA
ENDBRANCH  13  23
ENDBRANCH   1  12
BRANCH   5  25
ATOM     25  C   UNL     1       1.309  -0.747  -0.010  0.00  0.00    +0.101 C 
ATOM     26  C   UNL     1       0.002  -0.004   0.002  0.00  0.00    +0.098 C 
ATOM     27  C   UNL     1      -0.016   1.351   0.009  0.00  0.00    +0.198 C 
ATOM     28  O   UNL     1       1.120   2.065   0.003  0.00  0.00    -0.445 OA
ATOM     29  C   UNL     1       2.268   1.501   0.420  0.00  0.00    +0.115 C 
ATOM     30  C   UNL     1       2.428   0.165   0.433  0.00  0.00    +0.046 C 
ATOM     31  C   UNL     1       3.635  -0.425   0.854  0.00  0.00    +0.164 C 
ATOM     32  O   UNL     1       3.736  -1.635   0.867  0.00  0.00    -0.292 OA
ATOM     33  C   UNL     1       4.803   0.418   1.289  0.00  0.00    +0.086 C 
ATOM     34  C   UNL     1       4.735   1.769   0.569  0.00  0.00    -0.021 C 
ATOM     35  C   UNL     1       3.382   2.414   0.876  0.00  0.00    +0.081 C 
ATOM     36  C   UNL     1       4.872   1.555  -0.940  0.00  0.00    +0.012 C 
ATOM     37  C   UNL     1       5.862   2.678   1.064  0.00  0.00    +0.012 C 
BRANCH  27  38
ATOM     38  N   UNL     1      -1.222   2.007   0.019  0.00  0.00    -0.328 N 
ATOM     39  H   UNL     1      -1.250   3.106   0.025  0.00  0.00    +0.145 HD
ATOM     40  H   UNL     1      -2.160   1.433   0.020  0.00  0.00    +0.145 HD
ENDBRANCH  27  38
BRANCH  26  41
ATOM     41  C   UNL     1      -1.231  -0.733   0.006  0.00  0.00    +0.101 C 
ATOM     42  N   UNL     1      -2.209  -1.311   0.010  0.00  0.00    -0.191 NA
ENDBRANCH  26  41
ENDBRANCH   5  25
TORSDOF 6
