REMARK  Name = ZINC10048445
REMARK  10 active torsions:
REMARK  status: ('A' for Active; 'I' for Inactive)
REMARK    1  A    between atoms: C_1  and  C_2
REMARK    2  A    between atoms: C_5  and  N_8
REMARK    3  A    between atoms: C_9  and  C_36
REMARK    4  A    between atoms: N_18  and  C_23
REMARK    5  A    between atoms: N_21  and  C_22
REMARK    6  A    between atoms: C_23  and  C_24
REMARK    7  A    between atoms: C_24  and  C_26
REMARK    8  A    between atoms: C_24  and  C_27
REMARK    9  A    between atoms: C_27  and  N_28
REMARK   10  A    between atoms: N_28  and  C_29
REMARK                            x       y       z     vdW  Elec       q    Type
REMARK                         _______ _______ _______ _____ _____    ______ ____
ROOT
ATOM      1  N   UNL     1       4.568   2.424  -0.029  0.00  0.00    -0.283 N 
ATOM      2  C   UNL     1       4.662   1.044  -0.038  0.00  0.00    +0.040 A 
ATOM      3  C   UNL     1       3.430   0.544  -0.028  0.00  0.00    +0.116 A 
ATOM      4  N   UNL     1       2.531   1.596  -0.014  0.00  0.00    -0.277 N 
ATOM      5  C   UNL     1       3.236   2.752  -0.014  0.00  0.00    +0.223 A 
ATOM      6  N   UNL     1       2.395   3.776  -0.001  0.00  0.00    -0.193 NA
ATOM      7  C   UNL     1       1.141   3.334   0.009  0.00  0.00    +0.170 A 
ATOM      8  C   UNL     1       1.188   1.940   0.001  0.00  0.00    +0.157 A 
ATOM      9  C   UNL     1      -0.015   1.215   0.009  0.00  0.00    +0.283 A 
ATOM     10  O   UNL     1       0.002  -0.004   0.002  0.00  0.00    -0.265 OA
ATOM     11  N   UNL     1      -1.188   1.880   0.018  0.00  0.00    -0.259 N 
ATOM     12  C   UNL     1      -1.224   3.223   0.032  0.00  0.00    +0.333 A 
ATOM     13  O   UNL     1      -2.301   3.788   0.046  0.00  0.00    -0.246 OA
ATOM     14  N   UNL     1      -0.097   3.960   0.025  0.00  0.00    -0.279 N 
ATOM     15  C   UNL     1      -0.177   5.423   0.034  0.00  0.00    +0.155 C 
ATOM     16  C   UNL     1       5.940   0.245  -0.055  0.00  0.00    +0.065 C 
ENDROOT
BRANCH   1  21
ATOM     17  C   UNL     1       8.912   6.074  -0.048  0.00  0.00    +0.044 C 
ATOM     18  C   UNL     1       7.758   5.104  -0.043  0.00  0.00    -0.050 A 
ATOM     19  C   UNL     1       7.546   4.279  -1.132  0.00  0.00    +0.005 A 
ATOM     20  C   UNL     1       6.489   3.389  -1.130  0.00  0.00    +0.026 A 
ATOM     21  C   UNL     1       5.640   3.324  -0.034  0.00  0.00    +0.050 A 
ATOM     22  C   UNL     1       5.853   4.158   1.056  0.00  0.00    +0.026 A 
ATOM     23  C   UNL     1       6.914   5.042   1.050  0.00  0.00    +0.005 A 
ENDBRANCH   1  21
BRANCH  11  24
ATOM     24  C   UNL     1      -2.444   1.125   0.019  0.00  0.00    +0.134 C 
BRANCH  24  25
ATOM     25  C   UNL     1      -2.874   0.855   1.462  0.00  0.00    +0.023 C 
ATOM     26  C   UNL     1      -3.197   2.180   2.155  0.00  0.00    +0.011 C 
BRANCH  25  27
ATOM     27  C   UNL     1      -4.117  -0.038   1.464  0.00  0.00    +0.106 C 
BRANCH  27  28
ATOM     28  N   UNL     1      -4.459  -0.396   2.843  0.00  0.00    -0.341 N 
ATOM     29  H   UNL     1      -3.918  -0.066   3.578  0.00  0.00    +0.146 HD
BRANCH  28  30
ATOM     30  C   UNL     1      -5.565  -1.211   3.100  0.00  0.00    +0.063 A 
ATOM     31  C   UNL     1      -6.344  -1.679   2.050  0.00  0.00    +0.026 A 
ATOM     32  C   UNL     1      -7.434  -2.488   2.307  0.00  0.00    +0.002 A 
ATOM     33  C   UNL     1      -7.756  -2.825   3.609  0.00  0.00    +0.003 A 
ATOM     34  C   UNL     1      -6.987  -2.358   4.658  0.00  0.00    +0.040 A 
ATOM     35  C   UNL     1      -5.892  -1.552   4.409  0.00  0.00    +0.144 A 
ATOM     36  F   UNL     1      -5.140  -1.095   5.434  0.00  0.00    -0.204 F 
ENDBRANCH  28  30
ENDBRANCH  27  28
ENDBRANCH  25  27
ENDBRANCH  24  25
ENDBRANCH  11  24
TORSDOF 6
