REMARK  Name = ZINC23157441
REMARK  8 active torsions:
REMARK  status: ('A' for Active; 'I' for Inactive)
REMARK    1  A    between atoms: C_1  and  C_2
REMARK    2  A    between atoms: C_3  and  C_23
REMARK    3  A    between atoms: C_4  and  C_22
REMARK    4  A    between atoms: C_7  and  C_8
REMARK    5  A    between atoms: N_10  and  C_11
REMARK    6  A    between atoms: C_16  and  C_21
REMARK    7  A    between atoms: C_18  and  C_20
REMARK    8  A    between atoms: C_23  and  C_25
REMARK                            x       y       z     vdW  Elec       q    Type
REMARK                         _______ _______ _______ _____ _____    ______ ____
ROOT
ATOM      1  C   UNL     1       1.177   1.586   0.545  0.00  0.00    +0.261 C 
ATOM      2  O   UNL     1       1.146   2.796   0.668  0.00  0.00    -0.269 OA
ATOM      3  N   UNL     1       0.049   0.865   0.697  0.00  0.00    -0.307 N 
ATOM      4  H   UNL     1       0.077  -0.230   0.590  0.00  0.00    +0.149 HD
ENDROOT
BRANCH   1  11
ATOM      5  C   UNL     1       3.923   3.002   0.129  0.00  0.00    +0.047 C 
ATOM      6  C   UNL     1       3.647   1.523   0.049  0.00  0.00    -0.010 A 
ATOM      7  C   UNL     1       4.590   0.504  -0.229  0.00  0.00    +0.041 A 
ATOM      8  C   UNL     1       3.902  -0.699  -0.211  0.00  0.00    +0.024 A 
ATOM      9  N   UNL     1       2.614  -0.445   0.066  0.00  0.00    -0.354 N 
ATOM     10  H   UNL     1       1.892  -1.272   0.128  0.00  0.00    +0.166 HD
ATOM     11  C   UNL     1       2.443   0.912   0.231  0.00  0.00    +0.106 A 
ATOM     12  C   UNL     1       4.499  -2.060  -0.460  0.00  0.00    +0.064 C 
BRANCH   7  13
ATOM     13  C   UNL     1       6.021   0.687  -0.491  0.00  0.00    +0.162 C 
ATOM     14  O   UNL     1       6.419   0.796  -1.632  0.00  0.00    -0.292 OA
ATOM     15  C   UNL     1       6.996   0.740   0.656  0.00  0.00    +0.091 C 
ENDBRANCH   7  13
ENDBRANCH   1  11
BRANCH   3  16
ATOM     16  C   UNL     1      -1.216   1.538   1.004  0.00  0.00    +0.076 C 
ATOM     17  C   UNL     1      -1.328   1.747   2.515  0.00  0.00    +0.022 C 
ATOM     18  C   UNL     1      -2.649   2.450   2.836  0.00  0.00    +0.002 C 
ATOM     19  C   UNL     1      -3.816   1.587   2.352  0.00  0.00    +0.003 C 
ATOM     20  C   UNL     1      -3.704   1.378   0.841  0.00  0.00    -0.009 C 
ATOM     21  C   UNL     1      -2.383   0.675   0.520  0.00  0.00    +0.009 C 
ATOM     22  C   UNL     1      -2.271   0.465  -0.991  0.00  0.00    +0.009 C 
ATOM     23  C   UNL     1      -4.871   0.515   0.357  0.00  0.00    +0.008 C 
ENDBRANCH   3  16
TORSDOF 3
