REMARK  Name = ZINC09256352
REMARK  5 active torsions:
REMARK  status: ('A' for Active; 'I' for Inactive)
REMARK    1  A    between atoms: C_8  and  C_10
REMARK    2  A    between atoms: N_12  and  C_13
REMARK    3  A    between atoms: C_13  and  C_14
REMARK    4  A    between atoms: N_16  and  C_17
REMARK    5  A    between atoms: C_22  and  O_23
REMARK                            x       y       z     vdW  Elec       q    Type
REMARK                         _______ _______ _______ _____ _____    ______ ____
ROOT
ATOM      1  C   UNL     1       2.521   1.915   0.026  0.00  0.00    +0.253 C 
ATOM      2  O   UNL     1       2.719   0.714   0.024  0.00  0.00    -0.270 OA
ATOM      3  N   UNL     1       3.563   2.769   0.009  0.00  0.00    -0.302 N 
ATOM      4  H   UNL     1       3.405   3.726   0.012  0.00  0.00    +0.150 HD
ENDROOT
BRANCH   1  12
ATOM      5  C   UNL     1      -3.647   2.695   0.108  0.00  0.00    +0.001 A 
ATOM      6  C   UNL     1      -3.522   4.079   0.106  0.00  0.00    +0.001 A 
ATOM      7  C   UNL     1      -2.265   4.648   0.101  0.00  0.00    +0.016 A 
ATOM      8  C   UNL     1      -1.152   3.836   0.084  0.00  0.00    +0.021 A 
ATOM      9  C   UNL     1      -1.249   2.424   0.081  0.00  0.00    +0.008 A 
ATOM     10  C   UNL     1      -2.560   1.882   0.096  0.00  0.00    +0.010 A 
ATOM     11  C   UNL     1      -0.021   1.735   0.067  0.00  0.00    +0.068 A 
ATOM     12  C   UNL     1       1.147   2.432   0.048  0.00  0.00    +0.093 A 
ATOM     13  S   UNL     1       0.599   4.130   0.056  0.00  0.00    -0.082 S 
ATOM     14 CL   UNL     1       0.001  -0.001   0.066  0.00  0.00    -0.082 Cl
ENDBRANCH   1  12
BRANCH   3  15
ATOM     15  C   UNL     1       4.934   2.253  -0.012  0.00  0.00    +0.200 C 
BRANCH  15  16
ATOM     16  C   UNL     1       5.904   3.406  -0.028  0.00  0.00    +0.234 C 
ATOM     17  O   UNL     1       5.492   4.546  -0.022  0.00  0.00    -0.274 OA
ATOM     18  N   UNL     1       7.231   3.169  -0.049  0.00  0.00    -0.281 N 
ATOM     19  H   UNL     1       7.563   2.259   0.011  0.00  0.00    +0.155 HD
BRANCH  18  20
ATOM     20  C   UNL     1       8.132   4.237  -0.158  0.00  0.00    +0.075 A 
ATOM     21  C   UNL     1       7.843   5.454   0.442  0.00  0.00    +0.027 A 
ATOM     22  C   UNL     1       8.735   6.505   0.337  0.00  0.00    +0.002 A 
ATOM     23  C   UNL     1       9.911   6.349  -0.373  0.00  0.00    +0.004 A 
ATOM     24  C   UNL     1      10.204   5.141  -0.977  0.00  0.00    +0.047 A 
ATOM     25  C   UNL     1       9.317   4.081  -0.873  0.00  0.00    +0.138 A 
BRANCH  25  26
ATOM     26  O   UNL     1       9.603   2.892  -1.468  0.00  0.00    -0.505 OA
ATOM     27  H   UNL     1       9.277   2.818  -2.375  0.00  0.00    +0.292 HD
ENDBRANCH  25  26
ENDBRANCH  18  20
ENDBRANCH  15  16
ENDBRANCH   3  15
TORSDOF 5
