REMARK  Name = ZINC43538393
REMARK  1 active torsions:
REMARK  status: ('A' for Active; 'I' for Inactive)
REMARK    1  A    between atoms: C_5  and  N_7
REMARK                            x       y       z     vdW  Elec       q    Type
REMARK                         _______ _______ _______ _____ _____    ______ ____
ROOT
ATOM      1  N   UNL     1       1.183  -2.040  -0.021  0.00  0.00    -0.305 N 
ATOM      2  C   UNL     1       2.439  -2.818  -0.140  0.00  0.00    +0.135 C 
ATOM      3  C   UNL     1       2.301  -3.905  -1.205  0.00  0.00    +0.179 C 
ATOM      4  O   UNL     1       1.056  -4.618  -1.087  0.00  0.00    -0.373 OA
ATOM      5  C   UNL     1      -0.044  -3.740  -1.185  0.00  0.00    +0.139 C 
ATOM      6  C   UNL     1      -0.024  -2.847   0.094  0.00  0.00    +0.104 C 
ATOM      7  C   UNL     1      -1.364  -2.126   0.032  0.00  0.00    +0.025 C 
ATOM      8  C   UNL     1      -2.322  -3.109  -0.690  0.00  0.00    +0.004 C 
ATOM      9  C   UNL     1      -1.452  -4.330  -1.127  0.00  0.00    +0.033 C 
ENDROOT
BRANCH   1  14
ATOM     10  C   UNL     1       1.047   1.343  -1.141  0.00  0.00    +0.132 A 
ATOM     11  C   UNL     1       1.121   2.027   0.056  0.00  0.00    +0.132 A 
ATOM     12  N   UNL     1       1.213   1.364   1.197  0.00  0.00    -0.239 NA
ATOM     13  C   UNL     1       1.235   0.044   1.195  0.00  0.00    +0.169 A 
ATOM     14  C   UNL     1       1.160  -0.650  -0.013  0.00  0.00    +0.159 A 
ATOM     15  N   UNL     1       1.069   0.020  -1.153  0.00  0.00    -0.236 NA
ATOM     16 CL   UNL     1       1.356  -0.827   2.692  0.00  0.00    -0.058 Cl
ENDBRANCH   1  14
TORSDOF 1
