REMARK  Name = ZINC60359717
REMARK  14 active torsions:
REMARK  status: ('A' for Active; 'I' for Inactive)
REMARK    1  A    between atoms: C_1  and  C_2
REMARK    2  A    between atoms: C_2  and  C_3
REMARK    3  A    between atoms: C_2  and  C_4
REMARK    4  A    between atoms: C_4  and  C_6
REMARK    5  A    between atoms: C_4  and  N_23
REMARK    6  A    between atoms: N_8  and  C_9
REMARK    7  A    between atoms: C_9  and  C_10
REMARK    8  A    between atoms: C_10  and  C_11
REMARK    9  A    between atoms: C_11  and  N_12
REMARK   10  A    between atoms: C_16  and  C_18
REMARK   11  A    between atoms: N_20  and  C_21
REMARK   12  A    between atoms: N_20  and  C_22
REMARK   13  A    between atoms: C_24  and  C_26
REMARK   14  A    between atoms: C_26  and  C_27
REMARK                            x       y       z     vdW  Elec       q    Type
REMARK                         _______ _______ _______ _____ _____    ______ ____
ROOT
ATOM      1  C   UNL     1      -1.332  -0.567  -0.123  0.00  0.00    +0.161 C 
ENDROOT
BRANCH   1   2
ATOM      2  C   UNL     1      -1.243  -2.056   0.094  0.00  0.00    +0.234 C 
ATOM      3  O   UNL     1      -1.650  -2.818  -0.757  0.00  0.00    -0.274 OA
ATOM      4  N   UNL     1      -0.710  -2.540   1.234  0.00  0.00    -0.314 N 
ATOM      5  H   UNL     1      -0.318  -1.934   1.882  0.00  0.00    +0.149 HD
BRANCH   4   6
ATOM      6  C   UNL     1      -0.723  -3.982   1.493  0.00  0.00    +0.102 C 
BRANCH   6   7
ATOM      7  C   UNL     1      -0.061  -4.262   2.844  0.00  0.00    +0.000 C 
BRANCH   7   8
ATOM      8  C   UNL     1      -0.075  -5.768   3.115  0.00  0.00    -0.076 C 
BRANCH   8   9
ATOM      9  N   UNL     1       0.560  -6.037   4.412  0.00  0.00    +0.387 N 
ATOM     10  C   UNL     1      -0.288  -5.518   5.516  0.00  0.00    -0.078 C 
ATOM     11  C   UNL     1       0.184  -6.338   6.742  0.00  0.00    -0.020 C 
ATOM     12  C   UNL     1       0.447  -7.738   6.141  0.00  0.00    -0.008 C 
ATOM     13  C   UNL     1       0.664  -7.496   4.636  0.00  0.00    +0.019 C 
ATOM     14  H   UNL     1       1.476  -5.614   4.447  0.00  0.00    -0.081 HD
BRANCH  13  15
ATOM     15  C   UNL     1       2.032  -7.981   4.231  0.00  0.00    +0.202 C 
ATOM     16  O   UNL     1       2.849  -7.198   3.796  0.00  0.00    -0.277 OA
ATOM     17  N   UNL     1       2.346  -9.286   4.351  0.00  0.00    -0.309 N 
ATOM     18  C   UNL     1       3.676  -9.758   3.956  0.00  0.00    +0.131 C 
ATOM     19  C   UNL     1       1.359 -10.233   4.876  0.00  0.00    +0.131 C 
ENDBRANCH  13  15
ENDBRANCH   8   9
ENDBRANCH   7   8
ENDBRANCH   6   7
ENDBRANCH   4   6
ENDBRANCH   1   2
BRANCH   1  20
ATOM     20  N   UNL     1      -2.353  -0.281  -1.134  0.00  0.00    -0.303 N 
ATOM     21  C   UNL     1      -2.970   0.916  -1.149  0.00  0.00    +0.218 C 
ATOM     22  O   UNL     1      -2.681   1.758  -0.325  0.00  0.00    -0.275 OA
ATOM     23  H   UNL     1      -2.584  -0.954  -1.793  0.00  0.00    +0.149 HD
BRANCH  21  24
ATOM     24  C   UNL     1      -4.020   1.210  -2.189  0.00  0.00    +0.131 C 
BRANCH  24  25
ATOM     25  C   UNL     1      -4.550   2.607  -1.987  0.00  0.00    -0.038 A 
ATOM     26  C   UNL     1      -5.645   2.811  -1.149  0.00  0.00    +0.005 A 
ATOM     27  C   UNL     1      -6.149   4.058  -0.945  0.00  0.00    +0.009 A 
ATOM     28  C   UNL     1      -5.558   5.160  -1.588  0.00  0.00    -0.018 A 
ATOM     29  C   UNL     1      -6.050   6.463  -1.402  0.00  0.00    +0.008 A 
ATOM     30  C   UNL     1      -5.453   7.506  -2.041  0.00  0.00    +0.001 A 
ATOM     31  C   UNL     1      -4.358   7.302  -2.879  0.00  0.00    +0.001 A 
ATOM     32  C   UNL     1      -3.855   6.054  -3.083  0.00  0.00    +0.008 A 
ATOM     33  C   UNL     1      -4.445   4.952  -2.440  0.00  0.00    -0.018 A 
ATOM     34  C   UNL     1      -3.950   3.650  -2.622  0.00  0.00    +0.012 A 
ENDBRANCH  24  25
ENDBRANCH  21  24
ENDBRANCH   1  20
BRANCH   1  36
ATOM     35  C   UNL     1       0.336  -0.618  -1.982  0.00  0.00    +0.009 C 
ATOM     36  C   UNL     1       0.022  -0.039  -0.601  0.00  0.00    +0.012 C 
ATOM     37  C   UNL     1      -0.027   1.488  -0.687  0.00  0.00    +0.009 C 
ENDBRANCH   1  36
TORSDOF 10
