REMARK  Name = ZINC20738039
REMARK  10 active torsions:
REMARK  status: ('A' for Active; 'I' for Inactive)
REMARK    1  A    between atoms: C_1  and  O_2
REMARK    2  A    between atoms: O_2  and  C_3
REMARK    3  A    between atoms: C_3  and  C_5
REMARK    4  A    between atoms: C_5  and  C_6
REMARK    5  A    between atoms: C_6  and  C_7
REMARK    6  A    between atoms: C_7  and  C_9
REMARK    7  A    between atoms: C_7  and  N_13
REMARK    8  A    between atoms: C_9  and  O_11
REMARK    9  A    between atoms: O_11  and  C_12
REMARK   10  A    between atoms: C_25  and  C_27
REMARK                            x       y       z     vdW  Elec       q    Type
REMARK                         _______ _______ _______ _____ _____    ______ ____
ROOT
ATOM      1  N   UNL     1      -1.670  -7.022  -0.078  0.00  0.00    -0.286 N 
ATOM      2  C   UNL     1      -1.699  -6.085  -1.046  0.00  0.00    +0.304 C 
ATOM      3  O   UNL     1      -2.259  -5.024  -0.849  0.00  0.00    -0.253 OA
ATOM      4  N   UNL     1      -1.107  -6.324  -2.233  0.00  0.00    -0.273 N 
ATOM      5  C   UNL     1      -1.023  -5.273  -3.259  0.00  0.00    +0.116 C 
ATOM      6  C   UNL     1      -1.838  -5.700  -4.486  0.00  0.00    +0.076 C 
ATOM      7  C   UNL     1      -1.519  -7.139  -4.806  0.00  0.00    +0.066 A 
ATOM      8  C   UNL     1      -0.942  -8.003  -3.942  0.00  0.00    +0.064 A 
ATOM      9  N   UNL     1      -0.820  -9.195  -4.585  0.00  0.00    -0.346 N 
ATOM     10  H   UNL     1      -0.444 -10.011  -4.220  0.00  0.00    +0.167 HD
ATOM     11  C   UNL     1      -1.325  -9.027  -5.829  0.00  0.00    +0.197 A 
ATOM     12  N   UNL     1      -1.739  -7.793  -5.951  0.00  0.00    -0.240 NA
ATOM     13  C   UNL     1      -0.522  -7.643  -2.535  0.00  0.00    +0.156 C 
ATOM     14  H   UNL     1      -1.286  -7.894  -0.259  0.00  0.00    +0.151 HD
ENDROOT
BRANCH  13  15
ATOM     15  C   UNL     1       0.981  -7.570  -2.446  0.00  0.00    -0.021 A 
ATOM     16  C   UNL     1       1.686  -6.761  -3.318  0.00  0.00    +0.007 A 
ATOM     17  C   UNL     1       3.064  -6.694  -3.237  0.00  0.00    +0.015 A 
ATOM     18  C   UNL     1       3.738  -7.436  -2.283  0.00  0.00    +0.018 A 
ATOM     19  C   UNL     1       3.032  -8.245  -1.411  0.00  0.00    +0.015 A 
ATOM     20  C   UNL     1       1.653  -8.307  -1.490  0.00  0.00    +0.007 A 
ATOM     21 BR   UNL     1       5.623  -7.344  -2.172  0.00  0.00    -0.050 Br
ENDBRANCH  13  15
BRANCH   1  22
ATOM     22  C   UNL     1      -2.217  -6.722   1.248  0.00  0.00    +0.184 C 
BRANCH  22  23
ATOM     23  C   UNL     1      -1.166  -6.035   2.081  0.00  0.00    +0.327 C 
ATOM     24  O   UNL     1      -0.072  -5.818   1.616  0.00  0.00    -0.249 OA
BRANCH  23  25
ATOM     25  O   UNL     1      -1.445  -5.665   3.341  0.00  0.00    -0.467 OA
ATOM     26  C   UNL     1      -0.402  -5.018   4.073  0.00  0.00    +0.280 C 
ENDBRANCH  23  25
ENDBRANCH  22  23
BRANCH  22  27
ATOM     27  C   UNL     1      -2.639  -8.024   1.931  0.00  0.00    +0.045 C 
BRANCH  27  28
ATOM     28  C   UNL     1      -3.792  -8.659   1.151  0.00  0.00    +0.123 C 
BRANCH  28  29
ATOM     29  C   UNL     1      -4.207  -9.942   1.824  0.00  0.00    +0.307 C 
ATOM     30  O   UNL     1      -3.640 -10.310   2.825  0.00  0.00    -0.251 OA
BRANCH  29  32
ATOM     31  C   UNL     1      -5.550 -11.879   2.002  0.00  0.00    +0.280 C 
ATOM     32  O   UNL     1      -5.208 -10.675   1.312  0.00  0.00    -0.468 OA
ENDBRANCH  29  32
ENDBRANCH  28  29
ENDBRANCH  27  28
ENDBRANCH  22  27
ENDBRANCH   1  22
TORSDOF 8
