REMARK  Name = ZINC59946758
REMARK  9 active torsions:
REMARK  status: ('A' for Active; 'I' for Inactive)
REMARK    1  A    between atoms: C_1  and  C_2
REMARK    2  A    between atoms: C_2  and  C_3
REMARK    3  A    between atoms: C_3  and  C_4
REMARK    4  A    between atoms: C_4  and  C_5
REMARK    5  A    between atoms: C_5  and  C_6
REMARK    6  A    between atoms: C_6  and  N_7
REMARK    7  A    between atoms: C_15  and  N_16
REMARK    8  A    between atoms: C_17  and  C_18
REMARK    9  A    between atoms: C_23  and  O_24
REMARK                            x       y       z     vdW  Elec       q    Type
REMARK                         _______ _______ _______ _____ _____    ______ ____
ROOT
ATOM      1  N   UNL     1      -4.202  -4.630   0.017  0.00  0.00    -0.310 N 
ATOM      2  C   UNL     1      -4.963  -4.915   1.136  0.00  0.00    +0.068 A 
ATOM      3  C   UNL     1      -4.733  -4.835   2.502  0.00  0.00    +0.028 A 
ATOM      4  C   UNL     1      -5.726  -5.205   3.385  0.00  0.00    +0.002 A 
ATOM      5  C   UNL     1      -6.952  -5.655   2.917  0.00  0.00    +0.002 A 
ATOM      6  C   UNL     1      -7.197  -5.741   1.576  0.00  0.00    +0.028 A 
ATOM      7  C   UNL     1      -6.206  -5.371   0.661  0.00  0.00    +0.066 A 
ATOM      8  N   UNL     1      -6.152  -5.346  -0.693  0.00  0.00    -0.324 N 
ATOM      9  C   UNL     1      -4.976  -4.905  -1.080  0.00  0.00    +0.209 A 
ATOM     10  H   UNL     1      -6.873  -5.609  -1.286  0.00  0.00    +0.169 HD
ENDROOT
BRANCH   9  11
ATOM     11  N   UNL     1      -4.585  -4.750  -2.372  0.00  0.00    -0.221 NA
ATOM     12  C   UNL     1      -5.409  -5.045  -3.344  0.00  0.00    +0.126 C 
BRANCH  12  13
ATOM     13  C   UNL     1      -4.987  -4.877  -4.740  0.00  0.00    +0.037 A 
ATOM     14  C   UNL     1      -5.867  -5.185  -5.784  0.00  0.00    +0.028 A 
ATOM     15  C   UNL     1      -5.464  -5.025  -7.092  0.00  0.00    +0.020 A 
ATOM     16  C   UNL     1      -4.190  -4.559  -7.380  0.00  0.00    +0.034 A 
ATOM     17  C   UNL     1      -3.311  -4.250  -6.359  0.00  0.00    +0.061 A 
ATOM     18  C   UNL     1      -3.700  -4.400  -5.037  0.00  0.00    +0.139 A 
ATOM     19 BR   UNL     1      -1.576  -3.617  -6.767  0.00  0.00    -0.046 Br
ATOM     20 BR   UNL     1      -6.653  -5.442  -8.502  0.00  0.00    -0.050 Br
BRANCH  18  21
ATOM     21  O   UNL     1      -2.839  -4.092  -4.034  0.00  0.00    -0.505 OA
ATOM     22  H   UNL     1      -2.284  -4.832  -3.750  0.00  0.00    +0.292 HD
ENDBRANCH  18  21
ENDBRANCH  12  13
ENDBRANCH   9  11
BRANCH   1  23
ATOM     23  C   UNL     1      -2.827  -4.123   0.007  0.00  0.00    +0.125 C 
BRANCH  23  24
ATOM     24  C   UNL     1      -2.848  -2.593   0.015  0.00  0.00    +0.022 C 
BRANCH  24  25
ATOM     25  C   UNL     1      -1.413  -2.063   0.004  0.00  0.00    +0.002 C 
BRANCH  25  26
ATOM     26  C   UNL     1      -1.433  -0.534   0.013  0.00  0.00    -0.000 C 
BRANCH  26  28
ATOM     27  C   UNL     1      -0.019   1.526   0.010  0.00  0.00    +0.004 C 
ATOM     28  C   UNL     1       0.002  -0.004   0.002  0.00  0.00    -0.003 C 
ENDBRANCH  26  28
ENDBRANCH  25  26
ENDBRANCH  24  25
ENDBRANCH  23  24
ENDBRANCH   1  23
TORSDOF 8
