REMARK  Name = ZINC37288491
REMARK  4 active torsions:
REMARK  status: ('A' for Active; 'I' for Inactive)
REMARK    1  A    between atoms: C_6  and  C_7
REMARK    2  A    between atoms: C_7  and  O_8
REMARK    3  A    between atoms: O_8  and  C_9
REMARK    4  A    between atoms: C_10  and  N_17
REMARK                            x       y       z     vdW  Elec       q    Type
REMARK                         _______ _______ _______ _____ _____    ______ ____
ROOT
ATOM      1  C   UNL     1      -2.876  -1.700  -1.505  0.00  0.00    +0.155 A 
ATOM      2  C   UNL     1      -2.855  -3.090  -1.599  0.00  0.00    +0.069 A 
ATOM      3  C   UNL     1      -4.041  -3.788  -1.772  0.00  0.00    +0.046 A 
ATOM      4  C   UNL     1      -5.241  -3.104  -1.852  0.00  0.00    +0.044 A 
ATOM      5  C   UNL     1      -5.260  -1.724  -1.760  0.00  0.00    +0.039 A 
ATOM      6  C   UNL     1      -4.081  -1.022  -1.581  0.00  0.00    +0.063 A 
ATOM      7 BR   UNL     1      -4.114   0.864  -1.447  0.00  0.00    -0.046 Br
ATOM      8 CL   UNL     1      -6.724  -3.978  -2.070  0.00  0.00    -0.083 Cl
ENDROOT
BRANCH   2   9
ATOM      9  N   UNL     1      -1.640  -3.781  -1.518  0.00  0.00    -0.355 N 
ATOM     10  H   UNL     1      -0.811  -3.292  -1.397  0.00  0.00    +0.142 HD
ATOM     11  H   UNL     1      -1.627  -4.749  -1.583  0.00  0.00    +0.142 HD
ENDBRANCH   2   9
BRANCH   1  12
ATOM     12  O   UNL     1      -1.715  -1.012  -1.334  0.00  0.00    -0.484 OA
BRANCH  12  13
ATOM     13  C   UNL     1      -1.293  -0.775   0.010  0.00  0.00    +0.264 C 
BRANCH  13  19
ATOM     14  C   UNL     1      -0.017   1.378   0.010  0.00  0.00    +0.008 A 
ATOM     15  C   UNL     1       1.171   2.086   0.002  0.00  0.00    +0.015 A 
ATOM     16  C   UNL     1       2.378   1.411  -0.013  0.00  0.00    +0.018 A 
ATOM     17  C   UNL     1       2.396   0.027  -0.021  0.00  0.00    +0.015 A 
ATOM     18  C   UNL     1       1.208  -0.679  -0.013  0.00  0.00    +0.008 A 
ATOM     19  C   UNL     1       0.002  -0.004   0.002  0.00  0.00    -0.010 A 
ATOM     20 BR   UNL     1       4.003   2.378  -0.024  0.00  0.00    -0.050 Br
ENDBRANCH  13  19
ENDBRANCH  12  13
ENDBRANCH   1  12
TORSDOF 4
