REMARK  Name = ZINC39936448
REMARK  11 active torsions:
REMARK  status: ('A' for Active; 'I' for Inactive)
REMARK    1  A    between atoms: C_1  and  C_2
REMARK    2  A    between atoms: C_5  and  C_19
REMARK    3  A    between atoms: C_6  and  C_18
REMARK    4  A    between atoms: N_7  and  C_8
REMARK    5  A    between atoms: C_11  and  O_14
REMARK    6  A    between atoms: O_14  and  C_15
REMARK    7  A    between atoms: C_19  and  C_21
REMARK    8  A    between atoms: C_21  and  S_22
REMARK    9  A    between atoms: S_22  and  C_23
REMARK   10  A    between atoms: C_27  and  C_29
REMARK   11  A    between atoms: C_34  and  O_35
REMARK                            x       y       z     vdW  Elec       q    Type
REMARK                         _______ _______ _______ _____ _____    ______ ____
ROOT
ATOM      1  C   UNL     1      -2.416  -2.395   1.535  0.00  0.00    +0.171 C 
ATOM      2  O   UNL     1      -2.224  -3.278   2.348  0.00  0.00    -0.291 OA
ENDROOT
BRANCH   1   6
ATOM      3  C   UNL     1      -0.174   1.699   0.563  0.00  0.00    +0.029 C 
ATOM      4  C   UNL     1      -0.046   0.218   0.203  0.00  0.00    +0.080 C 
ATOM      5  C   UNL     1      -1.436  -0.442   0.133  0.00  0.00    +0.062 C 
ATOM      6  C   UNL     1      -1.381  -1.510   1.204  0.00  0.00    +0.015 C 
ATOM      7  C   UNL     1      -0.164  -1.465   1.785  0.00  0.00    +0.015 C 
ATOM      8  N   UNL     1       0.652  -0.511   1.271  0.00  0.00    -0.300 N 
ATOM      9  C   UNL     1       0.251  -2.390   2.901  0.00  0.00    +0.061 C 
BRANCH   8  10
ATOM     10  C   UNL     1       1.962  -0.258   1.693  0.00  0.00    +0.034 A 
ATOM     11  C   UNL     1       2.195   0.263   2.960  0.00  0.00    +0.027 A 
ATOM     12  C   UNL     1       3.487   0.513   3.376  0.00  0.00    +0.047 A 
ATOM     13  C   UNL     1       4.553   0.245   2.529  0.00  0.00    +0.127 A 
ATOM     14  C   UNL     1       4.321  -0.275   1.264  0.00  0.00    +0.047 A 
ATOM     15  C   UNL     1       3.030  -0.531   0.849  0.00  0.00    +0.027 A 
BRANCH  13  16
ATOM     16  O   UNL     1       5.825   0.492   2.939  0.00  0.00    -0.434 OA
BRANCH  16  17
ATOM     17  C   UNL     1       6.875   0.192   2.017  0.00  0.00    +0.541 C 
ATOM     18  F   UNL     1       6.840  -1.170   1.698  0.00  0.00    -0.166 F 
ATOM     19  F   UNL     1       6.702   0.948   0.852  0.00  0.00    -0.166 F 
ENDBRANCH  16  17
ENDBRANCH  13  16
ENDBRANCH   8  10
ENDBRANCH   1   6
BRANCH   1  20
ATOM     20  C   UNL     1      -3.767  -2.251   0.884  0.00  0.00    +0.156 C 
BRANCH  20  21
ATOM     21  S   UNL     1      -4.883  -3.534   1.517  0.00  0.00    -0.079 S 
BRANCH  21  22
ATOM     22  C   UNL     1      -6.400  -3.234   0.671  0.00  0.00    +0.185 A 
ATOM     23  N   UNL     1      -7.543  -3.939   0.817  0.00  0.00    -0.253 N 
ATOM     24  H   UNL     1      -7.685  -4.699   1.403  0.00  0.00    +0.191 HD
ATOM     25  N   UNL     1      -8.486  -3.355  -0.044  0.00  0.00    -0.151 NA
ATOM     26  C   UNL     1      -7.883  -2.357  -0.650  0.00  0.00    +0.186 A 
ATOM     27  N   UNL     1      -6.618  -2.282  -0.210  0.00  0.00    -0.201 NA
BRANCH  26  28
ATOM     28  C   UNL     1      -8.502  -1.456  -1.652  0.00  0.00    +0.062 A 
ATOM     29  C   UNL     1      -7.754  -0.433  -2.231  0.00  0.00    +0.015 A 
ATOM     30  C   UNL     1      -8.334   0.402  -3.163  0.00  0.00    +0.001 A 
ATOM     31  C   UNL     1      -9.658   0.228  -3.526  0.00  0.00    +0.004 A 
ATOM     32  C   UNL     1     -10.409  -0.784  -2.959  0.00  0.00    +0.046 A 
ATOM     33  C   UNL     1      -9.838  -1.633  -2.026  0.00  0.00    +0.128 A 
BRANCH  33  34
ATOM     34  O   UNL     1     -10.574  -2.631  -1.471  0.00  0.00    -0.506 OA
ATOM     35  H   UNL     1     -11.040  -2.374  -0.664  0.00  0.00    +0.292 HD
ENDBRANCH  33  34
ENDBRANCH  26  28
ENDBRANCH  21  22
ENDBRANCH  20  21
ENDBRANCH   1  20
TORSDOF 9
