REMARK  Name = ZINC05626379
REMARK  8 active torsions:
REMARK  status: ('A' for Active; 'I' for Inactive)
REMARK    1  A    between atoms: C_4  and  C_7
REMARK    2  A    between atoms: C_7  and  S_8
REMARK    3  A    between atoms: S_8  and  C_9
REMARK    4  A    between atoms: N_15  and  C_19
REMARK    5  A    between atoms: C_19  and  C_20
REMARK    6  A    between atoms: C_20  and  C_22
REMARK    7  A    between atoms: C_20  and  O_24
REMARK    8  A    between atoms: C_22  and  O_23
REMARK                            x       y       z     vdW  Elec       q    Type
REMARK                         _______ _______ _______ _____ _____    ______ ____
ROOT
ATOM      1  C   UNL     1      -1.729  -0.334   0.017  0.00  0.00    +0.169 A 
ATOM      2  N   UNL     1      -2.296  -1.575   0.015  0.00  0.00    -0.329 N 
ATOM      3  H   UNL     1      -1.816  -2.452   0.006  0.00  0.00    +0.168 HD
ATOM      4  C   UNL     1      -3.657  -1.382   0.030  0.00  0.00    +0.119 A 
ATOM      5  C   UNL     1      -3.870  -0.003   0.039  0.00  0.00    +0.152 A 
ATOM      6  N   UNL     1      -2.681   0.582   0.036  0.00  0.00    -0.206 NA
ATOM      7  N   UNL     1      -5.158   0.518   0.053  0.00  0.00    -0.293 N 
ATOM      8  C   UNL     1      -6.090  -0.369  -0.649  0.00  0.00    +0.224 C 
ATOM      9  C   UNL     1      -4.790  -2.306   0.036  0.00  0.00    +0.118 C 
ATOM     10  N   UNL     1      -4.648  -3.647   0.339  0.00  0.00    -0.343 N 
ATOM     11  H   UNL     1      -3.773  -4.005   0.556  0.00  0.00    +0.144 HD
ATOM     12  H   UNL     1      -5.423  -4.230   0.333  0.00  0.00    +0.144 HD
ATOM     13  N   UNL     1      -6.028  -1.820  -0.265  0.00  0.00    -0.356 N 
ATOM     14  H   UNL     1      -6.868  -2.410  -0.230  0.00  0.00    +0.162 HD
ENDROOT
BRANCH   1  15
ATOM     15  S   UNL     1       0.002  -0.004   0.002  0.00  0.00    -0.083 S 
BRANCH  15  16
ATOM     16  C   UNL     1      -0.022   1.806   0.012  0.00  0.00    +0.112 C 
BRANCH  16  20
ATOM     17  C   UNL     1       3.985   3.285  -0.018  0.00  0.00    +0.000 A 
ATOM     18  C   UNL     1       3.325   3.052  -1.210  0.00  0.00    +0.000 A 
ATOM     19  C   UNL     1       2.028   2.573  -1.201  0.00  0.00    +0.004 A 
ATOM     20  C   UNL     1       1.391   2.327   0.001  0.00  0.00    -0.037 A 
ATOM     21  C   UNL     1       2.049   2.566   1.194  0.00  0.00    +0.004 A 
ATOM     22  C   UNL     1       3.348   3.039   1.184  0.00  0.00    +0.000 A 
ENDBRANCH  16  20
ENDBRANCH  15  16
ENDBRANCH   1  15
BRANCH   7  23
ATOM     23  C   UNL     1      -5.185   1.870  -0.521  0.00  0.00    +0.142 C 
BRANCH  23  24
ATOM     24  C   UNL     1      -6.636   2.311  -0.719  0.00  0.00    +0.157 C 
BRANCH  24  25
ATOM     25  O   UNL     1      -7.276   2.428   0.554  0.00  0.00    -0.388 OA
ATOM     26  H   UNL     1      -6.861   3.070   1.145  0.00  0.00    +0.210 HD
ENDBRANCH  24  25
BRANCH  24  27
ATOM     27  C   UNL     1      -6.665   3.666  -1.430  0.00  0.00    +0.188 C 
BRANCH  27  28
ATOM     28  O   UNL     1      -8.019   4.023  -1.719  0.00  0.00    -0.392 OA
ATOM     29  H   UNL     1      -8.113   4.872  -2.171  0.00  0.00    +0.210 HD
ENDBRANCH  27  28
ENDBRANCH  24  27
ENDBRANCH  23  24
ENDBRANCH   7  23
TORSDOF 8
