REMARK  Name = ZINC09546437
REMARK  9 active torsions:
REMARK  status: ('A' for Active; 'I' for Inactive)
REMARK    1  A    between atoms: C_1  and  C_2
REMARK    2  A    between atoms: C_2  and  C_3
REMARK    3  A    between atoms: C_3  and  C_4
REMARK    4  A    between atoms: C_4  and  C_5
REMARK    5  A    between atoms: C_5  and  S_6
REMARK    6  A    between atoms: S_6  and  C_7
REMARK    7  A    between atoms: C_20  and  C_23
REMARK    8  A    between atoms: C_26  and  O_29
REMARK    9  A    between atoms: O_29  and  C_30
REMARK                            x       y       z     vdW  Elec       q    Type
REMARK                         _______ _______ _______ _____ _____    ______ ____
ROOT
ATOM      1  C   UNL     1       0.214   0.949   2.734  0.00  0.00    +0.212 A 
ATOM      2  N   UNL     1      -0.070   1.159   4.017  0.00  0.00    -0.184 NA
ATOM      3  C   UNL     1       0.692   0.607   4.946  0.00  0.00    +0.248 A 
ATOM      4  C   UNL     1       1.790  -0.186   4.542  0.00  0.00    +0.156 A 
ATOM      5  N   UNL     1       2.022  -0.349   3.249  0.00  0.00    -0.141 NA
ATOM      6  N   UNL     1       1.254   0.205   2.376  0.00  0.00    -0.122 NA
ATOM      7  C   UNL     1       2.650  -0.817   5.565  0.00  0.00    +0.029 A 
ATOM      8  C   UNL     1       4.035  -0.739   5.498  0.00  0.00    +0.027 A 
ATOM      9  C   UNL     1       4.805  -1.355   6.468  0.00  0.00    +0.019 A 
ATOM     10  C   UNL     1       4.202  -2.048   7.504  0.00  0.00    +0.017 A 
ATOM     11  C   UNL     1       2.824  -2.128   7.585  0.00  0.00    +0.025 A 
ATOM     12  C   UNL     1       2.041  -1.512   6.627  0.00  0.00    +0.040 A 
ATOM     13  N   UNL     1       0.645  -1.543   6.697  0.00  0.00    -0.305 N 
ATOM     14  C   UNL     1      -0.071  -0.307   6.999  0.00  0.00    +0.294 C 
ATOM     15  O   UNL     1       0.446   0.797   6.264  0.00  0.00    -0.449 OA
ATOM     16 BR   UNL     1       6.691  -1.248   6.379  0.00  0.00    -0.050 Br
ATOM     17  H   UNL     1       0.161  -2.370   6.548  0.00  0.00    +0.150 HD
ENDROOT
BRANCH  14  18
ATOM     18  C   UNL     1       0.050  -0.016   8.472  0.00  0.00    +0.011 A 
ATOM     19  C   UNL     1      -0.016  -1.051   9.388  0.00  0.00    +0.012 A 
ATOM     20  C   UNL     1       0.101  -0.787  10.739  0.00  0.00    +0.046 A 
ATOM     21  C   UNL     1       0.274   0.517  11.178  0.00  0.00    +0.120 A 
ATOM     22  C   UNL     1       0.335   1.554  10.258  0.00  0.00    +0.046 A 
ATOM     23  C   UNL     1       0.223   1.285   8.907  0.00  0.00    +0.012 A 
BRANCH  21  24
ATOM     24  O   UNL     1       0.382   0.779  12.507  0.00  0.00    -0.495 OA
ATOM     25  C   UNL     1       0.311  -0.337  13.396  0.00  0.00    +0.277 C 
ENDBRANCH  21  24
ENDBRANCH  14  18
BRANCH   1  26
ATOM     26  S   UNL     1      -0.801   1.675   1.491  0.00  0.00    -0.084 S 
BRANCH  26  27
ATOM     27  C   UNL     1       0.040   1.073   0.006  0.00  0.00    +0.077 C 
BRANCH  27  28
ATOM     28  C   UNL     1      -0.685   1.592  -1.237  0.00  0.00    +0.011 C 
BRANCH  28  29
ATOM     29  C   UNL     1       0.026   1.083  -2.492  0.00  0.00    +0.001 C 
BRANCH  29  31
ATOM     30  C   UNL     1       0.012   1.093  -4.991  0.00  0.00    +0.004 C 
ATOM     31  C   UNL     1      -0.699   1.602  -3.735  0.00  0.00    -0.003 C 
ENDBRANCH  29  31
ENDBRANCH  28  29
ENDBRANCH  27  28
ENDBRANCH  26  27
ENDBRANCH   1  26
TORSDOF 7
