REMARK  Name = ZINC00707466
REMARK  7 active torsions:
REMARK  status: ('A' for Active; 'I' for Inactive)
REMARK    1  A    between atoms: C_1  and  C_2
REMARK    2  A    between atoms: C_2  and  O_3
REMARK    3  A    between atoms: O_3  and  C_4
REMARK    4  A    between atoms: C_4  and  C_6
REMARK    5  A    between atoms: C_7  and  C_23
REMARK    6  A    between atoms: C_12  and  C_14
REMARK    7  A    between atoms: C_17  and  O_21
REMARK                            x       y       z     vdW  Elec       q    Type
REMARK                         _______ _______ _______ _____ _____    ______ ____
ROOT
ATOM      1  C   UNL     1      -0.415   2.040   3.740  0.00  0.00    +0.083 C 
ATOM      2  C   UNL     1      -0.310   1.165   4.784  0.00  0.00    +0.052 C 
ATOM      3  N   UNL     1      -1.255   1.145   5.781  0.00  0.00    -0.296 N 
ATOM      4  C   UNL     1      -2.326   1.948   5.801  0.00  0.00    +0.135 C 
ATOM      5  S   UNL     1      -3.432   1.815   7.101  0.00  0.00    -0.019 S 
ATOM      6  N   UNL     1      -2.565   2.857   4.837  0.00  0.00    -0.315 N 
ATOM      7  C   UNL     1      -1.612   2.970   3.720  0.00  0.00    +0.141 C 
ATOM      8  H   UNL     1      -1.142   0.512   6.507  0.00  0.00    +0.154 HD
ATOM      9  H   UNL     1      -3.349   3.427   4.877  0.00  0.00    +0.149 HD
ENDROOT
BRANCH   7  10
ATOM     10  C   UNL     1      -1.099   4.386   3.690  0.00  0.00    -0.020 A 
ATOM     11  C   UNL     1      -0.673   4.991   4.858  0.00  0.00    +0.024 A 
ATOM     12  C   UNL     1      -0.197   6.289   4.832  0.00  0.00    +0.061 A 
ATOM     13  C   UNL     1      -0.157   6.988   3.635  0.00  0.00    +0.145 A 
ATOM     14  C   UNL     1      -0.589   6.380   2.464  0.00  0.00    +0.061 A 
ATOM     15  C   UNL     1      -1.059   5.080   2.495  0.00  0.00    +0.024 A 
ATOM     16 BR   UNL     1      -0.537   7.329   0.830  0.00  0.00    -0.046 Br
ATOM     17 BR   UNL     1       0.392   7.112   6.429  0.00  0.00    -0.046 Br
BRANCH  13  18
ATOM     18  O   UNL     1       0.306   8.266   3.607  0.00  0.00    -0.505 OA
ATOM     19  H   UNL     1      -0.379   8.935   3.747  0.00  0.00    +0.292 HD
ENDBRANCH  13  18
ENDBRANCH   7  10
BRANCH   2  20
ATOM     20  C   UNL     1       0.835   0.235   4.845  0.00  0.00    -0.003 A 
ATOM     21  C   UNL     1       1.002  -0.737   3.856  0.00  0.00    +0.010 A 
ATOM     22  C   UNL     1       2.077  -1.599   3.916  0.00  0.00    +0.001 A 
ATOM     23  C   UNL     1       2.983  -1.510   4.959  0.00  0.00    +0.000 A 
ATOM     24  C   UNL     1       2.821  -0.552   5.944  0.00  0.00    +0.001 A 
ATOM     25  C   UNL     1       1.753   0.320   5.894  0.00  0.00    +0.010 A 
ENDBRANCH   2  20
BRANCH   1  26
ATOM     26  C   UNL     1       0.551   2.072   2.715  0.00  0.00    +0.339 C 
ATOM     27  O   UNL     1       1.561   1.399   2.810  0.00  0.00    -0.245 OA
BRANCH  26  28
ATOM     28  O   UNL     1       0.356   2.849   1.628  0.00  0.00    -0.462 OA
BRANCH  28  30
ATOM     29  C   UNL     1       0.983   3.768  -0.517  0.00  0.00    +0.048 C 
ATOM     30  C   UNL     1       1.377   2.834   0.628  0.00  0.00    +0.229 C 
ENDBRANCH  28  30
ENDBRANCH  26  28
ENDBRANCH   1  26
TORSDOF 6
