REMARK  Name = ZINC39673858
REMARK  12 active torsions:
REMARK  status: ('A' for Active; 'I' for Inactive)
REMARK    1  A    between atoms: C_1  and  C_2
REMARK    2  A    between atoms: C_2  and  C_3
REMARK    3  A    between atoms: C_3  and  C_4
REMARK    4  A    between atoms: C_4  and  C_6
REMARK    5  A    between atoms: C_4  and  N_7
REMARK    6  A    between atoms: C_8  and  C_10
REMARK    7  A    between atoms: C_21  and  C_23
REMARK    8  A    between atoms: C_23  and  C_25
REMARK    9  A    between atoms: C_23  and  O_28
REMARK   10  A    between atoms: C_25  and  C_26
REMARK   11  A    between atoms: C_25  and  C_27
REMARK   12  A    between atoms: O_28  and  C_29
REMARK                            x       y       z     vdW  Elec       q    Type
REMARK                         _______ _______ _______ _____ _____    ______ ____
ROOT
ATOM      1  C   UNL     1       2.032  -4.255   2.188  0.00  0.00    +0.100 C 
ATOM      2  C   UNL     1       3.443  -4.229   1.559  0.00  0.00    +0.121 C 
ATOM      3  N   UNL     1       3.956  -5.609   1.735  0.00  0.00    -0.297 N 
ATOM      4  C   UNL     1       2.781  -6.475   1.476  0.00  0.00    +0.115 C 
ATOM      5  C   UNL     1       1.601  -5.730   2.131  0.00  0.00    -0.004 C 
ATOM      6  C   UNL     1       0.345  -5.880   1.278  0.00  0.00    -0.010 C 
ATOM      7  C   UNL     1      -0.098  -7.346   1.284  0.00  0.00    -0.082 C 
ATOM      8  N   UNL     1      -0.364  -7.773   2.663  0.00  0.00    +0.379 N 
ATOM      9  C   UNL     1       0.871  -7.714   3.453  0.00  0.00    -0.082 C 
ATOM     10  C   UNL     1       1.355  -6.263   3.539  0.00  0.00    -0.010 C 
ATOM     11  C   UNL     1       5.208  -5.989   2.057  0.00  0.00    +0.257 C 
ATOM     12  O   UNL     1       5.500  -7.167   2.068  0.00  0.00    -0.272 OA
ATOM     13  H   UNL     1      -1.055  -7.164   3.075  0.00  0.00    -0.086 HD
ATOM     14  H   UNL     1      -0.714  -8.720   2.659  0.00  0.00    -0.086 HD
ENDROOT
BRANCH   1  16
ATOM     15  N   UNL     1      -0.033  -2.912   1.960  0.00  0.00    -0.312 N 
ATOM     16  C   UNL     1       1.085  -3.400   1.386  0.00  0.00    +0.218 C 
ATOM     17  O   UNL     1       1.329  -3.150   0.225  0.00  0.00    -0.275 OA
ATOM     18  H   UNL     1      -0.228  -3.112   2.889  0.00  0.00    +0.149 HD
BRANCH  15  19
ATOM     19  C   UNL     1      -0.954  -2.081   1.181  0.00  0.00    +0.070 C 
ATOM     20  C   UNL     1      -0.479  -0.627   1.213  0.00  0.00    +0.028 C 
BRANCH  19  21
ATOM     21  C   UNL     1      -2.357  -2.173   1.782  0.00  0.00    +0.022 C 
BRANCH  21  23
ATOM     22  C   UNL     1      -4.285  -3.695   2.239  0.00  0.00    +0.004 C 
ATOM     23  C   UNL     1      -2.881  -3.603   1.637  0.00  0.00    -0.002 C 
ENDBRANCH  21  23
ENDBRANCH  19  21
ENDBRANCH  15  19
ENDBRANCH   1  16
BRANCH  11  24
ATOM     24  C   UNL     1       6.246  -4.953   2.404  0.00  0.00    +0.261 C 
BRANCH  24  25
ATOM     25  C   UNL     1       6.182  -4.648   3.901  0.00  0.00    +0.033 C 
ATOM     26  C   UNL     1       7.322  -3.700   4.278  0.00  0.00    +0.011 C 
ATOM     27  C   UNL     1       4.841  -3.990   4.231  0.00  0.00    +0.011 C 
ENDBRANCH  24  25
BRANCH  24  28
ATOM     28  O   UNL     1       7.544  -5.449   2.073  0.00  0.00    -0.479 OA
BRANCH  28  29
ATOM     29  C   UNL     1       8.450  -4.549   1.610  0.00  0.00    +0.122 A 
ATOM     30  C   UNL     1       9.734  -4.960   1.283  0.00  0.00    +0.045 A 
ATOM     31  C   UNL     1      10.653  -4.042   0.811  0.00  0.00    +0.004 A 
ATOM     32  C   UNL     1      10.294  -2.715   0.665  0.00  0.00    +0.000 A 
ATOM     33  C   UNL     1       9.015  -2.303   0.991  0.00  0.00    +0.004 A 
ATOM     34  C   UNL     1       8.090  -3.217   1.457  0.00  0.00    +0.045 A 
ENDBRANCH  28  29
ENDBRANCH  24  28
ENDBRANCH  11  24
TORSDOF 8
