REMARK  Name = ZINC37496481
REMARK  5 active torsions:
REMARK  status: ('A' for Active; 'I' for Inactive)
REMARK    1  A    between atoms: C_1  and  C_2
REMARK    2  A    between atoms: C_2  and  C_4
REMARK    3  A    between atoms: C_2  and  N_11
REMARK    4  A    between atoms: N_11  and  C_12
REMARK    5  A    between atoms: C_13  and  C_15
REMARK                            x       y       z     vdW  Elec       q    Type
REMARK                         _______ _______ _______ _____ _____    ______ ____
ROOT
ATOM      1  N   UNL     1       0.642  -0.415  -1.186  0.00  0.00    -0.293 N 
ATOM      2  C   UNL     1       2.071  -0.173  -1.403  0.00  0.00    +0.133 C 
ATOM      3  C   UNL     1      -0.079  -1.072  -2.116  0.00  0.00    +0.263 C 
ATOM      4  O   UNL     1      -1.247  -1.338  -1.903  0.00  0.00    -0.269 OA
ENDROOT
BRANCH   3   5
ATOM      5  C   UNL     1       0.544  -1.465  -3.384  0.00  0.00    +0.121 C 
ATOM      6  N   UNL     1       1.820  -1.298  -3.549  0.00  0.00    -0.180 NA
ATOM      7  N   UNL     1       2.448  -1.659  -4.745  0.00  0.00    -0.207 N 
ATOM      8  C   UNL     1       1.727  -1.824  -5.872  0.00  0.00    +0.233 C 
ATOM      9  O   UNL     1       2.278  -2.133  -6.907  0.00  0.00    -0.274 OA
ATOM     10  C   UNL     1       0.234  -1.622  -5.840  0.00  0.00    +0.104 C 
ATOM     11  C   UNL     1      -0.304  -2.064  -4.474  0.00  0.00    +0.071 C 
ATOM     12  H   UNL     1       3.409  -1.793  -4.764  0.00  0.00    +0.177 HD
ENDBRANCH   3   5
BRANCH   1  14
ATOM     13  C   UNL     1       0.255   1.556   0.210  0.00  0.00    +0.033 C 
ATOM     14  C   UNL     1      -0.003   0.057   0.042  0.00  0.00    +0.103 C 
BRANCH  14  15
ATOM     15  C   UNL     1       0.564  -0.685   1.225  0.00  0.00    -0.027 A 
ATOM     16  C   UNL     1       1.928  -0.686   1.450  0.00  0.00    +0.008 A 
ATOM     17  C   UNL     1       2.449  -1.366   2.535  0.00  0.00    +0.038 A 
ATOM     18  C   UNL     1       1.605  -2.047   3.395  0.00  0.00    +0.123 A 
ATOM     19  C   UNL     1       0.239  -2.046   3.168  0.00  0.00    +0.038 A 
ATOM     20  C   UNL     1      -0.280  -1.360   2.086  0.00  0.00    +0.008 A 
ATOM     21  F   UNL     1       2.113  -2.713   4.455  0.00  0.00    -0.205 F 
ENDBRANCH  14  15
ENDBRANCH   1  14
TORSDOF 3
