REMARK  Name = ZINC28057643
REMARK  3 active torsions:
REMARK  status: ('A' for Active; 'I' for Inactive)
REMARK    1  A    between atoms: C_1  and  C_2
REMARK    2  A    between atoms: C_10  and  C_18
REMARK    3  A    between atoms: C_25  and  C_28
REMARK                            x       y       z     vdW  Elec       q    Type
REMARK                         _______ _______ _______ _____ _____    ______ ____
ROOT
ATOM      1  C   UNL     1       2.909  10.422   3.713  0.00  0.00    +0.044 C 
ATOM      2  C   UNL     1       2.702   8.929   3.689  0.00  0.00    -0.050 A 
ATOM      3  C   UNL     1       2.575   8.232   4.878  0.00  0.00    +0.007 A 
ATOM      4  C   UNL     1       2.385   6.862   4.872  0.00  0.00    +0.046 A 
ATOM      5  C   UNL     1       2.323   6.183   3.670  0.00  0.00    +0.131 A 
ATOM      6  C   UNL     1       2.450   6.887   2.466  0.00  0.00    +0.038 A 
ATOM      7  C   UNL     1       2.639   8.263   2.480  0.00  0.00    +0.016 A 
ATOM      8  C   UNL     1       2.376   6.128   1.194  0.00  0.00    +0.050 C 
ATOM      9  C   UNL     1       2.527   4.803   1.236  0.00  0.00    +0.026 C 
ATOM     10  C   UNL     1       2.450   3.942  -0.001  0.00  0.00    +0.177 C 
ATOM     11  N   UNL     1       2.508   4.773  -1.194  0.00  0.00    -0.201 N 
ATOM     12  C   UNL     1       2.364   6.124  -1.184  0.00  0.00    +0.240 A 
ATOM     13  N   UNL     1       2.459   6.535  -2.416  0.00  0.00    -0.092 NA
ATOM     14  N   UNL     1       2.661   5.535  -3.205  0.00  0.00    -0.021 NA
ATOM     15  N   UNL     1       2.704   4.431  -2.532  0.00  0.00    -0.042 NA
ATOM     16  N   UNL     1       2.159   6.819  -0.004  0.00  0.00    -0.282 N 
ATOM     17  C   UNL     1       2.795   4.134   2.565  0.00  0.00    +0.241 C 
ATOM     18  O   UNL     1       2.144   4.838   3.622  0.00  0.00    -0.479 OA
ATOM     19  H   UNL     1       1.837   7.871   0.018  0.00  0.00    +0.155 HD
ENDROOT
BRANCH  10  20
ATOM     20  C   UNL     1       1.157   3.169   0.008  0.00  0.00    +0.017 A 
ATOM     21  C   UNL     1      -0.051   3.842   0.023  0.00  0.00    +0.009 A 
ATOM     22  C   UNL     1      -1.237   3.133   0.031  0.00  0.00    +0.001 A 
ATOM     23  C   UNL     1      -1.218   1.751   0.017  0.00  0.00    +0.003 A 
ATOM     24  C   UNL     1      -0.013   1.076   0.008  0.00  0.00    +0.039 A 
ATOM     25  C   UNL     1       1.177   1.785   0.000  0.00  0.00    +0.129 A 
ATOM     26  F   UNL     1       2.356   1.126  -0.014  0.00  0.00    -0.205 F 
ENDBRANCH  10  20
BRANCH  17  27
ATOM     27  C   UNL     1       4.280   4.115   2.821  0.00  0.00    +0.034 A 
ATOM     28  C   UNL     1       5.178   3.131   2.570  0.00  0.00    +0.015 A 
ATOM     29  C   UNL     1       6.507   3.338   2.888  0.00  0.00    +0.008 A 
ATOM     30  C   UNL     1       6.871   4.516   3.453  0.00  0.00    +0.045 A 
ATOM     31  S   UNL     1       5.312   5.381   3.543  0.00  0.00    -0.098 S 
ENDBRANCH  17  27
TORSDOF 2
