REMARK  Name = ZINC08912098
REMARK  13 active torsions:
REMARK  status: ('A' for Active; 'I' for Inactive)
REMARK    1  A    between atoms: C_1  and  C_2
REMARK    2  A    between atoms: C_2  and  C_3
REMARK    3  A    between atoms: C_3  and  N_73
REMARK    4  A    between atoms: C_4  and  C_5
REMARK    5  A    between atoms: C_4  and  N_73
REMARK    6  A    between atoms: C_5  and  C_6
REMARK    7  A    between atoms: C_7  and  C_8
REMARK    8  A    between atoms: C_7  and  N_73
REMARK    9  A    between atoms: C_8  and  C_9
REMARK   10  A    between atoms: C_9  and  N_10
REMARK   11  A    between atoms: C_11  and  C_13
REMARK   12  A    between atoms: C_14  and  C_33
REMARK   13  A    between atoms: C_22  and  O_32
REMARK                            x       y       z     vdW  Elec       q    Type
REMARK                         _______ _______ _______ _____ _____    ______ ____
ROOT
ATOM      1  C   UNL     1      -1.990   0.594   3.005  0.00  0.00    +0.193 A 
ATOM      2  C   UNL     1      -2.075  -0.227   4.084  0.00  0.00    +0.008 A 
ATOM      3  C   UNL     1      -3.321   0.125   4.764  0.00  0.00    +0.033 A 
ATOM      4  C   UNL     1      -3.889   1.164   4.006  0.00  0.00    +0.137 A 
ATOM      5  O   UNL     1      -3.062   1.414   2.971  0.00  0.00    -0.450 OA
ATOM      6  C   UNL     1      -5.098   1.717   4.411  0.00  0.00    +0.050 A 
ATOM      7  C   UNL     1      -5.726   1.243   5.540  0.00  0.00    +0.049 A 
ATOM      8  C   UNL     1      -5.165   0.210   6.296  0.00  0.00    +0.128 A 
ATOM      9  C   UNL     1      -3.965  -0.347   5.914  0.00  0.00    +0.034 A 
ATOM     10  C   UNL     1      -3.321  -1.452   6.712  0.00  0.00    +0.152 C 
ATOM     11  C   UNL     1      -4.361  -2.106   7.624  0.00  0.00    +0.084 C 
ATOM     12  C   UNL     1      -5.124  -0.997   8.358  0.00  0.00    +0.113 C 
ATOM     13  O   UNL     1      -5.838  -0.222   7.396  0.00  0.00    -0.485 OA
ATOM     14  C   UNL     1      -6.107  -1.624   9.348  0.00  0.00    +0.048 C 
ATOM     15  C   UNL     1      -6.870  -0.517  10.079  0.00  0.00    +0.004 C 
ATOM     16  C   UNL     1      -5.879   0.371  10.834  0.00  0.00    +0.000 C 
ATOM     17  C   UNL     1      -4.897   0.999   9.843  0.00  0.00    +0.004 C 
ATOM     18  C   UNL     1      -4.135  -0.107   9.110  0.00  0.00    +0.048 C 
ATOM     19  C   UNL     1      -1.086  -1.287   4.496  0.00  0.00    +0.048 C 
ENDROOT
BRANCH   1  21
ATOM     20  N   UNL     1      -0.914   1.458   0.992  0.00  0.00    -0.309 N 
ATOM     21  C   UNL     1      -0.893   0.595   2.027  0.00  0.00    +0.280 C 
ATOM     22  O   UNL     1       0.033  -0.184   2.151  0.00  0.00    -0.267 OA
ATOM     23  H   UNL     1      -1.653   2.078   0.893  0.00  0.00    +0.149 HD
BRANCH  20  24
ATOM     24  C   UNL     1       0.179   1.458   0.017  0.00  0.00    +0.103 C 
BRANCH  24  25
ATOM     25  C   UNL     1      -0.088   2.525  -1.048  0.00  0.00    +0.000 C 
BRANCH  25  26
ATOM     26  C   UNL     1       1.054   2.525  -2.066  0.00  0.00    -0.077 C 
BRANCH  26  27
ATOM     27  N   UNL     1       0.771   3.545  -3.098  0.00  0.00    +0.380 N 
ATOM     28  H   UNL     1      -0.175   3.394  -3.466  0.00  0.00    -0.082 HD
BRANCH  27  29
ATOM     29  C   UNL     1       0.848   4.897  -2.507  0.00  0.00    -0.079 C 
BRANCH  29  31
ATOM     30  C   UNL     1       2.284   6.544  -1.294  0.00  0.00    +0.002 C 
ATOM     31  C   UNL     1       2.241   5.151  -1.927  0.00  0.00    -0.022 C 
ENDBRANCH  29  31
ENDBRANCH  27  29
BRANCH  27  32
ATOM     32  C   UNL     1       1.741   3.423  -4.207  0.00  0.00    -0.079 C 
BRANCH  32  33
ATOM     33  C   UNL     1       1.220   4.219  -5.405  0.00  0.00    -0.022 C 
ATOM     34  C   UNL     1       2.202   4.087  -6.572  0.00  0.00    +0.002 C 
ENDBRANCH  32  33
ENDBRANCH  27  32
ENDBRANCH  26  27
ENDBRANCH  25  26
ENDBRANCH  24  25
ENDBRANCH  20  24
ENDBRANCH   1  21
BRANCH  10  35
ATOM     35  O   UNL     1      -2.787  -2.432   5.820  0.00  0.00    -0.387 OA
ATOM     36  H   UNL     1      -3.437  -2.802   5.207  0.00  0.00    +0.210 HD
ENDBRANCH  10  35
TORSDOF 10
