REMARK  Name = ZINC34998054
REMARK  10 active torsions:
REMARK  status: ('A' for Active; 'I' for Inactive)
REMARK    1  A    between atoms: C_1  and  C_2
REMARK    2  A    between atoms: C_5  and  C_8
REMARK    3  A    between atoms: C_8  and  N_9
REMARK    4  A    between atoms: N_9  and  C_10
REMARK    5  A    between atoms: N_9  and  S_21
REMARK    6  A    between atoms: C_10  and  C_11
REMARK    7  A    between atoms: C_11  and  C_12
REMARK    8  A    between atoms: C_12  and  N_13
REMARK    9  A    between atoms: C_18  and  C_20
REMARK   10  A    between atoms: S_21  and  C_24
REMARK                            x       y       z     vdW  Elec       q    Type
REMARK                         _______ _______ _______ _____ _____    ______ ____
ROOT
ATOM      1  N   UNL     1       1.143  -4.810  -0.289  0.00  0.00    -0.172 NA
ENDROOT
BRANCH   1   2
ATOM      2  S   UNL     1       2.137  -4.590  -1.595  0.00  0.00    +0.063 S 
ATOM      3  O   UNL     1       1.301  -4.577  -2.744  0.00  0.00    -0.153 OA
ATOM      4  O   UNL     1       3.001  -3.510  -1.270  0.00  0.00    -0.153 OA
BRANCH   2   5
ATOM      5  C   UNL     1       3.151  -6.025  -1.726  0.00  0.00    +0.125 A 
ATOM      6  C   UNL     1       2.940  -6.929  -2.750  0.00  0.00    +0.050 A 
ATOM      7  C   UNL     1       3.736  -8.055  -2.853  0.00  0.00    +0.043 A 
ATOM      8  C   UNL     1       4.744  -8.277  -1.931  0.00  0.00    +0.021 A 
ATOM      9  C   UNL     1       4.955  -7.373  -0.907  0.00  0.00    +0.023 A 
ATOM     10  C   UNL     1       4.162  -6.243  -0.808  0.00  0.00    +0.067 A 
ATOM     11 CL   UNL     1       4.432  -5.104   0.474  0.00  0.00    -0.082 Cl
ATOM     12 CL   UNL     1       3.470  -9.191  -4.138  0.00  0.00    -0.083 Cl
ENDBRANCH   2   5
ENDBRANCH   1   2
BRANCH   1  13
ATOM     13  C   UNL     1      -0.203  -5.358  -0.476  0.00  0.00    +0.144 C 
BRANCH  13  18
ATOM     14  C   UNL     1      -3.979  -1.027  -1.089  0.00  0.00    +0.044 C 
ATOM     15  C   UNL     1      -2.994  -2.156  -0.929  0.00  0.00    -0.050 A 
ATOM     16  C   UNL     1      -2.451  -2.763  -2.046  0.00  0.00    +0.003 A 
ATOM     17  C   UNL     1      -1.548  -3.799  -1.900  0.00  0.00    +0.005 A 
ATOM     18  C   UNL     1      -1.187  -4.228  -0.636  0.00  0.00    -0.032 A 
ATOM     19  C   UNL     1      -1.729  -3.620   0.481  0.00  0.00    +0.005 A 
ATOM     20  C   UNL     1      -2.630  -2.582   0.334  0.00  0.00    +0.003 A 
ENDBRANCH  13  18
ENDBRANCH   1  13
BRANCH   1  21
ATOM     21  C   UNL     1       1.609  -4.458   1.055  0.00  0.00    +0.108 C 
BRANCH  21  22
ATOM     22  C   UNL     1       1.949  -5.734   1.827  0.00  0.00    -0.001 C 
BRANCH  22  23
ATOM     23  C   UNL     1       2.436  -5.367   3.230  0.00  0.00    -0.077 C 
BRANCH  23  24
ATOM     24  N   UNL     1       2.763  -6.592   3.972  0.00  0.00    +0.381 N 
ATOM     25  C   UNL     1       3.893  -7.268   3.324  0.00  0.00    -0.078 C 
ATOM     26  C   UNL     1       4.184  -8.586   4.045  0.00  0.00    -0.019 C 
ATOM     27  C   UNL     1       4.532  -8.295   5.508  0.00  0.00    -0.003 C 
ATOM     28  C   UNL     1       3.377  -7.524   6.153  0.00  0.00    -0.016 C 
ATOM     29  C   UNL     1       3.115  -6.246   5.354  0.00  0.00    -0.072 C 
ATOM     30  C   UNL     1       1.962  -5.472   5.996  0.00  0.00    -0.013 C 
ATOM     31  H   UNL     1       1.962  -7.206   3.974  0.00  0.00    -0.081 HD
ENDBRANCH  23  24
ENDBRANCH  22  23
ENDBRANCH  21  22
ENDBRANCH   1  21
TORSDOF 8
