REMARK  Name = ZINC02264610
REMARK  12 active torsions:
REMARK  status: ('A' for Active; 'I' for Inactive)
REMARK    1  A    between atoms: C_1  and  O_2
REMARK    2  A    between atoms: O_2  and  C_3
REMARK    3  A    between atoms: C_6  and  O_37
REMARK    4  A    between atoms: C_7  and  N_9
REMARK    5  A    between atoms: C_13  and  N_14
REMARK    6  A    between atoms: N_14  and  C_15
REMARK    7  A    between atoms: C_15  and  C_17
REMARK    8  A    between atoms: C_15  and  C_28
REMARK    9  A    between atoms: C_17  and  C_18
REMARK   10  A    between atoms: C_28  and  O_30
REMARK   11  A    between atoms: O_30  and  C_31
REMARK   12  A    between atoms: O_37  and  C_38
REMARK                            x       y       z     vdW  Elec       q    Type
REMARK                         _______ _______ _______ _____ _____    ______ ____
ROOT
ATOM      1  N   UNL     1      -2.507  -4.071   0.017  0.00  0.00    -0.214 N 
ATOM      2  C   UNL     1      -2.538  -4.729  -1.160  0.00  0.00    +0.263 C 
ATOM      3  O   UNL     1      -2.496  -4.125  -2.215  0.00  0.00    -0.269 OA
ATOM      4  C   UNL     1      -2.625  -6.200  -1.134  0.00  0.00    +0.113 C 
ATOM      5  C   UNL     1      -2.661  -6.942  -2.299  0.00  0.00    +0.086 C 
ATOM      6  C   UNL     1      -2.671  -6.846   0.191  0.00  0.00    +0.256 C 
ATOM      7  O   UNL     1      -2.742  -8.056   0.294  0.00  0.00    -0.270 OA
ATOM      8  N   UNL     1      -2.631  -6.059   1.286  0.00  0.00    -0.263 N 
ATOM      9  C   UNL     1      -2.547  -4.725   1.186  0.00  0.00    +0.151 C 
ATOM     10  S   UNL     1      -2.495  -3.806   2.630  0.00  0.00    -0.018 S 
ATOM     11  H   UNL     1      -2.661  -6.468   2.164  0.00  0.00    +0.157 HD
ENDROOT
BRANCH   1  16
ATOM     12  C   UNL     1      -1.107  -0.664   0.020  0.00  0.00    +0.122 A 
ATOM     13  C   UNL     1      -2.267   0.098   0.018  0.00  0.00    +0.049 A 
ATOM     14  C   UNL     1      -3.503  -0.521   0.016  0.00  0.00    +0.051 A 
ATOM     15  C   UNL     1      -3.587  -1.904   0.015  0.00  0.00    +0.142 A 
ATOM     16  C   UNL     1      -2.425  -2.671   0.017  0.00  0.00    +0.088 A 
ATOM     17  C   UNL     1      -1.185  -2.048   0.013  0.00  0.00    +0.073 A 
BRANCH  12  19
ATOM     18  C   UNL     1       0.114   1.377   0.030  0.00  0.00    +0.277 C 
ATOM     19  O   UNL     1       0.107  -0.052   0.023  0.00  0.00    -0.495 OA
ENDBRANCH  12  19
BRANCH  15  20
ATOM     20  O   UNL     1      -4.804  -2.512   0.013  0.00  0.00    -0.493 OA
ATOM     21  C   UNL     1      -5.953  -1.663   0.012  0.00  0.00    +0.277 C 
ENDBRANCH  15  20
ENDBRANCH   1  16
BRANCH   5  22
ATOM     22  N   UNL     1      -2.613  -8.288  -2.244  0.00  0.00    -0.336 N 
ATOM     23  H   UNL     1      -2.628  -8.739  -1.385  0.00  0.00    +0.146 HD
BRANCH  22  24
ATOM     24  C   UNL     1      -2.537  -9.070  -3.480  0.00  0.00    +0.184 C 
BRANCH  24  25
ATOM     25  C   UNL     1      -1.099  -9.182  -3.917  0.00  0.00    +0.328 C 
ATOM     26  O   UNL     1      -0.227  -8.661  -3.263  0.00  0.00    -0.249 OA
BRANCH  25  27
ATOM     27  O   UNL     1      -0.787  -9.859  -5.033  0.00  0.00    -0.467 OA
ATOM     28  C   UNL     1       0.595  -9.924  -5.388  0.00  0.00    +0.280 C 
ENDBRANCH  25  27
ENDBRANCH  24  25
BRANCH  24  29
ATOM     29  C   UNL     1      -3.105 -10.470  -3.234  0.00  0.00    +0.071 C 
BRANCH  29  30
ATOM     30  C   UNL     1      -4.574 -10.367  -2.916  0.00  0.00    -0.020 A 
ATOM     31  C   UNL     1      -5.125 -10.310  -1.693  0.00  0.00    +0.087 A 
ATOM     32  N   UNL     1      -6.487 -10.222  -1.798  0.00  0.00    -0.360 N 
ATOM     33  H   UNL     1      -7.101 -10.168  -1.050  0.00  0.00    +0.165 HD
ATOM     34  C   UNL     1      -6.855 -10.219  -3.125  0.00  0.00    +0.047 A 
ATOM     35  C   UNL     1      -5.673 -10.303  -3.884  0.00  0.00    +0.003 A 
ATOM     36  C   UNL     1      -5.739 -10.315  -5.278  0.00  0.00    +0.010 A 
ATOM     37  C   UNL     1      -6.954 -10.240  -5.900  0.00  0.00    +0.001 A 
ATOM     38  C   UNL     1      -8.122 -10.152  -5.156  0.00  0.00    +0.002 A 
ATOM     39  C   UNL     1      -8.080 -10.149  -3.779  0.00  0.00    +0.026 A 
ENDBRANCH  29  30
ENDBRANCH  24  29
ENDBRANCH  22  24
ENDBRANCH   5  22
TORSDOF 9
