REMARK  Name = ZINC39543032
REMARK  4 active torsions:
REMARK  status: ('A' for Active; 'I' for Inactive)
REMARK    1  A    between atoms: C_1  and  N_2
REMARK    2  A    between atoms: N_2  and  C_3
REMARK    3  A    between atoms: C_8  and  O_9
REMARK    4  A    between atoms: C_10  and  C_12
REMARK                            x       y       z     vdW  Elec       q    Type
REMARK                         _______ _______ _______ _____ _____    ______ ____
ROOT
ATOM      1  C   UNL     1      -0.069   0.008  -2.512  0.00  0.00    +0.030 C 
ATOM      2  C   UNL     1       1.307   0.669  -2.766  0.00  0.00    +0.068 C 
ATOM      3  C   UNL     1       1.853  -0.013  -4.021  0.00  0.00    +0.136 C 
ATOM      4  C   UNL     1       1.102  -1.328  -4.035  0.00  0.00    +0.085 C 
ATOM      5  N   UNL     1       0.974  -1.911  -5.372  0.00  0.00    -0.350 N 
ATOM      6  C   UNL     1      -0.033  -2.887  -5.509  0.00  0.00    +0.027 A 
ATOM      7  C   UNL     1      -0.043  -3.710  -6.626  0.00  0.00    +0.023 A 
ATOM      8  C   UNL     1      -1.023  -4.676  -6.758  0.00  0.00    +0.002 A 
ATOM      9  C   UNL     1      -1.988  -4.820  -5.778  0.00  0.00    +0.000 A 
ATOM     10  C   UNL     1      -1.980  -3.998  -4.667  0.00  0.00    +0.003 A 
ATOM     11  C   UNL     1      -1.007  -3.025  -4.529  0.00  0.00    -0.043 A 
ATOM     12  C   UNL     1      -1.033  -2.117  -3.319  0.00  0.00    -0.037 C 
ATOM     13  N   UNL     1      -0.275  -0.914  -3.633  0.00  0.00    +0.407 N 
ATOM     14  O   UNL     1       2.676   0.395  -4.805  0.00  0.00    -0.298 OA
ATOM     15  H   UNL     1       1.543  -1.645  -6.111  0.00  0.00    +0.145 HD
ATOM     16  H   UNL     1      -0.720  -0.426  -4.396  0.00  0.00    -0.077 HD
ENDROOT
BRANCH   1  19
ATOM     17  C   UNL     1      -1.554   0.924  -0.275  0.00  0.00    +0.138 C 
ATOM     18  N   UNL     1      -0.716  -0.270  -0.141  0.00  0.00    -0.273 N 
ATOM     19  C   UNL     1      -0.050  -0.750  -1.210  0.00  0.00    +0.207 C 
ATOM     20  O   UNL     1       0.564  -1.793  -1.123  0.00  0.00    -0.277 OA
BRANCH  18  21
ATOM     21  C   UNL     1      -0.607  -0.913   1.100  0.00  0.00    +0.078 A 
ATOM     22  C   UNL     1      -1.491  -1.928   1.437  0.00  0.00    +0.027 A 
ATOM     23  C   UNL     1      -1.381  -2.560   2.661  0.00  0.00    +0.002 A 
ATOM     24  C   UNL     1      -0.392  -2.185   3.551  0.00  0.00    +0.004 A 
ATOM     25  C   UNL     1       0.492  -1.174   3.222  0.00  0.00    +0.047 A 
ATOM     26  C   UNL     1       0.393  -0.539   1.995  0.00  0.00    +0.138 A 
BRANCH  26  27
ATOM     27  O   UNL     1       1.266   0.450   1.667  0.00  0.00    -0.505 OA
ATOM     28  H   UNL     1       0.975   1.334   1.929  0.00  0.00    +0.292 HD
ENDBRANCH  26  27
ENDBRANCH  18  21
ENDBRANCH   1  19
TORSDOF 3
