REMARK  Name = ZINC20530942
REMARK  13 active torsions:
REMARK  status: ('A' for Active; 'I' for Inactive)
REMARK    1  A    between atoms: C_1  and  C_2
REMARK    2  A    between atoms: C_2  and  C_3
REMARK    3  A    between atoms: C_3  and  C_5
REMARK    4  A    between atoms: C_3  and  N_6
REMARK    5  A    between atoms: N_9  and  C_12
REMARK    6  A    between atoms: C_12  and  C_13
REMARK    7  A    between atoms: C_14  and  C_29
REMARK    8  A    between atoms: C_15  and  C_21
REMARK    9  A    between atoms: C_24  and  O_27
REMARK   10  A    between atoms: O_27  and  C_28
REMARK   11  A    between atoms: C_29  and  O_31
REMARK   12  A    between atoms: O_31  and  C_32
REMARK   13  A    between atoms: C_32  and  C_33
REMARK                            x       y       z     vdW  Elec       q    Type
REMARK                         _______ _______ _______ _____ _____    ______ ____
ROOT
ATOM      1  C   UNL     1      -2.421   1.240  -0.086  0.00  0.00    +0.038 C 
ATOM      2  C   UNL     1      -1.256   1.896   0.106  0.00  0.00    +0.079 C 
ATOM      3  C   UNL     1      -1.307   3.405   0.224  0.00  0.00    +0.144 C 
ATOM      4  N   UNL     1      -2.634   4.037   0.125  0.00  0.00    -0.288 N 
ATOM      5  C   UNL     1      -3.709   3.247  -0.062  0.00  0.00    +0.304 C 
ATOM      6  O   UNL     1      -4.808   3.759  -0.146  0.00  0.00    -0.252 OA
ATOM      7  N   UNL     1      -3.606   1.915  -0.160  0.00  0.00    -0.271 N 
ATOM      8  H   UNL     1      -2.729   5.130   0.204  0.00  0.00    +0.151 HD
ATOM      9  H   UNL     1      -4.545   1.363  -0.308  0.00  0.00    +0.156 HD
ENDROOT
BRANCH   3  10
ATOM     10  C   UNL     1      -0.710   3.788   1.554  0.00  0.00    -0.022 A 
ATOM     11  C   UNL     1      -1.469   3.692   2.705  0.00  0.00    +0.009 A 
ATOM     12  C   UNL     1      -0.922   4.037   3.926  0.00  0.00    +0.046 A 
ATOM     13  C   UNL     1       0.388   4.491   3.994  0.00  0.00    +0.120 A 
ATOM     14  C   UNL     1       1.146   4.591   2.837  0.00  0.00    +0.046 A 
ATOM     15  C   UNL     1       0.596   4.240   1.619  0.00  0.00    +0.009 A 
BRANCH  13  16
ATOM     16  O   UNL     1       0.926   4.837   5.193  0.00  0.00    -0.495 OA
ATOM     17  C   UNL     1       0.088   4.708   6.343  0.00  0.00    +0.277 C 
ENDBRANCH  13  16
ENDBRANCH   3  10
BRANCH   2  18
ATOM     18  C   UNL     1      -0.029   1.197   0.189  0.00  0.00    +0.339 C 
ATOM     19  O   UNL     1       0.467   0.964   1.276  0.00  0.00    -0.245 OA
BRANCH  18  20
ATOM     20  O   UNL     1       0.590   0.784  -0.937  0.00  0.00    -0.462 OA
BRANCH  20  21
ATOM     21  C   UNL     1       1.823   0.079  -0.779  0.00  0.00    +0.229 C 
ATOM     22  C   UNL     1       2.371  -0.305  -2.155  0.00  0.00    +0.048 C 
ENDBRANCH  20  21
ENDBRANCH  18  20
ENDBRANCH   2  18
BRANCH   1  23
ATOM     23  C   UNL     1      -2.414  -0.262  -0.215  0.00  0.00    +0.135 C 
BRANCH  23  27
ATOM     24  N   UNL     1      -3.514  -2.610   3.120  0.00  0.00    +0.383 N 
ATOM     25  C   UNL     1      -4.209  -2.851   1.848  0.00  0.00    -0.063 C 
ATOM     26  C   UNL     1      -3.371  -2.291   0.697  0.00  0.00    +0.066 C 
ATOM     27  N   UNL     1      -3.152  -0.853   0.909  0.00  0.00    -0.300 NA
ATOM     28  C   UNL     1      -2.456  -0.611   2.181  0.00  0.00    +0.066 C 
ATOM     29  C   UNL     1      -3.294  -1.172   3.332  0.00  0.00    -0.063 C 
ATOM     30  H   UNL     1      -2.530  -3.099   3.068  0.00  0.00    -0.081 HD
BRANCH  24  31
ATOM     31  C   UNL     1      -4.252  -3.201   4.244  0.00  0.00    -0.072 C 
ATOM     32  C   UNL     1      -5.598  -2.492   4.399  0.00  0.00    -0.013 C 
BRANCH  31  34
ATOM     33  C   UNL     1      -2.146  -3.851   5.422  0.00  0.00    +0.002 C 
ATOM     34  C   UNL     1      -3.438  -3.039   5.530  0.00  0.00    -0.019 C 
ENDBRANCH  31  34
ENDBRANCH  24  31
ENDBRANCH  23  27
ENDBRANCH   1  23
TORSDOF 9
