REMARK  Name = ZINC52594500
REMARK  5 active torsions:
REMARK  status: ('A' for Active; 'I' for Inactive)
REMARK    1  A    between atoms: C_15  and  C_17
REMARK    2  A    between atoms: C_17  and  C_19
REMARK    3  A    between atoms: C_17  and  N_29
REMARK    4  A    between atoms: C_19  and  C_20
REMARK    5  A    between atoms: C_30  and  C_32
REMARK                            x       y       z     vdW  Elec       q    Type
REMARK                         _______ _______ _______ _____ _____    ______ ____
ROOT
ATOM      1  C   UNL     1       8.528  -1.198  -0.517  0.00  0.00    +0.163 C 
ENDROOT
BRANCH   1  16
ATOM      2  C   UNL     1      -0.017   1.377   0.010  0.00  0.00    +0.000 A 
ATOM      3  C   UNL     1       1.172   2.083   0.002  0.00  0.00    +0.000 A 
ATOM      4  C   UNL     1       2.376   1.405  -0.012  0.00  0.00    +0.004 A 
ATOM      5  C   UNL     1       2.397   0.021  -0.019  0.00  0.00    -0.038 A 
ATOM      6  C   UNL     1       1.208  -0.685  -0.012  0.00  0.00    -0.044 A 
ATOM      7  C   UNL     1       0.002  -0.004   0.002  0.00  0.00    +0.004 A 
ATOM      8  C   UNL     1       1.494  -2.172  -0.023  0.00  0.00    +0.036 C 
ATOM      9  C   UNL     1       2.966  -2.297  -0.471  0.00  0.00    +0.016 C 
ATOM     10  C   UNL     1       3.559  -0.945  -0.033  0.00  0.00    -0.001 C 
ATOM     11  C   UNL     1       4.161  -1.069   1.364  0.00  0.00    +0.030 C 
ATOM     12  C   UNL     1       5.293  -2.102   1.339  0.00  0.00    +0.108 C 
ATOM     13  N   UNL     1       6.249  -1.728   0.287  0.00  0.00    -0.300 N 
ATOM     14  C   UNL     1       5.752  -1.516  -1.079  0.00  0.00    +0.108 C 
ATOM     15  C   UNL     1       4.615  -0.489  -1.036  0.00  0.00    +0.030 C 
ATOM     16  C   UNL     1       7.559  -1.582   0.571  0.00  0.00    +0.236 C 
ATOM     17  O   UNL     1       7.957  -1.759   1.703  0.00  0.00    -0.274 OA
ENDBRANCH   1  16
BRANCH   1  18
ATOM     18  N   UNL     1       9.888  -1.559  -0.110  0.00  0.00    -0.304 N 
ATOM     19  C   UNL     1      10.422  -1.023   1.005  0.00  0.00    +0.215 C 
ATOM     20  O   UNL     1       9.777  -0.241   1.671  0.00  0.00    -0.276 OA
ATOM     21  H   UNL     1      10.404  -2.184  -0.642  0.00  0.00    +0.149 HD
BRANCH  19  22
ATOM     22  C   UNL     1      11.821  -1.394   1.424  0.00  0.00    +0.058 C 
ATOM     23  C   UNL     1      12.807  -1.002   0.320  0.00  0.00    +0.009 C 
ATOM     24  C   UNL     1      14.232  -1.312   0.787  0.00  0.00    -0.018 C 
ATOM     25  C   UNL     1      14.505  -0.570   2.098  0.00  0.00    -0.083 C 
ATOM     26  N   UNL     1      13.547  -1.007   3.120  0.00  0.00    +0.380 N 
ATOM     27  C   UNL     1      12.183  -0.650   2.712  0.00  0.00    -0.070 C 
ATOM     28  H   UNL     1      13.611  -2.007   3.234  0.00  0.00    -0.086 HD
ATOM     29  H   UNL     1      13.763  -0.556   3.997  0.00  0.00    -0.086 HD
ENDBRANCH  19  22
ENDBRANCH   1  18
BRANCH   1  30
ATOM     30  C   UNL     1       8.451   0.310  -0.760  0.00  0.00    +0.065 C 
BRANCH  30  31
ATOM     31  C   UNL     1       9.328   0.676  -1.929  0.00  0.00    -0.039 C 
ATOM     32  C   UNL     1       8.945   0.820  -3.219  0.00  0.00    -0.001 A 
ATOM     33  C   UNL     1       7.649   0.682  -3.893  0.00  0.00    +0.010 A 
ATOM     34  C   UNL     1       7.577   0.892  -5.227  0.00  0.00    +0.001 A 
ATOM     35  C   UNL     1       8.707   1.237  -5.980  0.00  0.00    +0.002 A 
ATOM     36  C   UNL     1       9.933   1.382  -5.433  0.00  0.00    +0.026 A 
ATOM     37  C   UNL     1      10.124   1.185  -4.037  0.00  0.00    +0.043 A 
ATOM     38  N   UNL     1      11.193   1.264  -3.283  0.00  0.00    -0.380 N 
ATOM     39  C   UNL     1      10.812   0.964  -1.898  0.00  0.00    +0.144 C 
ATOM     40  H   UNL     1      12.086   1.488  -3.588  0.00  0.00    +0.160 HD
ENDBRANCH  30  31
ENDBRANCH   1  30
TORSDOF 5
