REMARK  Name = ZINC08143877
REMARK  10 active torsions:
REMARK  status: ('A' for Active; 'I' for Inactive)
REMARK    1  A    between atoms: C_1  and  C_2
REMARK    2  A    between atoms: C_4  and  O_47
REMARK    3  A    between atoms: C_6  and  O_46
REMARK    4  A    between atoms: C_8  and  O_45
REMARK    5  A    between atoms: C_10  and  O_13
REMARK    6  A    between atoms: O_13  and  C_14
REMARK    7  A    between atoms: C_18  and  C_44
REMARK    8  A    between atoms: C_23  and  C_43
REMARK    9  A    between atoms: C_24  and  C_36
REMARK   10  A    between atoms: C_28  and  O_35
REMARK                            x       y       z     vdW  Elec       q    Type
REMARK                         _______ _______ _______ _____ _____    ______ ____
ROOT
ATOM      1  C   UNL     1      -0.043   1.191   0.071  0.00  0.00    +0.144 C 
ATOM      2  C   UNL     1      -0.796   1.929   1.183  0.00  0.00    +0.037 C 
ATOM      3  C   UNL     1      -2.269   1.521   1.119  0.00  0.00    +0.014 C 
ATOM      4  C   UNL     1      -2.893   1.943  -0.201  0.00  0.00    -0.008 C 
ATOM      5  C   UNL     1      -4.140   1.112  -0.503  0.00  0.00    +0.005 C 
ATOM      6  C   UNL     1      -3.787  -0.377  -0.542  0.00  0.00    +0.005 C 
ATOM      7  C   UNL     1      -5.084  -1.173  -0.684  0.00  0.00    +0.010 C 
ATOM      8  C   UNL     1      -5.855  -0.795  -1.926  0.00  0.00    +0.004 C 
ATOM      9  C   UNL     1      -5.213  -1.321  -3.215  0.00  0.00    +0.031 C 
ATOM     10  C   UNL     1      -5.595  -0.317  -4.318  0.00  0.00    +0.012 C 
ATOM     11  C   UNL     1      -6.344   0.843  -3.636  0.00  0.00    +0.036 C 
ATOM     12  C   UNL     1      -6.023   0.717  -2.122  0.00  0.00    +0.075 C 
ATOM     13  C   UNL     1      -4.736   1.499  -1.854  0.00  0.00    +0.025 C 
ATOM     14  C   UNL     1      -3.726   1.287  -2.976  0.00  0.00    +0.011 C 
ATOM     15  C   UNL     1      -2.482   2.151  -2.743  0.00  0.00    +0.031 C 
ATOM     16  C   UNL     1      -1.942   1.847  -1.357  0.00  0.00    -0.065 C 
ATOM     17  C   UNL     1      -0.689   1.513  -1.246  0.00  0.00    +0.004 C 
ATOM     18  C   UNL     1      -7.255  -1.423  -1.812  0.00  0.00    +0.014 C 
ATOM     19  C   UNL     1      -3.315   3.410  -0.051  0.00  0.00    +0.016 C 
ENDROOT
BRANCH   9  20
ATOM     20  C   UNL     1      -5.766  -2.683  -3.550  0.00  0.00    -0.009 A 
ATOM     21  C   UNL     1      -7.020  -2.798  -4.174  0.00  0.00    +0.014 A 
ATOM     22  C   UNL     1      -7.498  -4.040  -4.472  0.00  0.00    +0.092 A 
ATOM     23  C   UNL     1      -6.726  -5.168  -4.137  0.00  0.00    +0.337 A 
ATOM     24  O   UNL     1      -7.138  -6.286  -4.392  0.00  0.00    -0.245 OA
ATOM     25  O   UNL     1      -5.534  -5.012  -3.536  0.00  0.00    -0.430 OA
ATOM     26  C   UNL     1      -5.060  -3.792  -3.247  0.00  0.00    +0.203 A 
ENDBRANCH   9  20
BRANCH  12  27
ATOM     27  O   UNL     1      -7.105   1.224  -1.317  0.00  0.00    -0.388 OA
ATOM     28  H   UNL     1      -7.304   2.158  -1.471  0.00  0.00    +0.210 HD
ENDBRANCH  12  27
BRANCH   1  29
ATOM     29  O   UNL     1       1.321   1.614   0.052  0.00  0.00    -0.341 OA
BRANCH  29  35
ATOM     30  C   UNL     1       3.018  -2.673   1.165  0.00  0.00    +0.041 C 
ATOM     31  C   UNL     1       3.109  -1.551   0.129  0.00  0.00    +0.149 C 
ATOM     32  C   UNL     1       4.550  -1.040   0.054  0.00  0.00    +0.174 C 
ATOM     33  C   UNL     1       4.621   0.122  -0.941  0.00  0.00    +0.179 C 
ATOM     34  C   UNL     1       3.639   1.214  -0.505  0.00  0.00    +0.201 C 
ATOM     35  C   UNL     1       2.233   0.615  -0.409  0.00  0.00    +0.282 C 
ATOM     36  O   UNL     1       2.244  -0.479   0.509  0.00  0.00    -0.343 OA
BRANCH  34  37
ATOM     37  O   UNL     1       3.643   2.271  -1.466  0.00  0.00    -0.384 OA
ATOM     38  H   UNL     1       3.039   2.996  -1.255  0.00  0.00    +0.210 HD
ENDBRANCH  34  37
BRANCH  33  39
ATOM     39  O   UNL     1       4.271  -0.344  -2.246  0.00  0.00    -0.386 OA
ATOM     40  H   UNL     1       4.295   0.341  -2.928  0.00  0.00    +0.210 HD
ENDBRANCH  33  39
BRANCH  32  41
ATOM     41  O   UNL     1       4.965  -0.589   1.345  0.00  0.00    -0.387 OA
ATOM     42  H   UNL     1       4.940  -1.274   2.028  0.00  0.00    +0.210 HD
ENDBRANCH  32  41
ENDBRANCH  29  35
ENDBRANCH   1  29
TORSDOF 7
