REMARK  Name = ZINC14357827
REMARK  12 active torsions:
REMARK  status: ('A' for Active; 'I' for Inactive)
REMARK    1  A    between atoms: C_1  and  C_2
REMARK    2  A    between atoms: C_2  and  C_3
REMARK    3  A    between atoms: C_3  and  N_4
REMARK    4  A    between atoms: C_10  and  S_11
REMARK    5  A    between atoms: S_11  and  C_12
REMARK    6  A    between atoms: C_12  and  C_13
REMARK    7  A    between atoms: N_15  and  C_16
REMARK    8  A    between atoms: C_18  and  S_23
REMARK    9  A    between atoms: S_23  and  N_26
REMARK   10  A    between atoms: N_26  and  C_27
REMARK   11  A    between atoms: N_26  and  C_29
REMARK   12  A    between atoms: C_27  and  C_28
REMARK                            x       y       z     vdW  Elec       q    Type
REMARK                         _______ _______ _______ _____ _____    ______ ____
ROOT
ATOM      1  C   UNL     1       2.442   8.327   3.239  0.00  0.00    +0.054 A 
ATOM      2  C   UNL     1       3.314   8.278   2.160  0.00  0.00    +0.053 A 
ATOM      3  C   UNL     1       4.266   9.265   1.997  0.00  0.00    +0.111 A 
ATOM      4  C   UNL     1       4.359  10.296   2.914  0.00  0.00    +0.030 A 
ATOM      5  C   UNL     1       3.496  10.346   3.993  0.00  0.00    +0.024 A 
ATOM      6  C   UNL     1       2.538   9.364   4.159  0.00  0.00    +0.062 A 
ATOM      7 CL   UNL     1       1.454   9.427   5.514  0.00  0.00    -0.082 Cl
ENDROOT
BRANCH   1  10
ATOM      8  C   UNL     1       1.035   6.634   2.337  0.00  0.00    +0.228 C 
ATOM      9  O   UNL     1       1.404   6.936   1.222  0.00  0.00    -0.275 OA
ATOM     10  N   UNL     1       1.473   7.330   3.404  0.00  0.00    -0.284 N 
ATOM     11  H   UNL     1       1.117   7.141   4.286  0.00  0.00    +0.155 HD
BRANCH   8  12
ATOM     12  C   UNL     1       0.086   5.479   2.529  0.00  0.00    +0.173 C 
BRANCH  12  13
ATOM     13  S   UNL     1      -0.315   4.753   0.920  0.00  0.00    -0.077 S 
BRANCH  13  20
ATOM     14  N   UNL     1      -2.032   2.568   0.593  0.00  0.00    -0.271 N 
ATOM     15  C   UNL     1      -2.777   1.736   1.348  0.00  0.00    +0.345 A 
ATOM     16  O   UNL     1      -3.462   0.815   0.941  0.00  0.00    -0.245 OA
ATOM     17  N   UNL     1      -2.626   2.109   2.636  0.00  0.00    -0.226 N 
ATOM     18  H   UNL     1      -3.043   1.693   3.406  0.00  0.00    +0.194 HD
ATOM     19  N   UNL     1      -1.756   3.208   2.655  0.00  0.00    -0.145 NA
ATOM     20  C   UNL     1      -1.406   3.466   1.428  0.00  0.00    +0.192 A 
BRANCH  14  21
ATOM     21  C   UNL     1      -1.905   2.521  -0.865  0.00  0.00    +0.129 C 
BRANCH  21  23
ATOM     22  C   UNL     1      -2.854   3.349  -3.023  0.00  0.00    +0.005 C 
ATOM     23  C   UNL     1      -2.987   3.398  -1.500  0.00  0.00    +0.018 C 
ENDBRANCH  21  23
ENDBRANCH  14  21
ENDBRANCH  13  20
ENDBRANCH  12  13
ENDBRANCH   8  12
ENDBRANCH   1  10
BRANCH   3  24
ATOM     24  S   UNL     1       5.369   9.207   0.624  0.00  0.00    +0.075 S 
ATOM     25  O   UNL     1       4.721   8.442  -0.384  0.00  0.00    -0.150 OA
ATOM     26  O   UNL     1       5.813  10.538   0.403  0.00  0.00    -0.150 OA
BRANCH  24  27
ATOM     27  N   UNL     1       6.696   8.337   1.098  0.00  0.00    -0.203 N 
BRANCH  27  28
ATOM     28  C   UNL     1       7.741   8.971   1.774  0.00  0.00    +0.051 A 
ATOM     29  C   UNL     1       8.093   8.561   3.053  0.00  0.00    +0.025 A 
ATOM     30  C   UNL     1       9.130   9.187   3.717  0.00  0.00    +0.002 A 
ATOM     31  C   UNL     1       9.811  10.228   3.113  0.00  0.00    +0.000 A 
ATOM     32  C   UNL     1       9.460  10.642   1.841  0.00  0.00    +0.002 A 
ATOM     33  C   UNL     1       8.427  10.017   1.170  0.00  0.00    +0.025 A 
ENDBRANCH  27  28
BRANCH  27  34
ATOM     34  C   UNL     1       6.774   6.903   0.808  0.00  0.00    +0.128 C 
ATOM     35  C   UNL     1       7.551   6.687  -0.492  0.00  0.00    +0.026 C 
ENDBRANCH  27  34
ENDBRANCH  24  27
ENDBRANCH   3  24
TORSDOF 10
