REMARK  Name = ZINC51000598
REMARK  5 active torsions:
REMARK  status: ('A' for Active; 'I' for Inactive)
REMARK    1  A    between atoms: C_1  and  O_2
REMARK    2  A    between atoms: O_2  and  C_3
REMARK    3  A    between atoms: C_6  and  C_10
REMARK    4  A    between atoms: N_12  and  C_18
REMARK    5  A    between atoms: C_13  and  C_15
REMARK                            x       y       z     vdW  Elec       q    Type
REMARK                         _______ _______ _______ _____ _____    ______ ____
ROOT
ATOM      1  C   UNL     1      -5.047  -2.624   0.024  0.00  0.00    +0.172 C 
ATOM      2  C   UNL     1      -5.413  -3.137   1.404  0.00  0.00    +0.101 C 
ATOM      3  N   UNL     1      -5.392  -4.510   1.280  0.00  0.00    -0.275 N 
ATOM      4  C   UNL     1      -5.061  -4.860   0.002  0.00  0.00    +0.080 C 
ATOM      5  N   UNL     1      -4.852  -3.848  -0.769  0.00  0.00    -0.363 N 
ATOM      6  N   UNL     1      -5.684  -2.442   2.460  0.00  0.00    -0.388 N 
ATOM      7  H   UNL     1      -5.590  -1.477   2.442  0.00  0.00    +0.157 HD
ATOM      8  H   UNL     1      -5.980  -2.887   3.270  0.00  0.00    +0.157 HD
ATOM      9  H   UNL     1      -4.609  -3.885  -1.707  0.00  0.00    +0.162 HD
ENDROOT
BRANCH   1  13
ATOM     10  C   UNL     1      -1.436  -0.343   0.180  0.00  0.00    +0.134 A 
ATOM     11  C   UNL     1      -2.663   0.301   0.105  0.00  0.00    +0.047 A 
ATOM     12  C   UNL     1      -3.828  -0.439   0.055  0.00  0.00    +0.010 A 
ATOM     13  C   UNL     1      -3.774  -1.820   0.079  0.00  0.00    -0.017 A 
ATOM     14  C   UNL     1      -2.553  -2.465   0.154  0.00  0.00    +0.025 A 
ATOM     15  C   UNL     1      -1.384  -1.730   0.199  0.00  0.00    +0.060 A 
ATOM     16 BR   UNL     1       0.286  -2.612   0.292  0.00  0.00    -0.047 Br
BRANCH  10  18
ATOM     17  C   UNL     1      -0.419   1.805   0.207  0.00  0.00    +0.277 C 
ATOM     18  O   UNL     1      -0.288   0.383   0.230  0.00  0.00    -0.494 OA
ENDBRANCH  10  18
ENDBRANCH   1  13
BRANCH   4  19
ATOM     19  C   UNL     1      -4.951  -6.289  -0.463  0.00  0.00    +0.051 C 
ATOM     20  C   UNL     1      -3.756  -6.656  -1.345  0.00  0.00    +0.011 C 
ATOM     21  C   UNL     1      -5.156  -6.565  -1.954  0.00  0.00    +0.011 C 
ENDBRANCH   4  19
BRANCH   3  22
ATOM     22  C   UNL     1      -5.683  -5.455   2.360  0.00  0.00    +0.081 C 
ATOM     23  C   UNL     1      -5.009  -5.212   3.712  0.00  0.00    +0.025 C 
ATOM     24  C   UNL     1      -4.548  -6.369   2.824  0.00  0.00    +0.025 C 
ENDBRANCH   3  22
TORSDOF 4
