REMARK  Name = ZINC04229692
REMARK  7 active torsions:
REMARK  status: ('A' for Active; 'I' for Inactive)
REMARK    1  A    between atoms: C_1  and  C_2
REMARK    2  A    between atoms: C_5  and  C_25
REMARK    3  A    between atoms: N_6  and  C_7
REMARK    4  A    between atoms: C_10  and  C_13
REMARK    5  A    between atoms: N_15  and  N_16
REMARK    6  A    between atoms: C_17  and  C_18
REMARK    7  A    between atoms: C_23  and  O_24
REMARK                            x       y       z     vdW  Elec       q    Type
REMARK                         _______ _______ _______ _____ _____    ______ ____
ROOT
ATOM      1  C   UNL     1       0.049   0.943   6.470  0.00  0.00    +0.263 C 
ATOM      2  O   UNL     1       0.997   1.573   6.899  0.00  0.00    -0.268 OA
ATOM      3  N   UNL     1      -0.995   0.664   7.275  0.00  0.00    -0.203 N 
ATOM      4  H   UNL     1      -1.751   0.163   6.932  0.00  0.00    +0.178 HD
ENDROOT
BRANCH   1   8
ATOM      5  C   UNL     1       0.030  -0.377   2.433  0.00  0.00    +0.047 A 
ATOM      6  C   UNL     1       1.114   0.343   2.922  0.00  0.00    +0.027 A 
ATOM      7  C   UNL     1       1.124   0.773   4.231  0.00  0.00    +0.015 A 
ATOM      8  C   UNL     1       0.042   0.485   5.067  0.00  0.00    +0.038 A 
ATOM      9  C   UNL     1      -1.046  -0.239   4.572  0.00  0.00    +0.015 A 
ATOM     10  C   UNL     1      -1.051  -0.660   3.261  0.00  0.00    +0.027 A 
BRANCH   5  16
ATOM     11  C   UNL     1      -0.018   1.503   0.010  0.00  0.00    +0.064 C 
ATOM     12  C   UNL     1       0.002  -0.004   0.002  0.00  0.00    +0.021 A 
ATOM     13  C   UNL     1       0.008  -0.789  -1.094  0.00  0.00    +0.023 A 
ATOM     14  C   UNL     1       0.029  -2.128  -0.656  0.00  0.00    +0.023 A 
ATOM     15  C   UNL     1       0.034  -2.114   0.692  0.00  0.00    +0.021 A 
ATOM     16  N   UNL     1       0.024  -0.811   1.104  0.00  0.00    -0.318 N 
ATOM     17  C   UNL     1       0.055  -3.325   1.589  0.00  0.00    +0.064 C 
ENDBRANCH   5  16
ENDBRANCH   1   8
BRANCH   3  18
ATOM     18  N   UNL     1      -0.989   1.100   8.607  0.00  0.00    -0.187 NA
ATOM     19  C   UNL     1      -1.995   0.831   9.382  0.00  0.00    +0.142 C 
BRANCH  19  20
ATOM     20  C   UNL     1      -1.988   1.289  10.783  0.00  0.00    +0.036 A 
ATOM     21  C   UNL     1      -3.066   0.997  11.622  0.00  0.00    +0.013 A 
ATOM     22  C   UNL     1      -3.053   1.428  12.932  0.00  0.00    +0.001 A 
ATOM     23  C   UNL     1      -1.976   2.150  13.419  0.00  0.00    +0.004 A 
ATOM     24  C   UNL     1      -0.904   2.445  12.599  0.00  0.00    +0.046 A 
ATOM     25  C   UNL     1      -0.898   2.014  11.282  0.00  0.00    +0.125 A 
BRANCH  25  26
ATOM     26  O   UNL     1       0.158   2.299  10.477  0.00  0.00    -0.506 OA
ATOM     27  H   UNL     1       0.074   3.135   9.999  0.00  0.00    +0.292 HD
ENDBRANCH  25  26
ENDBRANCH  19  20
ENDBRANCH   3  18
TORSDOF 5
