REMARK  Name = ZINC63484713
REMARK  6 active torsions:
REMARK  status: ('A' for Active; 'I' for Inactive)
REMARK    1  A    between atoms: C_4  and  C_7
REMARK    2  A    between atoms: C_7  and  C_8
REMARK    3  A    between atoms: N_12  and  C_13
REMARK    4  A    between atoms: C_13  and  C_14
REMARK    5  A    between atoms: C_14  and  C_15
REMARK    6  A    between atoms: N_17  and  N_18
REMARK                            x       y       z     vdW  Elec       q    Type
REMARK                         _______ _______ _______ _____ _____    ______ ____
ROOT
ATOM      1  C   UNL     1       0.017  -3.446   0.967  0.00  0.00    +0.228 C 
ATOM      2  O   UNL     1       0.022  -3.054  -0.181  0.00  0.00    -0.274 OA
ATOM      3  N   UNL     1      -1.067  -4.081   1.456  0.00  0.00    -0.224 N 
ATOM      4  H   UNL     1      -1.071  -4.394   2.374  0.00  0.00    +0.174 HD
ENDROOT
BRANCH   3   5
ATOM      5  N   UNL     1      -2.186  -4.288   0.640  0.00  0.00    -0.137 N 
ATOM      6  C   UNL     1      -3.333  -3.585   0.733  0.00  0.00    +0.263 C 
ATOM      7  O   UNL     1      -3.583  -2.688   1.510  0.00  0.00    -0.271 OA
ATOM      8  C   UNL     1      -4.242  -4.151  -0.334  0.00  0.00    +0.114 C 
ATOM      9  C   UNL     1      -4.606  -3.073  -1.349  0.00  0.00    +0.035 C 
ATOM     10  C   UNL     1      -5.500  -3.673  -2.436  0.00  0.00    +0.003 C 
ATOM     11  C   UNL     1      -6.767  -4.243  -1.795  0.00  0.00    +0.000 C 
ATOM     12  C   UNL     1      -6.387  -5.339  -0.798  0.00  0.00    +0.003 C 
ATOM     13  C   UNL     1      -5.497  -4.745   0.296  0.00  0.00    +0.035 C 
ATOM     14  N   UNL     1      -3.436  -5.203  -0.967  0.00  0.00    -0.284 N 
ATOM     15  C   UNL     1      -2.247  -5.205  -0.334  0.00  0.00    +0.326 C 
ATOM     16  O   UNL     1      -1.335  -5.957  -0.612  0.00  0.00    -0.251 OA
ATOM     17  H   UNL     1      -3.705  -5.779  -1.699  0.00  0.00    +0.151 HD
ENDBRANCH   3   5
BRANCH   1  18
ATOM     18  C   UNL     1       1.221  -3.223   1.845  0.00  0.00    +0.079 C 
BRANCH  18  19
ATOM     19  C   UNL     1       2.241  -2.358   1.102  0.00  0.00    -0.069 C 
BRANCH  19  24
ATOM     20  C   UNL     1       4.295  -1.124   1.320  0.00  0.00    -0.064 C 
ATOM     21  C   UNL     1       5.668  -1.827   1.283  0.00  0.00    -0.017 C 
ATOM     22  C   UNL     1       5.567  -2.851   2.445  0.00  0.00    -0.020 C 
ATOM     23  C   UNL     1       4.079  -3.271   2.364  0.00  0.00    -0.078 C 
ATOM     24  N   UNL     1       3.356  -2.034   2.001  0.00  0.00    +0.382 N 
ATOM     25  H   UNL     1       3.000  -1.592   2.836  0.00  0.00    -0.081 HD
BRANCH  20  26
ATOM     26  C   UNL     1       3.812  -0.850  -0.106  0.00  0.00    +0.020 C 
BRANCH  26  30
ATOM     27  C   UNL     1       6.457   1.918  -2.000  0.00  0.00    +0.000 A 
ATOM     28  C   UNL     1       6.624   0.560  -2.194  0.00  0.00    +0.000 A 
ATOM     29  C   UNL     1       5.768  -0.336  -1.581  0.00  0.00    +0.003 A 
ATOM     30  C   UNL     1       4.746   0.127  -0.773  0.00  0.00    -0.049 A 
ATOM     31  C   UNL     1       4.580   1.485  -0.579  0.00  0.00    +0.003 A 
ATOM     32  C   UNL     1       5.435   2.381  -1.193  0.00  0.00    +0.000 A 
ENDBRANCH  26  30
ENDBRANCH  20  26
ENDBRANCH  19  24
ENDBRANCH  18  19
ENDBRANCH   1  18
TORSDOF 6
