REMARK  Name = ZINC26639515
REMARK  11 active torsions:
REMARK  status: ('A' for Active; 'I' for Inactive)
REMARK    1  A    between atoms: C_1  and  C_2
REMARK    2  A    between atoms: C_5  and  C_9
REMARK    3  A    between atoms: C_6  and  C_8
REMARK    4  A    between atoms: C_9  and  C_11
REMARK    5  A    between atoms: N_14  and  C_17
REMARK    6  A    between atoms: C_17  and  C_18
REMARK    7  A    between atoms: N_20  and  C_21
REMARK    8  A    between atoms: C_21  and  C_22
REMARK    9  A    between atoms: C_22  and  C_23
REMARK   10  A    between atoms: C_26  and  S_29
REMARK   11  A    between atoms: S_29  and  N_32
REMARK                            x       y       z     vdW  Elec       q    Type
REMARK                         _______ _______ _______ _____ _____    ______ ____
ROOT
ATOM      1  C   UNL     1      -8.042   4.606   2.381  0.00  0.00    +0.019 C 
ENDROOT
BRANCH   1   5
ATOM      2  C   UNL     1      -4.507   3.440   0.277  0.00  0.00    +0.057 C 
ATOM      3  C   UNL     1      -4.460   3.599   1.799  0.00  0.00    -0.007 C 
ATOM      4  C   UNL     1      -5.628   4.479   2.252  0.00  0.00    -0.077 C 
ATOM      5  N   UNL     1      -6.896   3.861   1.844  0.00  0.00    +0.385 N 
ATOM      6  C   UNL     1      -6.983   3.742   0.383  0.00  0.00    -0.077 C 
ATOM      7  C   UNL     1      -5.856   2.839  -0.125  0.00  0.00    -0.007 C 
ATOM      8  H   UNL     1      -6.924   2.845   2.265  0.00  0.00    -0.081 HD
BRANCH   2   9
ATOM      9  C   UNL     1      -3.395   2.525  -0.168  0.00  0.00    +0.166 C 
ATOM     10  O   UNL     1      -3.610   1.342  -0.326  0.00  0.00    -0.292 OA
BRANCH   9  15
ATOM     11  C   UNL     1       1.861   4.645  -1.129  0.00  0.00    +0.044 C 
ATOM     12  C   UNL     1       0.484   4.089  -0.874  0.00  0.00    -0.050 A 
ATOM     13  C   UNL     1      -0.504   4.907  -0.354  0.00  0.00    +0.004 A 
ATOM     14  C   UNL     1      -1.766   4.405  -0.118  0.00  0.00    +0.012 A 
ATOM     15  C   UNL     1      -2.049   3.067  -0.411  0.00  0.00    +0.021 A 
ATOM     16  C   UNL     1      -1.044   2.246  -0.931  0.00  0.00    -0.040 A 
ATOM     17  C   UNL     1       0.214   2.762  -1.161  0.00  0.00    +0.007 A 
ATOM     18  C   UNL     1      -1.336   0.801  -1.246  0.00  0.00    +0.044 C 
ENDBRANCH   9  15
ENDBRANCH   2   9
ENDBRANCH   1   5
BRANCH   1  19
ATOM     19  C   UNL     1      -9.303   3.808   2.173  0.00  0.00    +0.196 C 
ATOM     20  O   UNL     1      -9.242   2.686   1.717  0.00  0.00    -0.278 OA
ATOM     21  N   UNL     1     -10.498   4.341   2.493  0.00  0.00    -0.317 N 
ATOM     22  H   UNL     1     -10.554   5.359   2.907  0.00  0.00    +0.149 HD
BRANCH  21  23
ATOM     23  C   UNL     1     -11.724   3.565   2.291  0.00  0.00    +0.109 C 
BRANCH  23  24
ATOM     24  C   UNL     1     -12.932   4.395   2.732  0.00  0.00    +0.054 C 
BRANCH  24  25
ATOM     25  C   UNL     1     -14.193   3.597   2.524  0.00  0.00    -0.046 A 
ATOM     26  C   UNL     1     -14.873   3.679   1.323  0.00  0.00    +0.005 A 
ATOM     27  C   UNL     1     -16.027   2.944   1.131  0.00  0.00    +0.029 A 
ATOM     28  C   UNL     1     -16.507   2.132   2.142  0.00  0.00    +0.105 A 
ATOM     29  C   UNL     1     -15.830   2.054   3.345  0.00  0.00    +0.029 A 
ATOM     30  C   UNL     1     -14.673   2.786   3.535  0.00  0.00    +0.005 A 
BRANCH  28  31
ATOM     31  S   UNL     1     -17.981   1.198   1.898  0.00  0.00    +0.056 S 
ATOM     32  O   UNL     1     -18.125   1.026   0.495  0.00  0.00    -0.153 OA
ATOM     33  O   UNL     1     -17.919   0.100   2.798  0.00  0.00    -0.153 OA
BRANCH  31  34
ATOM     34  N   UNL     1     -19.247   2.144   2.392  0.00  0.00    -0.204 NA
ATOM     35  H   UNL     1     -20.190   1.594   2.255  0.00  0.00    +0.144 HD
ATOM     36  H   UNL     1     -19.271   3.067   1.794  0.00  0.00    +0.144 HD
ENDBRANCH  31  34
ENDBRANCH  28  31
ENDBRANCH  24  25
ENDBRANCH  23  24
ENDBRANCH  21  23
ENDBRANCH   1  19
TORSDOF 9
