REMARK  Name = ZINC58775352
REMARK  8 active torsions:
REMARK  status: ('A' for Active; 'I' for Inactive)
REMARK    1  A    between atoms: C_7  and  C_11
REMARK    2  A    between atoms: C_11  and  C_12
REMARK    3  A    between atoms: C_12  and  C_14
REMARK    4  A    between atoms: C_12  and  N_33
REMARK    5  A    between atoms: N_16  and  C_17
REMARK    6  A    between atoms: C_17  and  C_18
REMARK    7  A    between atoms: C_18  and  C_20
REMARK    8  A    between atoms: C_18  and  N_28
REMARK                            x       y       z     vdW  Elec       q    Type
REMARK                         _______ _______ _______ _____ _____    ______ ____
ROOT
ATOM      1  C   UNL     1      -0.740  -4.733  -1.130  0.00  0.00    +0.234 C 
ATOM      2  O   UNL     1      -0.373  -5.889  -1.091  0.00  0.00    -0.274 OA
ATOM      3  N   UNL     1      -2.051  -4.438  -1.034  0.00  0.00    -0.315 N 
ATOM      4  H   UNL     1      -2.344  -3.514  -1.065  0.00  0.00    +0.149 HD
ENDROOT
BRANCH   1   5
ATOM      5  C   UNL     1       0.272  -3.627  -1.286  0.00  0.00    +0.165 C 
BRANCH   5   6
ATOM      6  N   UNL     1       1.514  -4.175  -1.836  0.00  0.00    -0.288 N 
ATOM      7  C   UNL     1       2.182  -5.135  -1.165  0.00  0.00    +0.298 C 
ATOM      8  O   UNL     1       1.753  -5.546  -0.104  0.00  0.00    -0.253 OA
ATOM      9  N   UNL     1       3.325  -5.640  -1.671  0.00  0.00    -0.313 N 
ATOM     10  H   UNL     1       1.856  -3.848  -2.682  0.00  0.00    +0.151 HD
ATOM     11  H   UNL     1       3.667  -5.312  -2.518  0.00  0.00    +0.146 HD
ATOM     12  H   UNL     1       3.805  -6.330  -1.189  0.00  0.00    +0.146 HD
ENDBRANCH   5   6
BRANCH   5  13
ATOM     13  C   UNL     1       0.553  -2.997   0.080  0.00  0.00    +0.069 C 
BRANCH  13  20
ATOM     14  C   UNL     1      -0.193   1.511  -0.965  0.00  0.00    +0.001 A 
ATOM     15  C   UNL     1       0.978   2.255  -1.018  0.00  0.00    +0.002 A 
ATOM     16  C   UNL     1       2.198   1.663  -0.777  0.00  0.00    +0.026 A 
ATOM     17  C   UNL     1       2.260   0.306  -0.478  0.00  0.00    +0.047 A 
ATOM     18  C   UNL     1       1.071  -0.443  -0.425  0.00  0.00    +0.003 A 
ATOM     19  C   UNL     1      -0.155   0.177  -0.673  0.00  0.00    +0.010 A 
ATOM     20  C   UNL     1       1.470  -1.813  -0.092  0.00  0.00    -0.020 A 
ATOM     21  C   UNL     1       2.806  -1.813   0.031  0.00  0.00    +0.087 A 
ATOM     22  N   UNL     1       3.296  -0.556  -0.196  0.00  0.00    -0.360 N 
ATOM     23  H   UNL     1       4.233  -0.309  -0.163  0.00  0.00    +0.165 HD
ENDBRANCH  13  20
ENDBRANCH   5  13
ENDBRANCH   1   5
BRANCH   3  24
ATOM     24  C   UNL     1      -3.034  -5.513  -0.882  0.00  0.00    +0.093 C 
BRANCH  24  25
ATOM     25  C   UNL     1      -4.423  -4.908  -0.667  0.00  0.00    -0.016 C 
BRANCH  25  26
ATOM     26  C   UNL     1      -4.453  -4.175   0.649  0.00  0.00    -0.006 A 
ATOM     27  C   UNL     1      -4.506  -4.885   1.836  0.00  0.00    +0.126 A 
ATOM     28  C   UNL     1      -4.533  -4.210   3.045  0.00  0.00    +0.038 A 
ATOM     29  C   UNL     1      -4.509  -2.828   3.065  0.00  0.00    +0.004 A 
ATOM     30  C   UNL     1      -4.457  -2.119   1.880  0.00  0.00    +0.020 A 
ATOM     31  C   UNL     1      -4.423  -2.792   0.671  0.00  0.00    +0.045 A 
ATOM     32 CL   UNL     1      -4.351  -1.901  -0.817  0.00  0.00    -0.083 Cl
ATOM     33  F   UNL     1      -4.530  -6.235   1.816  0.00  0.00    -0.205 F 
ENDBRANCH  25  26
BRANCH  25  34
ATOM     34  N   UNL     1      -5.428  -5.980  -0.654  0.00  0.00    +0.385 N 
ATOM     35  C   UNL     1      -6.777  -5.414  -0.399  0.00  0.00    -0.078 C 
ATOM     36  C   UNL     1      -7.729  -6.499  -0.962  0.00  0.00    -0.020 C 
ATOM     37  C   UNL     1      -6.980  -6.997  -2.219  0.00  0.00    -0.020 C 
ATOM     38  C   UNL     1      -5.505  -6.623  -1.983  0.00  0.00    -0.078 C 
ATOM     39  H   UNL     1      -5.198  -6.664   0.051  0.00  0.00    -0.081 HD
ENDBRANCH  25  34
ENDBRANCH  24  25
ENDBRANCH   3  24
TORSDOF 8
