REMARK  Name = ZINC47575622
REMARK  3 active torsions:
REMARK  status: ('A' for Active; 'I' for Inactive)
REMARK    1  A    between atoms: C_4  and  C_7
REMARK    2  A    between atoms: C_12  and  N_15
REMARK    3  A    between atoms: N_18  and  C_19
REMARK                            x       y       z     vdW  Elec       q    Type
REMARK                         _______ _______ _______ _____ _____    ______ ____
ROOT
ATOM      1  N   UNL     1       5.507  -5.120  -1.964  0.00  0.00    -0.296 N 
ATOM      2  C   UNL     1       5.944  -6.131  -2.739  0.00  0.00    +0.300 C 
ATOM      3  O   UNL     1       5.442  -6.322  -3.830  0.00  0.00    -0.253 OA
ATOM      4  N   UNL     1       6.939  -6.931  -2.306  0.00  0.00    -0.294 N 
ATOM      5  H   UNL     1       5.908  -4.967  -1.094  0.00  0.00    +0.151 HD
ATOM      6  H   UNL     1       7.340  -6.778  -1.436  0.00  0.00    +0.151 HD
ENDROOT
BRANCH   4   7
ATOM      7  C   UNL     1       7.415  -8.030  -3.149  0.00  0.00    +0.037 C 
ATOM      8  C   UNL     1       7.942  -7.468  -4.471  0.00  0.00    +0.029 C 
ATOM      9  C   UNL     1       8.439  -8.617  -5.351  0.00  0.00    -0.008 C 
ATOM     10  C   UNL     1       9.563  -9.363  -4.630  0.00  0.00    +0.007 C 
ATOM     11  C   UNL     1       9.036  -9.925  -3.308  0.00  0.00    -0.008 C 
ATOM     12  C   UNL     1       8.539  -8.776  -2.428  0.00  0.00    +0.029 C 
ATOM     13  C   UNL     1       7.882 -10.889  -3.588  0.00  0.00    +0.007 C 
ATOM     14  C   UNL     1       6.758 -10.143  -4.309  0.00  0.00    -0.008 C 
ATOM     15  C   UNL     1       7.285  -9.581  -5.631  0.00  0.00    +0.007 C 
ATOM     16  C   UNL     1       6.261  -8.995  -3.429  0.00  0.00    +0.029 C 
ENDBRANCH   4   7
BRANCH   1  22
ATOM     17  C   UNL     1       2.859  -0.454  -2.507  0.00  0.00    +0.219 C 
ATOM     18  O   UNL     1       3.226   0.341  -3.347  0.00  0.00    -0.275 OA
ATOM     19  N   UNL     1       3.087  -1.771  -2.680  0.00  0.00    -0.301 N 
ATOM     20  C   UNL     1       2.554  -2.754  -1.728  0.00  0.00    +0.109 C 
ATOM     21  C   UNL     1       3.706  -3.635  -1.233  0.00  0.00    +0.041 C 
ATOM     22  C   UNL     1       4.426  -4.250  -2.435  0.00  0.00    +0.077 C 
ATOM     23  C   UNL     1       5.010  -3.137  -3.307  0.00  0.00    +0.041 C 
ATOM     24  C   UNL     1       3.869  -2.251  -3.829  0.00  0.00    +0.109 C 
BRANCH  17  28
ATOM     25  C   UNL     1       1.767   2.037   0.831  0.00  0.00    +0.000 C 
ATOM     26  C   UNL     1       2.434   0.691   1.121  0.00  0.00    +0.001 C 
ATOM     27  C   UNL     1       3.157   0.199  -0.134  0.00  0.00    +0.013 C 
ATOM     28  C   UNL     1       2.147   0.031  -1.271  0.00  0.00    +0.075 C 
ATOM     29  C   UNL     1       1.479   1.377  -1.562  0.00  0.00    +0.013 C 
ATOM     30  C   UNL     1       0.757   1.870  -0.307  0.00  0.00    +0.001 C 
ENDBRANCH  17  28
ENDBRANCH   1  22
TORSDOF 3
