REMARK  Name = ZINC58918818
REMARK  9 active torsions:
REMARK  status: ('A' for Active; 'I' for Inactive)
REMARK    1  A    between atoms: C_1  and  C_2
REMARK    2  A    between atoms: C_4  and  C_38
REMARK    3  A    between atoms: C_6  and  S_8
REMARK    4  A    between atoms: S_8  and  C_9
REMARK    5  A    between atoms: C_9  and  C_10
REMARK    6  A    between atoms: N_12  and  N_13
REMARK    7  A    between atoms: C_14  and  C_15
REMARK    8  A    between atoms: C_14  and  C_16
REMARK    9  A    between atoms: C_29  and  C_32
REMARK                            x       y       z     vdW  Elec       q    Type
REMARK                         _______ _______ _______ _____ _____    ______ ____
ROOT
ATOM      1  C   UNL     1       0.072  -1.740  10.064  0.00  0.00    -0.002 A 
ATOM      2  C   UNL     1       0.061  -0.915  11.193  0.00  0.00    +0.011 A 
ATOM      3  C   UNL     1       0.080  -1.478  12.447  0.00  0.00    +0.024 A 
ATOM      4  C   UNL     1       0.110  -2.865  12.597  0.00  0.00    +0.031 A 
ATOM      5  C   UNL     1       0.110  -3.688  11.483  0.00  0.00    -0.019 A 
ATOM      6  C   UNL     1       0.092  -3.126  10.219  0.00  0.00    +0.015 A 
ATOM      7  C   UNL     1       0.105  -5.188  11.594  0.00  0.00    +0.049 C 
ATOM      8  C   UNL     1      -1.023  -5.714  10.721  0.00  0.00    -0.023 C 
ATOM      9  C   UNL     1      -2.059  -6.035  11.451  0.00  0.00    -0.030 C 
ATOM     10  C   UNL     1      -1.784  -5.787  12.920  0.00  0.00    +0.033 C 
ATOM     11  C   UNL     1      -0.228  -5.684  12.998  0.00  0.00    +0.029 C 
ATOM     12  C   UNL     1       0.248  -4.824  14.130  0.00  0.00    +0.105 C 
ATOM     13  N   UNL     1       0.145  -3.400  13.878  0.00  0.00    -0.336 N 
ATOM     14  H   UNL     1       0.123  -2.794  14.636  0.00  0.00    +0.147 HD
ENDROOT
BRANCH  12  15
ATOM     15  C   UNL     1      -0.589  -5.131  15.346  0.00  0.00    -0.027 A 
ATOM     16  C   UNL     1      -1.849  -4.577  15.476  0.00  0.00    +0.005 A 
ATOM     17  C   UNL     1      -2.616  -4.859  16.591  0.00  0.00    +0.000 A 
ATOM     18  C   UNL     1      -2.123  -5.694  17.576  0.00  0.00    +0.000 A 
ATOM     19  C   UNL     1      -0.863  -6.249  17.445  0.00  0.00    +0.000 A 
ATOM     20  C   UNL     1      -0.098  -5.971  16.328  0.00  0.00    +0.005 A 
ENDBRANCH  12  15
BRANCH   1  22
ATOM     21  N   UNL     1       0.064  -1.915   7.668  0.00  0.00    -0.185 NA
ATOM     22  C   UNL     1       0.058  -1.147   8.715  0.00  0.00    +0.063 C 
ATOM     23  C   UNL     1       0.037   0.351   8.550  0.00  0.00    +0.068 C 
BRANCH  21  26
ATOM     24  C   UNL     1       0.056  -2.148   5.299  0.00  0.00    +0.242 C 
ATOM     25  O   UNL     1       0.073  -3.354   5.431  0.00  0.00    -0.273 OA
ATOM     26  N   UNL     1       0.050  -1.351   6.386  0.00  0.00    -0.206 N 
ATOM     27  H   UNL     1       0.036  -0.387   6.280  0.00  0.00    +0.177 HD
BRANCH  24  28
ATOM     28  C   UNL     1       0.041  -1.542   3.919  0.00  0.00    +0.174 C 
BRANCH  28  29
ATOM     29  S   UNL     1       0.053  -2.864   2.678  0.00  0.00    -0.077 S 
BRANCH  29  35
ATOM     30  C   UNL     1      -0.018   1.503   0.010  0.00  0.00    +0.066 C 
ATOM     31  C   UNL     1       0.002  -0.004   0.002  0.00  0.00    +0.043 A 
ATOM     32  C   UNL     1       0.006  -0.699  -1.198  0.00  0.00    +0.046 A 
ATOM     33  C   UNL     1       0.025  -2.084  -1.161  0.00  0.00    +0.043 A 
ATOM     34  N   UNL     1       0.039  -2.699   0.010  0.00  0.00    -0.227 NA
ATOM     35  C   UNL     1       0.035  -2.005   1.140  0.00  0.00    +0.189 A 
ATOM     36  N   UNL     1       0.022  -0.679   1.139  0.00  0.00    -0.227 NA
ATOM     37  C   UNL     1       0.029  -2.881  -2.440  0.00  0.00    +0.066 C 
ENDBRANCH  29  35
ENDBRANCH  28  29
ENDBRANCH  24  28
ENDBRANCH  21  26
ENDBRANCH   1  22
TORSDOF 6
