REMARK  Name = ZINC06798585
REMARK  5 active torsions:
REMARK  status: ('A' for Active; 'I' for Inactive)
REMARK    1  A    between atoms: C_3  and  C_6
REMARK    2  A    between atoms: N_11  and  C_16
REMARK    3  A    between atoms: C_16  and  C_17
REMARK    4  A    between atoms: N_19  and  C_20
REMARK    5  A    between atoms: C_20  and  C_21
REMARK                            x       y       z     vdW  Elec       q    Type
REMARK                         _______ _______ _______ _____ _____    ______ ____
ROOT
ATOM      1  C   UNL     1       0.915   5.133   0.019  0.00  0.00    +0.100 A 
ATOM      2  C   UNL     1       2.261   5.529   0.014  0.00  0.00    +0.064 A 
ATOM      3  C   UNL     1       2.288   6.904   0.014  0.00  0.00    +0.135 A 
ATOM      4  C   UNL     1       3.369   7.896   0.009  0.00  0.00    +0.293 A 
ATOM      5  O   UNL     1       4.538   7.552  -0.004  0.00  0.00    -0.264 OA
ATOM      6  N   UNL     1       3.028   9.205   0.019  0.00  0.00    -0.217 N 
ATOM      7  N   UNL     1       1.678   9.571   0.034  0.00  0.00    -0.156 NA
ATOM      8  C   UNL     1       0.729   8.697   0.038  0.00  0.00    +0.245 A 
ATOM      9  N   UNL     1       0.987   7.345   0.029  0.00  0.00    -0.214 N 
ATOM     10  N   UNL     1       0.158   6.217   0.032  0.00  0.00    -0.164 NA
ENDROOT
BRANCH   1  13
ATOM     11  C   UNL     1      -1.080   1.915   0.017  0.00  0.00    +0.008 A 
ATOM     12  C   UNL     1      -0.864   3.276   0.027  0.00  0.00    +0.018 A 
ATOM     13  C   UNL     1       0.425   3.737   0.017  0.00  0.00    +0.039 A 
ATOM     14  S   UNL     1       1.360   2.217   0.001  0.00  0.00    -0.095 S 
ATOM     15  C   UNL     1      -0.013   1.076   0.008  0.00  0.00    +0.046 A 
ENDBRANCH   1  13
BRANCH   6  16
ATOM     16  C   UNL     1       4.069  10.236   0.014  0.00  0.00    +0.243 C 
BRANCH  16  17
ATOM     17  C   UNL     1       4.412  10.597  -1.408  0.00  0.00    +0.235 C 
ATOM     18  O   UNL     1       3.844  10.047  -2.328  0.00  0.00    -0.274 OA
ATOM     19  N   UNL     1       5.351  11.531  -1.658  0.00  0.00    -0.310 N 
ATOM     20  H   UNL     1       5.806  11.971  -0.923  0.00  0.00    +0.149 HD
BRANCH  19  21
ATOM     21  C   UNL     1       5.685  11.882  -3.041  0.00  0.00    +0.139 C 
BRANCH  21  22
ATOM     22  C   UNL     1       6.755  12.943  -3.046  0.00  0.00    -0.027 A 
ATOM     23  C   UNL     1       6.402  14.279  -3.041  0.00  0.00    +0.009 A 
ATOM     24  C   UNL     1       7.380  15.256  -3.039  0.00  0.00    +0.050 A 
ATOM     25  C   UNL     1       8.719  14.897  -3.055  0.00  0.00    +0.166 A 
ATOM     26  C   UNL     1       9.074  13.550  -3.064  0.00  0.00    +0.167 A 
ATOM     27  C   UNL     1       8.088  12.577  -3.060  0.00  0.00    +0.054 A 
ATOM     28  O   UNL     1      10.436  13.459  -3.078  0.00  0.00    -0.453 OA
ATOM     29  C   UNL     1      10.904  14.757  -3.489  0.00  0.00    +0.466 C 
ATOM     30  O   UNL     1       9.857  15.649  -3.062  0.00  0.00    -0.453 OA
ENDBRANCH  21  22
ENDBRANCH  19  21
ENDBRANCH  16  17
ENDBRANCH   6  16
TORSDOF 5
