REMARK  Name = ZINC57774949
REMARK  9 active torsions:
REMARK  status: ('A' for Active; 'I' for Inactive)
REMARK    1  A    between atoms: C_1  and  C_2
REMARK    2  A    between atoms: C_2  and  C_3
REMARK    3  A    between atoms: C_2  and  C_4
REMARK    4  A    between atoms: C_2  and  O_5
REMARK    5  A    between atoms: O_5  and  C_6
REMARK    6  A    between atoms: N_8  and  C_9
REMARK    7  A    between atoms: C_15  and  N_25
REMARK    8  A    between atoms: C_17  and  C_19
REMARK    9  A    between atoms: N_25  and  C_26
REMARK                            x       y       z     vdW  Elec       q    Type
REMARK                         _______ _______ _______ _____ _____    ______ ____
ROOT
ATOM      1  C   UNL     1       4.083  -0.737  -2.761  0.00  0.00    +0.081 C 
ATOM      2  C   UNL     1       5.139  -1.620  -2.086  0.00  0.00    +0.029 C 
ATOM      3  C   UNL     1       6.436  -0.822  -1.969  0.00  0.00    +0.058 C 
ATOM      4  C   UNL     1       6.809  -0.226  -3.299  0.00  0.00    +0.050 A 
ATOM      5  C   UNL     1       5.909  -0.093  -4.329  0.00  0.00    +0.016 A 
ATOM      6  C   UNL     1       6.345   0.481  -5.530  0.00  0.00    +0.130 A 
ATOM      7  N   UNL     1       7.608   0.874  -5.640  0.00  0.00    -0.212 NA
ATOM      8  C   UNL     1       8.447   0.725  -4.625  0.00  0.00    +0.163 A 
ATOM      9  N   UNL     1       8.060   0.188  -3.479  0.00  0.00    -0.232 NA
ATOM     10  C   UNL     1       4.476  -0.540  -4.225  0.00  0.00    +0.062 C 
ENDROOT
BRANCH   8  11
ATOM     11  C   UNL     1       9.854   1.171  -4.777  0.00  0.00    +0.037 A 
ATOM     12  C   UNL     1      10.291   1.746  -5.973  0.00  0.00    +0.014 A 
ATOM     13  C   UNL     1      11.613   2.146  -6.065  0.00  0.00    +0.020 A 
ATOM     14  C   UNL     1      12.452   1.964  -4.980  0.00  0.00    +0.111 A 
ATOM     15  N   UNL     1      12.010   1.417  -3.864  0.00  0.00    -0.263 NA
ATOM     16  C   UNL     1      10.759   1.027  -3.728  0.00  0.00    +0.122 A 
ENDBRANCH   8  11
BRANCH   1  19
ATOM     17  C   UNL     1       2.004  -1.230  -1.591  0.00  0.00    +0.401 C 
ATOM     18  O   UNL     1       2.397  -0.546  -0.666  0.00  0.00    -0.226 OA
ATOM     19  N   UNL     1       2.774  -1.389  -2.686  0.00  0.00    -0.278 N 
ATOM     20  H   UNL     1       2.460  -1.935  -3.424  0.00  0.00    +0.152 HD
BRANCH  17  21
ATOM     21  O   UNL     1       0.800  -1.829  -1.521  0.00  0.00    -0.445 OA
BRANCH  21  23
ATOM     22  C   UNL     1      -0.237  -0.122  -0.161  0.00  0.00    +0.055 C 
ATOM     23  C   UNL     1       0.038  -1.618  -0.331  0.00  0.00    +0.107 C 
ATOM     24  C   UNL     1       0.824  -2.133   0.876  0.00  0.00    +0.055 C 
ATOM     25  C   UNL     1      -1.289  -2.372  -0.435  0.00  0.00    +0.055 C 
ENDBRANCH  21  23
ENDBRANCH  17  21
ENDBRANCH   1  19
BRANCH   6  26
ATOM     26  N   UNL     1       5.468   0.638  -6.592  0.00  0.00    -0.299 N 
ATOM     27  H   UNL     1       4.527   0.427  -6.480  0.00  0.00    +0.154 HD
BRANCH  26  28
ATOM     28  C   UNL     1       5.938   1.101  -7.826  0.00  0.00    +0.033 A 
ATOM     29  C   UNL     1       7.190   0.712  -8.283  0.00  0.00    +0.026 A 
ATOM     30  C   UNL     1       7.652   1.170  -9.502  0.00  0.00    +0.040 A 
ATOM     31  C   UNL     1       6.868   2.017 -10.267  0.00  0.00    +0.124 A 
ATOM     32  C   UNL     1       5.619   2.406  -9.812  0.00  0.00    +0.040 A 
ATOM     33  C   UNL     1       5.151   1.946  -8.597  0.00  0.00    +0.026 A 
ATOM     34  F   UNL     1       7.322   2.464 -11.458  0.00  0.00    -0.205 F 
ENDBRANCH  26  28
ENDBRANCH   6  26
TORSDOF 6
