REMARK  Name = ZINC39533662
REMARK  9 active torsions:
REMARK  status: ('A' for Active; 'I' for Inactive)
REMARK    1  A    between atoms: C_4  and  C_7
REMARK    2  A    between atoms: C_10  and  C_13
REMARK    3  A    between atoms: C_13  and  C_15
REMARK    4  A    between atoms: C_13  and  N_26
REMARK    5  A    between atoms: C_15  and  N_16
REMARK    6  A    between atoms: N_16  and  S_17
REMARK    7  A    between atoms: S_17  and  C_20
REMARK    8  A    between atoms: C_30  and  C_33
REMARK    9  A    between atoms: C_38  and  O_39
REMARK                            x       y       z     vdW  Elec       q    Type
REMARK                         _______ _______ _______ _____ _____    ______ ____
ROOT
ATOM      1  C   UNL     1       7.295  -2.782  -0.004  0.00  0.00    +0.102 C 
ENDROOT
BRANCH   1   2
ATOM      2  N   UNL     1       7.064  -3.995  -0.801  0.00  0.00    -0.297 NA
ATOM      3  C   UNL     1       8.234  -4.883  -0.758  0.00  0.00    +0.066 C 
ATOM      4  C   UNL     1       7.932  -6.158  -1.549  0.00  0.00    -0.066 C 
ATOM      5  N   UNL     1       7.612  -5.808  -2.939  0.00  0.00    +0.385 N 
ATOM      6  C   UNL     1       6.428  -4.940  -2.968  0.00  0.00    -0.023 C 
ATOM      7  C   UNL     1       6.717  -3.655  -2.188  0.00  0.00    +0.074 C 
ATOM      8  H   UNL     1       8.395  -5.322  -3.352  0.00  0.00    -0.085 HD
ATOM      9  H   UNL     1       7.425  -6.649  -3.464  0.00  0.00    -0.085 HD
BRANCH   6  10
ATOM     10  C   UNL     1       6.091  -4.596  -4.396  0.00  0.00    -0.019 A 
ATOM     11  C   UNL     1       7.049  -4.727  -5.383  0.00  0.00    +0.005 A 
ATOM     12  C   UNL     1       6.740  -4.412  -6.693  0.00  0.00    +0.000 A 
ATOM     13  C   UNL     1       5.473  -3.964  -7.019  0.00  0.00    +0.004 A 
ATOM     14  C   UNL     1       4.512  -3.831  -6.036  0.00  0.00    +0.045 A 
ATOM     15  C   UNL     1       4.817  -4.153  -4.721  0.00  0.00    +0.118 A 
BRANCH  15  16
ATOM     16  O   UNL     1       3.872  -4.028  -3.753  0.00  0.00    -0.507 OA
ATOM     17  H   UNL     1       3.853  -3.158  -3.332  0.00  0.00    +0.292 HD
ENDBRANCH  15  16
ENDBRANCH   6  10
ENDBRANCH   1   2
BRANCH   1  21
ATOM     18  C   UNL     1       3.761  -0.375  -0.018  0.00  0.00    -0.018 A 
ATOM     19  C   UNL     1       5.015   0.224  -0.116  0.00  0.00    +0.009 A 
ATOM     20  C   UNL     1       6.153  -0.558  -0.111  0.00  0.00    +0.006 A 
ATOM     21  C   UNL     1       6.049  -1.934  -0.009  0.00  0.00    -0.029 A 
ATOM     22  C   UNL     1       4.807  -2.534   0.089  0.00  0.00    +0.006 A 
ATOM     23  C   UNL     1       3.663  -1.761   0.091  0.00  0.00    +0.009 A 
BRANCH  18  27
ATOM     24  C   UNL     1       0.247   2.019  -0.031  0.00  0.00    +0.000 A 
ATOM     25  C   UNL     1       1.489   2.618  -0.135  0.00  0.00    +0.001 A 
ATOM     26  C   UNL     1       2.633   1.846  -0.131  0.00  0.00    +0.008 A 
ATOM     27  C   UNL     1       2.535   0.460  -0.022  0.00  0.00    -0.018 A 
ATOM     28  C   UNL     1       1.281  -0.138   0.082  0.00  0.00    +0.008 A 
ATOM     29  C   UNL     1       0.143   0.643   0.077  0.00  0.00    +0.001 A 
ENDBRANCH  18  27
ENDBRANCH   1  21
BRANCH   1  30
ATOM     30  C   UNL     1       7.639  -3.175   1.434  0.00  0.00    +0.129 C 
BRANCH  30  31
ATOM     31  N   UNL     1       7.945  -1.970   2.209  0.00  0.00    -0.188 NA
ATOM     32  H   UNL     1       8.142  -1.137   1.753  0.00  0.00    +0.148 HD
BRANCH  31  33
ATOM     33  S   UNL     1       7.954  -2.030   3.864  0.00  0.00    +0.058 S 
ATOM     34  O   UNL     1       8.306  -0.730   4.316  0.00  0.00    -0.153 OA
ATOM     35  O   UNL     1       6.747  -2.671   4.254  0.00  0.00    -0.153 OA
BRANCH  33  36
ATOM     36  C   UNL     1       9.270  -3.102   4.339  0.00  0.00    +0.105 A 
ATOM     37  C   UNL     1       9.038  -4.457   4.490  0.00  0.00    +0.028 A 
ATOM     38  C   UNL     1      10.070  -5.297   4.862  0.00  0.00    +0.002 A 
ATOM     39  C   UNL     1      11.334  -4.784   5.083  0.00  0.00    +0.000 A 
ATOM     40  C   UNL     1      11.566  -3.430   4.932  0.00  0.00    +0.002 A 
ATOM     41  C   UNL     1      10.535  -2.589   4.555  0.00  0.00    +0.028 A 
ENDBRANCH  33  36
ENDBRANCH  31  33
ENDBRANCH  30  31
ENDBRANCH   1  30
TORSDOF 9
