REMARK  Name = ZINC59889232
REMARK  7 active torsions:
REMARK  status: ('A' for Active; 'I' for Inactive)
REMARK    1  A    between atoms: C_1  and  C_2
REMARK    2  A    between atoms: C_2  and  C_4
REMARK    3  A    between atoms: C_2  and  C_16
REMARK    4  A    between atoms: C_9  and  O_14
REMARK    5  A    between atoms: O_14  and  C_15
REMARK    6  A    between atoms: N_18  and  C_19
REMARK    7  A    between atoms: C_21  and  C_25
REMARK                            x       y       z     vdW  Elec       q    Type
REMARK                         _______ _______ _______ _____ _____    ______ ____
ROOT
ATOM      1  C   UNL     1      -1.412  -0.526   0.013  0.00  0.00    +0.225 C 
ATOM      2  O   UNL     1      -1.790  -1.233   0.922  0.00  0.00    -0.275 OA
ATOM      3  N   UNL     1      -2.256  -0.206  -0.988  0.00  0.00    -0.270 N 
ATOM      4  H   UNL     1      -1.953   0.360  -1.716  0.00  0.00    +0.156 HD
ENDROOT
BRANCH   3   5
ATOM      5  C   UNL     1      -3.564  -0.689  -0.979  0.00  0.00    +0.121 A 
ATOM      6  C   UNL     1      -4.118  -1.481  -0.024  0.00  0.00    +0.074 A 
ATOM      7  C   UNL     1      -5.452  -1.736  -0.398  0.00  0.00    +0.101 A 
ATOM      8  N   UNL     1      -5.684  -1.115  -1.537  0.00  0.00    -0.172 NA
ATOM      9  N   UNL     1      -4.515  -0.446  -1.919  0.00  0.00    -0.263 N 
ATOM     10  H   UNL     1      -4.403   0.095  -2.716  0.00  0.00    +0.190 HD
BRANCH   7  11
ATOM     11  C   UNL     1      -6.424  -2.557   0.357  0.00  0.00    +0.039 A 
ATOM     12  C   UNL     1      -7.726  -2.850   0.052  0.00  0.00    +0.018 A 
ATOM     13  C   UNL     1      -8.445  -3.647   0.917  0.00  0.00    +0.008 A 
ATOM     14  C   UNL     1      -7.844  -4.115   2.040  0.00  0.00    +0.046 A 
ATOM     15  S   UNL     1      -6.201  -3.431   1.898  0.00  0.00    -0.095 S 
ENDBRANCH   7  11
ENDBRANCH   3   5
BRANCH   1  17
ATOM     16  C   UNL     1      -0.019   1.526   0.010  0.00  0.00    +0.022 C 
ATOM     17  C   UNL     1       0.002  -0.004   0.002  0.00  0.00    +0.102 C 
BRANCH  17  18
ATOM     18  C   UNL     1       0.731  -0.503   1.223  0.00  0.00    -0.035 A 
ATOM     19  C   UNL     1       0.250  -0.178   2.490  0.00  0.00    +0.005 A 
ATOM     20  C   UNL     1       0.884  -0.613   3.613  0.00  0.00    +0.009 A 
ATOM     21  C   UNL     1       2.042  -1.402   3.496  0.00  0.00    -0.014 A 
ATOM     22  C   UNL     1       2.723  -1.869   4.633  0.00  0.00    +0.054 A 
ATOM     23  C   UNL     1       3.844  -2.634   4.481  0.00  0.00    +0.121 A 
ATOM     24  C   UNL     1       4.325  -2.958   3.209  0.00  0.00    +0.046 A 
ATOM     25  C   UNL     1       3.689  -2.521   2.089  0.00  0.00    +0.012 A 
ATOM     26  C   UNL     1       2.531  -1.733   2.208  0.00  0.00    -0.017 A 
ATOM     27  C   UNL     1       1.846  -1.269   1.071  0.00  0.00    +0.013 A 
BRANCH  23  28
ATOM     28  O   UNL     1       4.502  -3.085   5.582  0.00  0.00    -0.495 OA
ATOM     29  C   UNL     1       5.668  -3.880   5.360  0.00  0.00    +0.277 C 
ENDBRANCH  23  28
ENDBRANCH  17  18
ENDBRANCH   1  17
TORSDOF 5
