REMARK  Name = ZINC38903005
REMARK  5 active torsions:
REMARK  status: ('A' for Active; 'I' for Inactive)
REMARK    1  A    between atoms: C_1  and  O_2
REMARK    2  A    between atoms: O_2  and  C_3
REMARK    3  A    between atoms: C_6  and  C_9
REMARK    4  A    between atoms: C_9  and  C_10
REMARK    5  A    between atoms: N_16  and  N_17
REMARK                            x       y       z     vdW  Elec       q    Type
REMARK                         _______ _______ _______ _____ _____    ______ ____
ROOT
ATOM      1  C   UNL     1      -4.981  -2.629   0.035  0.00  0.00    +0.084 C 
ENDROOT
BRANCH   1   5
ATOM      2  C   UNL     1      -1.200  -0.637   0.010  0.00  0.00    +0.120 A 
ATOM      3  C   UNL     1      -2.375   0.101   0.019  0.00  0.00    +0.046 A 
ATOM      4  C   UNL     1      -3.596  -0.545   0.027  0.00  0.00    +0.007 A 
ATOM      5  C   UNL     1      -3.648  -1.927   0.026  0.00  0.00    -0.043 A 
ATOM      6  C   UNL     1      -2.479  -2.665   0.017  0.00  0.00    +0.007 A 
ATOM      7  C   UNL     1      -1.255  -2.024   0.003  0.00  0.00    +0.046 A 
BRANCH   2   9
ATOM      8  C   UNL     1      -0.017   1.425   0.010  0.00  0.00    +0.277 C 
ATOM      9  O   UNL     1       0.002  -0.004   0.002  0.00  0.00    -0.495 OA
ENDBRANCH   2   9
ENDBRANCH   1   5
BRANCH   1  10
ATOM     10  C   UNL     1      -5.443  -2.865  -1.405  0.00  0.00    +0.232 C 
ATOM     11  N   UNL     1      -5.665  -1.584  -2.094  0.00  0.00    -0.172 NA
ATOM     12  N   UNL     1      -6.853  -1.531  -2.421  0.00  0.00    -0.097 NA
ATOM     13  C   UNL     1      -7.561  -2.610  -2.066  0.00  0.00    +0.192 C 
ATOM     14  S   UNL     1      -9.230  -2.829  -2.380  0.00  0.00    -0.014 S 
ATOM     15  N   UNL     1      -6.772  -3.506  -1.425  0.00  0.00    -0.222 N 
BRANCH  15  16
ATOM     16  N   UNL     1      -7.124  -4.723  -0.915  0.00  0.00    -0.250 NA
ATOM     17  H   UNL     1      -8.103  -4.911  -1.071  0.00  0.00    +0.141 HD
ATOM     18  H   UNL     1      -6.549  -5.457  -1.302  0.00  0.00    +0.141 HD
ENDBRANCH  15  16
ENDBRANCH   1  10
TORSDOF 4
