REMARK  Name = ZINC08816373
REMARK  7 active torsions:
REMARK  status: ('A' for Active; 'I' for Inactive)
REMARK    1  A    between atoms: C_1  and  C_2
REMARK    2  A    between atoms: C_5  and  N_8
REMARK    3  A    between atoms: C_9  and  C_11
REMARK    4  A    between atoms: C_11  and  N_12
REMARK    5  A    between atoms: C_16  and  C_17
REMARK    6  A    between atoms: C_20  and  C_22
REMARK    7  A    between atoms: C_24  and  C_29
REMARK                            x       y       z     vdW  Elec       q    Type
REMARK                         _______ _______ _______ _____ _____    ______ ____
ROOT
ATOM      1  N   UNL     1       0.577   7.730   4.279  0.00  0.00    -0.219 N 
ATOM      2  C   UNL     1      -0.261   7.807   3.260  0.00  0.00    +0.261 C 
ATOM      3  O   UNL     1      -0.671   6.802   2.708  0.00  0.00    -0.269 OA
ATOM      4  C   UNL     1      -0.666   9.105   2.821  0.00  0.00    +0.083 C 
ATOM      5  C   UNL     1      -1.505   9.454   1.804  0.00  0.00    +0.066 C 
ATOM      6  S   UNL     1       0.220  10.146   3.973  0.00  0.00    -0.026 S 
ATOM      7  C   UNL     1       1.026   8.846   4.896  0.00  0.00    +0.286 C 
ATOM      8  O   UNL     1       1.787   8.940   5.841  0.00  0.00    -0.262 OA
ENDROOT
BRANCH   5   9
ATOM      9  C   UNL     1      -2.289   8.469   1.165  0.00  0.00    +0.130 A 
ATOM     10  C   UNL     1      -3.081   8.659   0.046  0.00  0.00    +0.050 A 
ATOM     11  C   UNL     1      -3.668   7.426  -0.245  0.00  0.00    +0.050 A 
ATOM     12  C   UNL     1      -3.229   6.538   0.697  0.00  0.00    +0.137 A 
ATOM     13  O   UNL     1      -2.397   7.177   1.538  0.00  0.00    -0.455 OA
BRANCH  12  14
ATOM     14  C   UNL     1      -3.603   5.112   0.774  0.00  0.00    +0.036 A 
ATOM     15  C   UNL     1      -2.614   4.136   0.893  0.00  0.00    +0.028 A 
ATOM     16  C   UNL     1      -2.976   2.792   0.966  0.00  0.00    +0.064 A 
ATOM     17  C   UNL     1      -4.325   2.430   0.913  0.00  0.00    +0.016 A 
ATOM     18  C   UNL     1      -5.300   3.401   0.800  0.00  0.00    +0.021 A 
ATOM     19  C   UNL     1      -4.950   4.736   0.728  0.00  0.00    +0.052 A 
ATOM     20 CL   UNL     1      -6.183   5.948   0.579  0.00  0.00    -0.083 Cl
BRANCH  16  21
ATOM     21  C   UNL     1      -1.935   1.752   1.093  0.00  0.00    +0.387 C 
ATOM     22  O   UNL     1      -0.762   2.067   1.128  0.00  0.00    -0.241 OA
ATOM     23  O   UNL     1      -2.286   0.453   1.163  0.00  0.00    -0.241 OA
ENDBRANCH  16  21
ENDBRANCH  12  14
ENDBRANCH   5   9
BRANCH   1  24
ATOM     24  C   UNL     1       1.018   6.416   4.753  0.00  0.00    +0.213 C 
BRANCH  24  26
ATOM     25  N   UNL     1       0.274   4.719   6.392  0.00  0.00    -0.284 N 
ATOM     26  C   UNL     1       0.066   5.917   5.809  0.00  0.00    +0.235 C 
ATOM     27  O   UNL     1      -0.887   6.592   6.134  0.00  0.00    -0.274 OA
ATOM     28  H   UNL     1       1.079   4.216   6.193  0.00  0.00    +0.155 HD
BRANCH  25  33
ATOM     29  C   UNL     1      -3.560   2.620  10.008  0.00  0.00    +0.044 C 
ATOM     30  C   UNL     1      -2.542   3.178   9.047  0.00  0.00    -0.050 A 
ATOM     31  C   UNL     1      -2.953   3.951   7.977  0.00  0.00    +0.005 A 
ATOM     32  C   UNL     1      -2.022   4.464   7.095  0.00  0.00    +0.023 A 
ATOM     33  C   UNL     1      -0.672   4.202   7.284  0.00  0.00    +0.033 A 
ATOM     34  C   UNL     1      -0.262   3.420   8.356  0.00  0.00    +0.023 A 
ATOM     35  C   UNL     1      -1.197   2.915   9.237  0.00  0.00    +0.005 A 
ENDBRANCH  25  33
ENDBRANCH  24  26
ENDBRANCH   1  24
TORSDOF 6
