REMARK  Name = ZINC21141756
REMARK  13 active torsions:
REMARK  status: ('A' for Active; 'I' for Inactive)
REMARK    1  A    between atoms: C_1  and  C_2
REMARK    2  A    between atoms: C_8  and  N_10
REMARK    3  A    between atoms: C_11  and  C_13
REMARK    4  A    between atoms: C_13  and  C_15
REMARK    5  A    between atoms: C_13  and  O_16
REMARK    6  A    between atoms: O_16  and  C_17
REMARK    7  A    between atoms: C_17  and  C_19
REMARK    8  A    between atoms: C_23  and  S_25
REMARK    9  A    between atoms: S_25  and  N_28
REMARK   10  A    between atoms: N_28  and  C_29
REMARK   11  A    between atoms: C_29  and  C_30
REMARK   12  A    between atoms: C_29  and  C_31
REMARK   13  A    between atoms: C_29  and  C_32
REMARK                            x       y       z     vdW  Elec       q    Type
REMARK                         _______ _______ _______ _____ _____    ______ ____
ROOT
ATOM      1  C   UNL     1      -4.531   6.346  -2.380  0.00  0.00    +0.340 C 
ATOM      2  O   UNL     1      -3.906   6.763  -1.425  0.00  0.00    -0.245 OA
ENDROOT
BRANCH   1   3
ATOM      3  C   UNL     1      -5.580   7.182  -2.997  0.00  0.00    +0.061 A 
ATOM      4  C   UNL     1      -6.297   6.708  -4.098  0.00  0.00    +0.016 A 
ATOM      5  C   UNL     1      -7.279   7.491  -4.667  0.00  0.00    +0.023 A 
ATOM      6  C   UNL     1      -7.548   8.750  -4.155  0.00  0.00    +0.067 A 
ATOM      7  C   UNL     1      -6.838   9.228  -3.066  0.00  0.00    +0.124 A 
ATOM      8  C   UNL     1      -5.857   8.452  -2.485  0.00  0.00    +0.045 A 
ATOM      9 CL   UNL     1      -8.781   9.733  -4.881  0.00  0.00    -0.082 Cl
BRANCH   7  10
ATOM     10  S   UNL     1      -7.188  10.830  -2.421  0.00  0.00    +0.060 S 
ATOM     11  O   UNL     1      -8.597  10.898  -2.247  0.00  0.00    -0.153 OA
ATOM     12  O   UNL     1      -6.277  11.046  -1.353  0.00  0.00    -0.153 OA
BRANCH  10  13
ATOM     13  N   UNL     1      -6.804  11.927  -3.601  0.00  0.00    -0.185 NA
ATOM     14  H   UNL     1      -7.565  12.649  -3.932  0.00  0.00    +0.149 HD
BRANCH  13  15
ATOM     15  C   UNL     1      -5.414  12.076  -4.037  0.00  0.00    +0.032 C 
ATOM     16  C   UNL     1      -4.950  10.786  -4.715  0.00  0.00    +0.029 C 
ATOM     17  C   UNL     1      -5.313  13.238  -5.029  0.00  0.00    +0.029 C 
ATOM     18  C   UNL     1      -4.527  12.363  -2.824  0.00  0.00    +0.029 C 
ENDBRANCH  13  15
ENDBRANCH  10  13
ENDBRANCH   7  10
ENDBRANCH   1   3
BRANCH   1  19
ATOM     19  O   UNL     1      -4.267   5.122  -2.876  0.00  0.00    -0.449 OA
BRANCH  19  20
ATOM     20  C   UNL     1      -3.222   4.356  -2.219  0.00  0.00    +0.259 C 
ATOM     21  C   UNL     1      -1.876   4.660  -2.879  0.00  0.00    +0.062 C 
BRANCH  20  23
ATOM     22  N   UNL     1      -2.741   1.981  -1.722  0.00  0.00    -0.309 N 
ATOM     23  C   UNL     1      -3.523   2.885  -2.345  0.00  0.00    +0.254 C 
ATOM     24  O   UNL     1      -4.470   2.514  -3.007  0.00  0.00    -0.272 OA
ATOM     25  H   UNL     1      -1.883   2.318  -1.122  0.00  0.00    +0.149 HD
BRANCH  22  32
ATOM     26  C   UNL     1      -3.107   0.353   0.645  0.00  0.00    +0.009 C 
ATOM     27  C   UNL     1      -2.466  -0.191  -0.633  0.00  0.00    +0.006 C 
ATOM     28  C   UNL     1      -0.951   0.016  -0.572  0.00  0.00    +0.005 C 
ATOM     29  C   UNL     1      -0.310  -0.528  -1.850  0.00  0.00    +0.000 C 
ATOM     30  C   UNL     1      -0.878   0.214  -3.062  0.00  0.00    +0.002 C 
ATOM     31  C   UNL     1      -2.393   0.007  -3.123  0.00  0.00    +0.022 C 
ATOM     32  C   UNL     1      -3.034   0.551  -1.844  0.00  0.00    +0.076 C 
ENDBRANCH  22  32
ENDBRANCH  20  23
ENDBRANCH  19  20
ENDBRANCH   1  19
TORSDOF 8
