REMARK  Name = ZINC39686566
REMARK  9 active torsions:
REMARK  status: ('A' for Active; 'I' for Inactive)
REMARK    1  A    between atoms: C_1  and  C_2
REMARK    2  A    between atoms: C_4  and  C_9
REMARK    3  A    between atoms: C_13  and  C_22
REMARK    4  A    between atoms: N_24  and  C_25
REMARK    5  A    between atoms: C_25  and  C_27
REMARK    6  A    between atoms: C_25  and  C_28
REMARK    7  A    between atoms: C_28  and  C_29
REMARK    8  A    between atoms: C_34  and  O_35
REMARK    9  A    between atoms: O_35  and  C_36
REMARK                            x       y       z     vdW  Elec       q    Type
REMARK                         _______ _______ _______ _____ _____    ______ ____
ROOT
ATOM      1  C   UNL     1      -0.079  -2.755  -2.218  0.00  0.00    +0.247 C 
ATOM      2  O   UNL     1      -0.116  -2.099  -3.240  0.00  0.00    -0.270 OA
ATOM      3  N   UNL     1       0.111  -4.088  -2.280  0.00  0.00    -0.296 N 
ATOM      4  C   UNL     1       0.056  -5.066  -1.168  0.00  0.00    +0.121 C 
ATOM      5  C   UNL     1      -0.645  -6.304  -1.770  0.00  0.00    +0.100 C 
ATOM      6  C   UNL     1      -0.400  -6.195  -3.285  0.00  0.00    -0.004 C 
ATOM      7  C   UNL     1       0.415  -4.908  -3.477  0.00  0.00    +0.115 C 
ATOM      8  C   UNL     1       0.391  -7.402  -3.780  0.00  0.00    -0.010 C 
ATOM      9  C   UNL     1       0.571  -7.300  -5.297  0.00  0.00    -0.082 C 
ATOM     10  N   UNL     1      -0.744  -7.252  -5.947  0.00  0.00    +0.379 N 
ATOM     11  C   UNL     1      -1.461  -6.039  -5.535  0.00  0.00    -0.082 C 
ATOM     12  C   UNL     1      -1.728  -6.088  -4.028  0.00  0.00    -0.010 C 
ATOM     13  H   UNL     1      -0.623  -7.246  -6.948  0.00  0.00    -0.086 HD
ATOM     14  H   UNL     1      -1.280  -8.064  -5.679  0.00  0.00    -0.086 HD
ENDROOT
BRANCH   1  18
ATOM     15  C   UNL     1      -1.687   1.113   0.492  0.00  0.00    +0.045 C 
ATOM     16  C   UNL     1      -1.014  -0.232   0.401  0.00  0.00    -0.036 A 
ATOM     17  C   UNL     1      -0.865  -0.846  -0.825  0.00  0.00    +0.017 A 
ATOM     18  C   UNL     1      -0.241  -2.092  -0.907  0.00  0.00    +0.037 A 
ATOM     19  C   UNL     1       0.227  -2.710   0.254  0.00  0.00    +0.014 A 
ATOM     20  C   UNL     1       0.072  -2.086   1.474  0.00  0.00    +0.016 A 
ATOM     21  C   UNL     1      -0.542  -0.847   1.548  0.00  0.00    +0.021 A 
ATOM     22 BR   UNL     1      -0.744   0.005   3.225  0.00  0.00    -0.050 Br
ENDBRANCH   1  18
BRANCH   5  23
ATOM     23  C   UNL     1      -0.034  -7.569  -1.227  0.00  0.00    +0.218 C 
ATOM     24  O   UNL     1       1.147  -7.603  -0.952  0.00  0.00    -0.275 OA
ATOM     25  N   UNL     1      -0.799  -8.664  -1.047  0.00  0.00    -0.312 N 
ATOM     26  H   UNL     1      -1.743  -8.637  -1.266  0.00  0.00    +0.149 HD
BRANCH  25  27
ATOM     27  C   UNL     1      -0.205  -9.895  -0.519  0.00  0.00    +0.074 C 
ATOM     28  C   UNL     1      -0.185  -9.836   1.010  0.00  0.00    +0.028 C 
BRANCH  27  29
ATOM     29  C   UNL     1      -1.034 -11.097  -0.973  0.00  0.00    +0.060 C 
BRANCH  29  30
ATOM     30  C   UNL     1      -0.953 -11.227  -2.472  0.00  0.00    -0.004 A 
ATOM     31  C   UNL     1      -1.931 -10.663  -3.269  0.00  0.00    +0.007 A 
ATOM     32  C   UNL     1      -1.857 -10.781  -4.644  0.00  0.00    +0.000 A 
ATOM     33  C   UNL     1      -0.804 -11.464  -5.226  0.00  0.00    +0.004 A 
ATOM     34  C   UNL     1       0.176 -12.029  -4.434  0.00  0.00    +0.046 A 
ATOM     35  C   UNL     1       0.107 -11.907  -3.053  0.00  0.00    +0.123 A 
BRANCH  35  36
ATOM     36  O   UNL     1       1.073 -12.457  -2.272  0.00  0.00    -0.495 OA
ATOM     37  C   UNL     1       2.134 -13.143  -2.939  0.00  0.00    +0.277 C 
ENDBRANCH  35  36
ENDBRANCH  29  30
ENDBRANCH  27  29
ENDBRANCH  25  27
ENDBRANCH   5  23
TORSDOF 6
