REMARK  Name = ZINC67380921
REMARK  7 active torsions:
REMARK  status: ('A' for Active; 'I' for Inactive)
REMARK    1  A    between atoms: C_1  and  C_2
REMARK    2  A    between atoms: C_2  and  C_4
REMARK    3  A    between atoms: C_2  and  N_15
REMARK    4  A    between atoms: C_8  and  S_10
REMARK    5  A    between atoms: S_10  and  N_13
REMARK    6  A    between atoms: N_13  and  C_14
REMARK    7  A    between atoms: N_18  and  C_19
REMARK                            x       y       z     vdW  Elec       q    Type
REMARK                         _______ _______ _______ _____ _____    ______ ____
ROOT
ATOM      1  N   UNL     1      -1.372  -0.511   0.012  0.00  0.00    -0.293 N 
ATOM      2  C   UNL     1      -2.051  -0.643  -1.145  0.00  0.00    +0.300 C 
ATOM      3  O   UNL     1      -1.522  -0.341  -2.197  0.00  0.00    -0.253 OA
ATOM      4  N   UNL     1      -3.315  -1.109  -1.135  0.00  0.00    -0.294 N 
ATOM      5  H   UNL     1      -1.794  -0.752   0.852  0.00  0.00    +0.151 HD
ATOM      6  H   UNL     1      -3.737  -1.350  -0.295  0.00  0.00    +0.151 HD
ENDROOT
BRANCH   4   7
ATOM      7  C   UNL     1      -4.053  -1.252  -2.393  0.00  0.00    +0.037 C 
ATOM      8  C   UNL     1      -4.168   0.113  -3.075  0.00  0.00    +0.029 C 
ATOM      9  C   UNL     1      -4.938  -0.037  -4.388  0.00  0.00    -0.008 C 
ATOM     10  C   UNL     1      -6.338  -0.582  -4.099  0.00  0.00    +0.007 C 
ATOM     11  C   UNL     1      -6.223  -1.947  -3.417  0.00  0.00    -0.008 C 
ATOM     12  C   UNL     1      -5.453  -1.797  -2.104  0.00  0.00    +0.029 C 
ATOM     13  C   UNL     1      -5.479  -2.916  -4.338  0.00  0.00    +0.007 C 
ATOM     14  C   UNL     1      -4.079  -2.371  -4.627  0.00  0.00    -0.008 C 
ATOM     15  C   UNL     1      -4.193  -1.006  -5.309  0.00  0.00    +0.007 C 
ATOM     16  C   UNL     1      -3.308  -2.221  -3.313  0.00  0.00    +0.029 C 
ENDBRANCH   4   7
BRANCH   1  18
ATOM     17  C   UNL     1      -0.019   1.526   0.010  0.00  0.00    +0.033 C 
ATOM     18  C   UNL     1       0.002  -0.004   0.002  0.00  0.00    +0.102 C 
BRANCH  18  19
ATOM     19  C   UNL     1       0.731  -0.503   1.223  0.00  0.00    -0.026 A 
ATOM     20  C   UNL     1       0.081  -0.558   2.442  0.00  0.00    +0.005 A 
ATOM     21  C   UNL     1       0.749  -1.016   3.562  0.00  0.00    +0.002 A 
ATOM     22  C   UNL     1       2.068  -1.420   3.463  0.00  0.00    +0.028 A 
ATOM     23  C   UNL     1       2.718  -1.365   2.244  0.00  0.00    +0.106 A 
ATOM     24  C   UNL     1       2.048  -0.911   1.123  0.00  0.00    +0.034 A 
BRANCH  23  25
ATOM     25  S   UNL     1       4.399  -1.879   2.118  0.00  0.00    +0.058 S 
ATOM     26  O   UNL     1       4.941  -1.217   0.984  0.00  0.00    -0.153 OA
ATOM     27  O   UNL     1       4.961  -1.749   3.417  0.00  0.00    -0.153 OA
BRANCH  25  28
ATOM     28  N   UNL     1       4.391  -3.496   1.764  0.00  0.00    -0.193 NA
ATOM     29  C   UNL     1       3.843  -3.965   0.489  0.00  0.00    +0.127 C 
ATOM     30  H   UNL     1       4.750  -4.134   2.401  0.00  0.00    +0.148 HD
ENDBRANCH  25  28
ENDBRANCH  23  25
ENDBRANCH  18  19
ENDBRANCH   1  18
TORSDOF 5
