REMARK  Name = ZINC45258504
REMARK  9 active torsions:
REMARK  status: ('A' for Active; 'I' for Inactive)
REMARK    1  A    between atoms: C_1  and  C_2
REMARK    2  A    between atoms: C_2  and  C_32
REMARK    3  A    between atoms: C_5  and  C_11
REMARK    4  A    between atoms: C_11  and  N_12
REMARK    5  A    between atoms: C_23  and  C_25
REMARK    6  A    between atoms: C_28  and  N_31
REMARK    7  A    between atoms: C_32  and  C_33
REMARK    8  A    between atoms: C_32  and  C_34
REMARK    9  A    between atoms: C_32  and  C_35
REMARK                            x       y       z     vdW  Elec       q    Type
REMARK                         _______ _______ _______ _____ _____    ______ ____
ROOT
ATOM      1  N   UNL     1       3.837  -0.118  -4.671  0.00  0.00    +0.382 N 
ATOM      2  C   UNL     1       2.775   0.594  -3.951  0.00  0.00    -0.078 C 
ATOM      3  C   UNL     1       2.679   2.031  -4.466  0.00  0.00    -0.012 C 
ATOM      4  C   UNL     1       2.360   2.010  -5.963  0.00  0.00    -0.030 C 
ATOM      5  C   UNL     1       3.435   1.203  -6.695  0.00  0.00    -0.012 C 
ATOM      6  C   UNL     1       3.503  -0.204  -6.097  0.00  0.00    -0.078 C 
ATOM      7  C   UNL     1       2.340   3.442  -6.502  0.00  0.00    +0.026 C 
ATOM      8  C   UNL     1       1.287   4.255  -5.742  0.00  0.00    +0.108 C 
ATOM      9  N   UNL     1      -0.003   3.558  -5.831  0.00  0.00    -0.296 N 
ATOM     10  C   UNL     1      -0.074   2.148  -5.421  0.00  0.00    +0.108 C 
ATOM     11  C   UNL     1       0.994   1.359  -6.184  0.00  0.00    +0.026 C 
ATOM     12  C   UNL     1      -1.101   4.198  -6.280  0.00  0.00    +0.265 C 
ATOM     13  O   UNL     1      -2.167   3.616  -6.329  0.00  0.00    -0.268 OA
ATOM     14  H   UNL     1       4.708   0.381  -4.560  0.00  0.00    -0.081 HD
ENDROOT
BRANCH  12  15
ATOM     15  C   UNL     1      -1.008   5.609  -6.713  0.00  0.00    +0.126 A 
ATOM     16  C   UNL     1      -1.947   6.118  -7.611  0.00  0.00    +0.035 A 
ATOM     17  C   UNL     1      -1.851   7.438  -8.009  0.00  0.00    +0.026 A 
ATOM     18  C   UNL     1      -0.812   8.213  -7.494  0.00  0.00    +0.043 A 
ATOM     19  C   UNL     1       0.090   7.635  -6.601  0.00  0.00    +0.134 A 
ATOM     20  N   UNL     1      -0.034   6.378  -6.240  0.00  0.00    -0.249 NA
BRANCH  18  21
ATOM     21  N   UNL     1      -0.676   9.546  -7.867  0.00  0.00    -0.357 N 
ATOM     22  H   UNL     1      -1.307   9.942  -8.489  0.00  0.00    +0.142 HD
ATOM     23  H   UNL     1       0.049  10.079  -7.506  0.00  0.00    +0.142 HD
ENDBRANCH  18  21
ENDBRANCH  12  15
BRANCH   1  24
ATOM     24  C   UNL     1       3.978  -1.472  -4.119  0.00  0.00    -0.043 C 
BRANCH  24  29
ATOM     25  C   UNL     1       8.815  -2.338  -2.708  0.00  0.00    +0.056 C 
ATOM     26  C   UNL     1       8.249  -0.918  -2.626  0.00  0.00    +0.117 C 
ATOM     27  C   UNL     1       6.995  -0.775  -3.521  0.00  0.00    +0.087 C 
ATOM     28  C   UNL     1       5.877  -1.079  -2.543  0.00  0.00    -0.001 A 
ATOM     29  C   UNL     1       4.548  -1.391  -2.727  0.00  0.00    -0.057 A 
ATOM     30  C   UNL     1       3.737  -1.632  -1.632  0.00  0.00    +0.002 A 
ATOM     31  C   UNL     1       4.266  -1.557  -0.356  0.00  0.00    +0.004 A 
ATOM     32  C   UNL     1       5.595  -1.240  -0.170  0.00  0.00    +0.046 A 
ATOM     33  C   UNL     1       6.417  -0.993  -1.267  0.00  0.00    +0.125 A 
ATOM     34  O   UNL     1       7.734  -0.650  -1.311  0.00  0.00    -0.485 OA
BRANCH  26  35
ATOM     35  C   UNL     1       9.315   0.110  -3.011  0.00  0.00    +0.002 C 
ATOM     36  C   UNL     1       9.772  -0.143  -4.449  0.00  0.00    +0.014 C 
ATOM     37  C   UNL     1       8.726   1.518  -2.903  0.00  0.00    +0.014 C 
ATOM     38  C   UNL     1      10.511  -0.017  -2.066  0.00  0.00    +0.014 C 
ENDBRANCH  26  35
ENDBRANCH  24  29
ENDBRANCH   1  24
TORSDOF 5
