REMARK  Name = ZINC13219376
REMARK  15 active torsions:
REMARK  status: ('A' for Active; 'I' for Inactive)
REMARK    1  A    between atoms: C_1  and  C_2
REMARK    2  A    between atoms: C_2  and  C_3
REMARK    3  A    between atoms: C_2  and  C_4
REMARK    4  A    between atoms: C_7  and  C_10
REMARK    5  A    between atoms: C_10  and  C_12
REMARK    6  A    between atoms: C_10  and  N_15
REMARK    7  A    between atoms: C_12  and  C_13
REMARK    8  A    between atoms: C_12  and  C_14
REMARK    9  A    between atoms: C_16  and  C_18
REMARK   10  A    between atoms: C_18  and  S_19
REMARK   11  A    between atoms: S_19  and  C_20
REMARK   12  A    between atoms: C_23  and  C_29
REMARK   13  A    between atoms: N_24  and  C_25
REMARK   14  A    between atoms: C_25  and  C_26
REMARK   15  A    between atoms: C_26  and  C_27
REMARK                            x       y       z     vdW  Elec       q    Type
REMARK                         _______ _______ _______ _____ _____    ______ ____
ROOT
ATOM      1  N   UNL     1       3.356  11.976   0.023  0.00  0.00    -0.308 N 
ATOM      2  C   UNL     1       3.730  10.699  -0.195  0.00  0.00    +0.224 C 
ATOM      3  O   UNL     1       4.872  10.449  -0.518  0.00  0.00    -0.275 OA
ATOM      4  H   UNL     1       2.443  12.176   0.282  0.00  0.00    +0.149 HD
ENDROOT
BRANCH   1   5
ATOM      5  C   UNL     1       4.329  13.060  -0.130  0.00  0.00    +0.106 C 
BRANCH   5   9
ATOM      6  C   UNL     1       2.275  16.700  -1.015  0.00  0.00    -0.045 A 
ATOM      7  C   UNL     1       3.462  16.402  -1.658  0.00  0.00    +0.004 A 
ATOM      8  C   UNL     1       4.126  15.224  -1.372  0.00  0.00    +0.006 A 
ATOM      9  C   UNL     1       3.604  14.344  -0.442  0.00  0.00    -0.027 A 
ATOM     10  C   UNL     1       2.415  14.640   0.197  0.00  0.00    +0.006 A 
ATOM     11  C   UNL     1       1.753  15.820  -0.086  0.00  0.00    +0.004 A 
BRANCH   6  13
ATOM     12  C   UNL     1       0.154  17.662  -1.866  0.00  0.00    +0.012 C 
ATOM     13  C   UNL     1       1.550  17.983  -1.328  0.00  0.00    +0.013 C 
ATOM     14  C   UNL     1       1.426  18.822  -0.055  0.00  0.00    +0.012 C 
ENDBRANCH   6  13
ENDBRANCH   5   9
BRANCH   5  15
ATOM     15  C   UNL     1       5.119  13.224   1.171  0.00  0.00    +0.008 C 
ATOM     16  C   UNL     1       5.854  11.920   1.488  0.00  0.00    +0.009 C 
ATOM     17  C   UNL     1       6.135  14.357   1.011  0.00  0.00    +0.009 C 
ENDBRANCH   5  15
ENDBRANCH   1   5
BRANCH   2  18
ATOM     18  C   UNL     1       2.730   9.583  -0.038  0.00  0.00    +0.173 C 
BRANCH  18  19
ATOM     19  S   UNL     1       3.530   8.000  -0.397  0.00  0.00    -0.077 S 
BRANCH  19  20
ATOM     20  C   UNL     1       2.172   6.906  -0.144  0.00  0.00    +0.192 A 
ATOM     21  N   UNL     1       0.953   7.247   0.208  0.00  0.00    -0.122 NA
ATOM     22  N   UNL     1       0.212   6.201   0.304  0.00  0.00    -0.128 NA
ATOM     23  C   UNL     1       0.914   5.126   0.019  0.00  0.00    +0.172 A 
ATOM     24  N   UNL     1       2.193   5.545  -0.272  0.00  0.00    -0.301 N 
BRANCH  23  25
ATOM     25  C   UNL     1       0.426   3.737   0.017  0.00  0.00    +0.056 A 
ATOM     26  C   UNL     1      -0.866   3.275   0.026  0.00  0.00    +0.019 A 
ATOM     27  C   UNL     1      -1.081   1.915   0.017  0.00  0.00    +0.008 A 
ATOM     28  C   UNL     1      -0.013   1.076   0.008  0.00  0.00    +0.046 A 
ATOM     29  S   UNL     1       1.361   2.216   0.001  0.00  0.00    -0.094 S 
ENDBRANCH  23  25
BRANCH  24  30
ATOM     30  C   UNL     1       3.337   4.708  -0.643  0.00  0.00    +0.137 C 
BRANCH  30  31
ATOM     31  C   UNL     1       3.376   4.544  -2.164  0.00  0.00    +0.147 C 
BRANCH  31  32
ATOM     32  C   UNL     1       4.553   3.682  -2.545  0.00  0.00    +0.358 C 
ATOM     33  O   UNL     1       5.284   3.245  -1.689  0.00  0.00    -0.246 OA
ATOM     34  O   UNL     1       4.788   3.401  -3.836  0.00  0.00    -0.246 OA
ENDBRANCH  31  32
ENDBRANCH  30  31
ENDBRANCH  24  30
ENDBRANCH  19  20
ENDBRANCH  18  19
ENDBRANCH   2  18
TORSDOF 11
