REMARK  Name = ZINC36017385
REMARK  14 active torsions:
REMARK  status: ('A' for Active; 'I' for Inactive)
REMARK    1  A    between atoms: C_1  and  C_2
REMARK    2  A    between atoms: C_2  and  C_3
REMARK    3  A    between atoms: C_3  and  N_4
REMARK    4  A    between atoms: N_11  and  C_14
REMARK    5  A    between atoms: C_14  and  C_15
REMARK    6  A    between atoms: C_16  and  C_33
REMARK    7  A    between atoms: C_17  and  C_25
REMARK    8  A    between atoms: N_22  and  C_23
REMARK    9  A    between atoms: C_23  and  C_24
REMARK   10  A    between atoms: C_27  and  C_32
REMARK   11  A    between atoms: C_30  and  C_31
REMARK   12  A    between atoms: C_33  and  O_35
REMARK   13  A    between atoms: O_35  and  C_36
REMARK   14  A    between atoms: C_36  and  C_37
REMARK                            x       y       z     vdW  Elec       q    Type
REMARK                         _______ _______ _______ _____ _____    ______ ____
ROOT
ATOM      1  C   UNL     1      -5.303  -7.096   3.176  0.00  0.00    +0.010 C 
ATOM      2  C   UNL     1      -5.711  -8.355   3.443  0.00  0.00    +0.076 C 
ATOM      3  C   UNL     1      -7.157  -8.703   3.153  0.00  0.00    +0.144 C 
ATOM      4  N   UNL     1      -8.004  -7.633   2.600  0.00  0.00    -0.288 N 
ATOM      5  C   UNL     1      -7.450  -6.422   2.388  0.00  0.00    +0.307 C 
ATOM      6  O   UNL     1      -8.140  -5.532   1.932  0.00  0.00    -0.252 OA
ATOM      7  N   UNL     1      -6.165  -6.167   2.668  0.00  0.00    -0.261 N 
ATOM      8  H   UNL     1      -8.937  -7.794   2.394  0.00  0.00    +0.151 HD
ENDROOT
BRANCH   3   9
ATOM      9  C   UNL     1      -7.172  -9.855   2.181  0.00  0.00    -0.019 A 
ATOM     10  C   UNL     1      -7.142  -9.611   0.820  0.00  0.00    +0.009 A 
ATOM     11  C   UNL     1      -7.155 -10.667  -0.071  0.00  0.00    -0.050 A 
ATOM     12  C   UNL     1      -7.198 -11.967   0.397  0.00  0.00    +0.003 A 
ATOM     13  C   UNL     1      -7.226 -12.210   1.757  0.00  0.00    +0.004 A 
ATOM     14  C   UNL     1      -7.209 -11.154   2.649  0.00  0.00    -0.045 A 
ATOM     15  C   UNL     1      -7.234 -11.420   4.133  0.00  0.00    +0.044 C 
ATOM     16  C   UNL     1      -7.125 -10.401  -1.554  0.00  0.00    +0.044 C 
ENDBRANCH   3   9
BRANCH   7  17
ATOM     17  C   UNL     1      -5.656  -4.819   2.408  0.00  0.00    +0.111 C 
ATOM     18  C   UNL     1      -5.233  -4.707   0.942  0.00  0.00    +0.025 C 
ENDBRANCH   7  17
BRANCH   2  19
ATOM     19  C   UNL     1      -4.820  -9.316   3.975  0.00  0.00    +0.339 C 
ATOM     20  O   UNL     1      -4.895  -9.632   5.147  0.00  0.00    -0.245 OA
BRANCH  19  21
ATOM     21  O   UNL     1      -3.887  -9.883   3.182  0.00  0.00    -0.462 OA
BRANCH  21  22
ATOM     22  C   UNL     1      -3.095 -10.925   3.754  0.00  0.00    +0.229 C 
ATOM     23  C   UNL     1      -2.021 -11.357   2.754  0.00  0.00    +0.048 C 
ENDBRANCH  21  22
ENDBRANCH  19  21
ENDBRANCH   2  19
BRANCH   1  24
ATOM     24  C   UNL     1      -3.873  -6.707   3.450  0.00  0.00    -0.026 C 
BRANCH  24  32
ATOM     25  N   UNL     1      -3.177  -7.460   8.736  0.00  0.00    -0.299 N 
ATOM     26  C   UNL     1      -2.533  -6.323   8.402  0.00  0.00    +0.302 C 
ATOM     27  O   UNL     1      -1.460  -6.061   8.909  0.00  0.00    -0.253 OA
ATOM     28  N   UNL     1      -3.080  -5.478   7.506  0.00  0.00    -0.287 N 
ATOM     29  C   UNL     1      -2.298  -4.306   7.064  0.00  0.00    +0.107 C 
ATOM     30  C   UNL     1      -2.448  -4.081   5.548  0.00  0.00    +0.000 C 
ATOM     31  C   UNL     1      -2.439  -5.416   4.837  0.00  0.00    -0.077 C 
ATOM     32  N   UNL     1      -3.813  -5.878   4.662  0.00  0.00    +0.384 N 
ATOM     33  C   UNL     1      -4.332  -6.629   5.740  0.00  0.00    -0.059 C 
ATOM     34  C   UNL     1      -4.412  -5.755   7.007  0.00  0.00    +0.091 C 
ATOM     35  H   UNL     1      -4.065  -7.635   8.388  0.00  0.00    +0.150 HD
ATOM     36  H   UNL     1      -4.405  -5.073   4.521  0.00  0.00    -0.081 HD
BRANCH  25  37
ATOM     37  C   UNL     1      -2.534  -8.430   9.626  0.00  0.00    +0.105 C 
BRANCH  37  39
ATOM     38  C   UNL     1      -2.800 -10.634  10.773  0.00  0.00    +0.005 C 
ATOM     39  C   UNL     1      -3.471  -9.620   9.843  0.00  0.00    +0.015 C 
ENDBRANCH  37  39
ENDBRANCH  25  37
ENDBRANCH  24  32
ENDBRANCH   1  24
TORSDOF 9
