REMARK  Name = ZINC56796251
REMARK  6 active torsions:
REMARK  status: ('A' for Active; 'I' for Inactive)
REMARK    1  A    between atoms: C_1  and  C_2
REMARK    2  A    between atoms: C_5  and  C_8
REMARK    3  A    between atoms: C_8  and  C_10
REMARK    4  A    between atoms: C_8  and  N_16
REMARK    5  A    between atoms: C_22  and  C_25
REMARK    6  A    between atoms: N_27  and  C_28
REMARK                            x       y       z     vdW  Elec       q    Type
REMARK                         _______ _______ _______ _____ _____    ______ ____
ROOT
ATOM      1  N   UNL     1       0.960  -4.758   1.028  0.00  0.00    -0.288 N 
ATOM      2  C   UNL     1       1.534  -5.972   0.919  0.00  0.00    +0.303 C 
ATOM      3  O   UNL     1       1.236  -6.704  -0.005  0.00  0.00    -0.253 OA
ATOM      4  N   UNL     1       2.439  -6.375   1.833  0.00  0.00    -0.286 N 
ATOM      5  C   UNL     1       2.724  -5.552   3.016  0.00  0.00    +0.110 C 
ATOM      6  C   UNL     1       4.234  -5.306   3.093  0.00  0.00    +0.032 C 
ATOM      7  C   UNL     1       4.968  -6.648   3.069  0.00  0.00    +0.078 C 
ATOM      8  C   UNL     1       4.664  -7.375   1.757  0.00  0.00    +0.032 C 
ATOM      9  C   UNL     1       3.154  -7.647   1.668  0.00  0.00    +0.110 C 
ATOM     10  H   UNL     1       1.142  -4.203   1.804  0.00  0.00    +0.151 HD
ENDROOT
BRANCH   7  11
ATOM     11  C   UNL     1       6.453  -6.411   3.178  0.00  0.00    +0.216 C 
ATOM     12  O   UNL     1       6.881  -5.280   3.267  0.00  0.00    -0.276 OA
ATOM     13  N   UNL     1       7.304  -7.456   3.178  0.00  0.00    -0.312 N 
ATOM     14  H   UNL     1       6.961  -8.361   3.107  0.00  0.00    +0.149 HD
BRANCH  13  15
ATOM     15  C   UNL     1       8.747  -7.225   3.284  0.00  0.00    +0.073 C 
ATOM     16  C   UNL     1       9.661  -8.033   2.361  0.00  0.00    +0.024 C 
ATOM     17  C   UNL     1       9.603  -8.358   3.855  0.00  0.00    +0.024 C 
ENDBRANCH  13  15
ENDBRANCH   7  11
BRANCH   1  18
ATOM     18  C   UNL     1       0.061  -4.274  -0.023  0.00  0.00    +0.135 C 
BRANCH  18  23
ATOM     19  C   UNL     1      -0.013   1.504   0.009  0.00  0.00    +0.044 C 
ATOM     20  C   UNL     1       0.007  -0.003   0.001  0.00  0.00    -0.050 A 
ATOM     21  C   UNL     1       0.011  -0.688  -1.200  0.00  0.00    +0.004 A 
ATOM     22  C   UNL     1       0.029  -2.070  -1.208  0.00  0.00    +0.006 A 
ATOM     23  C   UNL     1       0.043  -2.768  -0.015  0.00  0.00    -0.023 A 
ATOM     24  C   UNL     1       0.040  -2.083   1.186  0.00  0.00    +0.006 A 
ATOM     25  C   UNL     1       0.026  -0.701   1.194  0.00  0.00    +0.004 A 
ENDBRANCH  18  23
BRANCH  18  26
ATOM     26  C   UNL     1      -1.331  -4.795   0.228  0.00  0.00    -0.023 A 
ATOM     27  C   UNL     1      -1.831  -4.837   1.516  0.00  0.00    +0.006 A 
ATOM     28  C   UNL     1      -3.108  -5.315   1.745  0.00  0.00    +0.000 A 
ATOM     29  C   UNL     1      -3.884  -5.750   0.687  0.00  0.00    +0.000 A 
ATOM     30  C   UNL     1      -3.384  -5.707  -0.601  0.00  0.00    +0.000 A 
ATOM     31  C   UNL     1      -2.108  -5.225  -0.831  0.00  0.00    +0.006 A 
ENDBRANCH  18  26
ENDBRANCH   1  18
TORSDOF 5
