REMARK  Name = ZINC39721972
REMARK  11 active torsions:
REMARK  status: ('A' for Active; 'I' for Inactive)
REMARK    1  A    between atoms: C_1  and  C_2
REMARK    2  A    between atoms: C_2  and  C_3
REMARK    3  A    between atoms: C_3  and  C_4
REMARK    4  A    between atoms: C_4  and  C_5
REMARK    5  A    between atoms: N_13  and  C_14
REMARK    6  A    between atoms: C_14  and  C_16
REMARK    7  A    between atoms: C_21  and  N_22
REMARK    8  A    between atoms: N_22  and  S_23
REMARK    9  A    between atoms: S_23  and  C_26
REMARK   10  A    between atoms: C_29  and  C_32
REMARK   11  A    between atoms: N_33  and  C_34
REMARK                            x       y       z     vdW  Elec       q    Type
REMARK                         _______ _______ _______ _____ _____    ______ ____
ROOT
ATOM      1  C   UNL     1       8.012  -4.675  -7.069  0.00  0.00    +0.061 A 
ATOM      2  C   UNL     1       7.567  -4.812  -8.386  0.00  0.00    +0.015 A 
ATOM      3  C   UNL     1       8.452  -5.183  -9.375  0.00  0.00    +0.001 A 
ATOM      4  C   UNL     1       9.782  -5.422  -9.071  0.00  0.00    +0.002 A 
ATOM      5  C   UNL     1      10.236  -5.292  -7.774  0.00  0.00    +0.025 A 
ATOM      6  C   UNL     1       9.360  -4.912  -6.765  0.00  0.00    +0.060 A 
ENDROOT
BRANCH   1   7
ATOM      7  C   UNL     1       7.068  -4.278  -6.004  0.00  0.00    +0.271 C 
ATOM      8  O   UNL     1       7.461  -4.155  -4.856  0.00  0.00    -0.268 OA
BRANCH   7  17
ATOM      9  C   UNL     1       1.733  -2.377  -1.875  0.00  0.00    -0.046 A 
ATOM     10  C   UNL     1       0.963  -2.418  -3.026  0.00  0.00    +0.006 A 
ATOM     11  C   UNL     1       1.514  -2.756  -4.240  0.00  0.00    +0.027 A 
ATOM     12  C   UNL     1       2.877  -3.070  -4.343  0.00  0.00    +0.057 A 
ATOM     13  C   UNL     1       3.633  -3.020  -3.163  0.00  0.00    +0.039 A 
ATOM     14  C   UNL     1       3.082  -2.675  -1.951  0.00  0.00    +0.020 A 
ATOM     15  S   UNL     1       5.260  -3.470  -3.707  0.00  0.00    -0.052 S 
ATOM     16  C   UNL     1       4.934  -3.695  -5.341  0.00  0.00    +0.166 A 
ATOM     17  N   UNL     1       5.783  -4.053  -6.298  0.00  0.00    -0.152 NA
ATOM     18  N   UNL     1       3.607  -3.430  -5.459  0.00  0.00    -0.324 N 
ATOM     19  C   UNL     1       2.953  -3.524  -6.767  0.00  0.00    +0.151 C 
BRANCH   9  20
ATOM     20  C   UNL     1       1.110  -2.003  -0.555  0.00  0.00    +0.035 C 
BRANCH  20  21
ATOM     21  C   UNL     1       1.192  -0.488  -0.362  0.00  0.00    +0.004 C 
BRANCH  21  23
ATOM     22  C   UNL     1       0.642   1.407   1.171  0.00  0.00    +0.004 C 
ATOM     23  C   UNL     1       0.559  -0.109   0.978  0.00  0.00    -0.003 C 
ENDBRANCH  21  23
ENDBRANCH  20  21
ENDBRANCH   9  20
ENDBRANCH   7  17
ENDBRANCH   1   7
BRANCH   6  24
ATOM     24  N   UNL     1       9.816  -4.774  -5.459  0.00  0.00    -0.216 N 
ATOM     25  H   UNL     1       9.243  -5.021  -4.717  0.00  0.00    +0.174 HD
BRANCH  24  26
ATOM     26  S   UNL     1      11.338  -4.187  -5.172  0.00  0.00    +0.072 S 
ATOM     27  O   UNL     1      11.457  -4.040  -3.764  0.00  0.00    -0.150 OA
ATOM     28  O   UNL     1      12.232  -4.987  -5.933  0.00  0.00    -0.150 OA
BRANCH  26  29
ATOM     29  C   UNL     1      11.408  -2.564  -5.855  0.00  0.00    +0.109 A 
ATOM     30  C   UNL     1      11.803  -2.383  -7.167  0.00  0.00    +0.029 A 
ATOM     31  C   UNL     1      11.858  -1.110  -7.703  0.00  0.00    +0.005 A 
ATOM     32  C   UNL     1      11.518  -0.018  -6.927  0.00  0.00    -0.050 A 
ATOM     33  C   UNL     1      11.123  -0.199  -5.615  0.00  0.00    +0.005 A 
ATOM     34  C   UNL     1      11.063  -1.473  -5.080  0.00  0.00    +0.029 A 
ATOM     35  C   UNL     1      11.579   1.370  -7.511  0.00  0.00    +0.044 C 
ENDBRANCH  26  29
ENDBRANCH  24  26
ENDBRANCH   6  24
TORSDOF 8
