REMARK  Name = ZINC09342891
REMARK  12 active torsions:
REMARK  status: ('A' for Active; 'I' for Inactive)
REMARK    1  A    between atoms: C_1  and  C_2
REMARK    2  A    between atoms: C_2  and  N_3
REMARK    3  A    between atoms: N_3  and  C_4
REMARK    4  A    between atoms: N_3  and  S_6
REMARK    5  A    between atoms: C_4  and  C_5
REMARK    6  A    between atoms: S_6  and  C_9
REMARK    7  A    between atoms: C_12  and  N_15
REMARK    8  A    between atoms: C_16  and  C_18
REMARK    9  A    between atoms: C_18  and  C_19
REMARK   10  A    between atoms: C_19  and  N_20
REMARK   11  A    between atoms: N_20  and  S_21
REMARK   12  A    between atoms: S_21  and  C_24
REMARK                            x       y       z     vdW  Elec       q    Type
REMARK                         _______ _______ _______ _____ _____    ______ ____
ROOT
ATOM      1  N   UNL     1      -0.011   0.966   0.007  0.00  0.00    -0.285 N 
ATOM      2  C   UNL     1       0.924   1.561  -0.759  0.00  0.00    +0.218 C 
ATOM      3  O   UNL     1       0.631   2.523  -1.436  0.00  0.00    -0.275 OA
ATOM      4  H   UNL     1       0.203   0.151   0.488  0.00  0.00    +0.155 HD
ENDROOT
BRANCH   1   8
ATOM      5  C   UNL     1      -3.826   2.615   0.295  0.00  0.00    +0.106 A 
ATOM      6  C   UNL     1      -3.662   1.243   0.349  0.00  0.00    +0.030 A 
ATOM      7  C   UNL     1      -2.398   0.693   0.255  0.00  0.00    +0.025 A 
ATOM      8  C   UNL     1      -1.292   1.520   0.104  0.00  0.00    +0.033 A 
ATOM      9  C   UNL     1      -1.460   2.897   0.055  0.00  0.00    +0.025 A 
ATOM     10  C   UNL     1      -2.727   3.441   0.145  0.00  0.00    +0.030 A 
BRANCH   5  11
ATOM     11  S   UNL     1      -5.440   3.313   0.415  0.00  0.00    +0.061 S 
ATOM     12  O   UNL     1      -5.379   4.587  -0.211  0.00  0.00    -0.153 OA
ATOM     13  O   UNL     1      -6.350   2.303   0.001  0.00  0.00    -0.153 OA
BRANCH  11  14
ATOM     14  N   UNL     1      -5.735   3.588   2.021  0.00  0.00    -0.177 NA
BRANCH  14  16
ATOM     15  C   UNL     1      -6.587   5.802   2.615  0.00  0.00    +0.022 C 
ATOM     16  C   UNL     1      -5.372   4.873   2.623  0.00  0.00    +0.106 C 
ENDBRANCH  14  16
BRANCH  14  17
ATOM     17  C   UNL     1      -6.361   2.546   2.840  0.00  0.00    +0.106 C 
ATOM     18  C   UNL     1      -5.276   1.738   3.553  0.00  0.00    +0.022 C 
ENDBRANCH  14  17
ENDBRANCH  11  14
ENDBRANCH   5  11
ENDBRANCH   1   8
BRANCH   2  19
ATOM     19  C   UNL     1       2.335   1.031  -0.773  0.00  0.00    +0.113 C 
BRANCH  19  20
ATOM     20  C   UNL     1       3.189   1.881  -1.717  0.00  0.00    +0.115 C 
BRANCH  20  21
ATOM     21  N   UNL     1       4.561   1.365  -1.731  0.00  0.00    -0.189 NA
ATOM     22  H   UNL     1       4.854   0.748  -1.043  0.00  0.00    +0.148 HD
BRANCH  21  23
ATOM     23  S   UNL     1       5.610   1.837  -2.922  0.00  0.00    +0.058 S 
ATOM     24  O   UNL     1       6.849   1.197  -2.649  0.00  0.00    -0.153 OA
ATOM     25  O   UNL     1       4.924   1.673  -4.156  0.00  0.00    -0.153 OA
BRANCH  23  26
ATOM     26  C   UNL     1       5.881   3.566  -2.723  0.00  0.00    +0.105 A 
ATOM     27  C   UNL     1       5.066   4.473  -3.374  0.00  0.00    +0.029 A 
ATOM     28  C   UNL     1       5.276   5.830  -3.214  0.00  0.00    +0.017 A 
ATOM     29  C   UNL     1       6.309   6.280  -2.411  0.00  0.00    +0.018 A 
ATOM     30  C   UNL     1       7.127   5.372  -1.764  0.00  0.00    +0.017 A 
ATOM     31  C   UNL     1       6.913   4.016  -1.920  0.00  0.00    +0.029 A 
ATOM     32 BR   UNL     1       6.600   8.136  -2.196  0.00  0.00    -0.050 Br
ENDBRANCH  23  26
ENDBRANCH  21  23
ENDBRANCH  20  21
ENDBRANCH  19  20
ENDBRANCH   2  19
TORSDOF 10
