REMARK  Name = ZINC03495651
REMARK  5 active torsions:
REMARK  status: ('A' for Active; 'I' for Inactive)
REMARK    1  A    between atoms: C_1  and  C_2
REMARK    2  A    between atoms: C_2  and  C_4
REMARK    3  A    between atoms: C_2  and  S_16
REMARK    4  A    between atoms: N_6  and  C_7
REMARK    5  A    between atoms: S_16  and  C_17
REMARK                            x       y       z     vdW  Elec       q    Type
REMARK                         _______ _______ _______ _____ _____    ______ ____
ROOT
ATOM      1  C   UNL     1       6.644   3.387   1.251  0.00  0.00    +0.029 C 
ATOM      2  C   UNL     1       6.280   2.671  -0.051  0.00  0.00    +0.137 C 
ENDROOT
BRANCH   2   3
ATOM      3  C   UNL     1       7.105   1.416  -0.181  0.00  0.00    +0.230 C 
ATOM      4  O   UNL     1       6.622   0.341   0.106  0.00  0.00    -0.274 OA
ATOM      5  N   UNL     1       8.379   1.488  -0.616  0.00  0.00    -0.284 N 
ATOM      6  H   UNL     1       8.743   2.338  -0.909  0.00  0.00    +0.155 HD
BRANCH   5   7
ATOM      7  C   UNL     1       9.175   0.336  -0.645  0.00  0.00    +0.037 A 
ATOM      8  C   UNL     1      10.534   0.425  -0.375  0.00  0.00    +0.027 A 
ATOM      9  C   UNL     1      11.321  -0.710  -0.399  0.00  0.00    +0.051 A 
ATOM     10  C   UNL     1      10.758  -1.940  -0.702  0.00  0.00    +0.166 A 
ATOM     11  C   UNL     1       9.396  -2.031  -0.978  0.00  0.00    +0.168 A 
ATOM     12  C   UNL     1       8.607  -0.893  -0.949  0.00  0.00    +0.072 A 
ATOM     13  O   UNL     1       9.091  -3.336  -1.242  0.00  0.00    -0.453 OA
ATOM     14  C   UNL     1      10.350  -3.975  -1.527  0.00  0.00    +0.466 C 
ATOM     15  O   UNL     1      11.306  -3.187  -0.793  0.00  0.00    -0.453 OA
ENDBRANCH   5   7
ENDBRANCH   2   3
BRANCH   2  16
ATOM     16  S   UNL     1       4.519   2.237  -0.031  0.00  0.00    -0.073 S 
BRANCH  16  17
ATOM     17  C   UNL     1       3.697   3.796  -0.025  0.00  0.00    +0.198 A 
ATOM     18  N   UNL     1       4.281   4.966  -0.034  0.00  0.00    -0.121 NA
ATOM     19  N   UNL     1       3.282   5.949  -0.026  0.00  0.00    -0.121 NA
ATOM     20  C   UNL     1       2.134   5.341  -0.012  0.00  0.00    +0.202 A 
ATOM     21  N   UNL     1       2.324   3.985  -0.011  0.00  0.00    -0.264 N 
ATOM     22  C   UNL     1       1.188   3.160   0.003  0.00  0.00    +0.065 A 
ATOM     23  C   UNL     1       1.176   1.756   0.005  0.00  0.00    +0.027 A 
ATOM     24  C   UNL     1      -0.011   1.062   0.019  0.00  0.00    +0.002 A 
ATOM     25  C   UNL     1      -1.228   1.722   0.025  0.00  0.00    +0.001 A 
ATOM     26  C   UNL     1      -1.245   3.106   0.029  0.00  0.00    +0.017 A 
ATOM     27  C   UNL     1      -0.055   3.798   0.015  0.00  0.00    +0.040 A 
ATOM     28  S   UNL     1       0.367   5.524   0.006  0.00  0.00    -0.048 S 
ENDBRANCH  16  17
ENDBRANCH   2  16
TORSDOF 4
