REMARK  Name = ZINC15945200
REMARK  7 active torsions:
REMARK  status: ('A' for Active; 'I' for Inactive)
REMARK    1  A    between atoms: C_1  and  C_2
REMARK    2  A    between atoms: C_2  and  C_3
REMARK    3  A    between atoms: C_2  and  C_4
REMARK    4  A    between atoms: C_2  and  C_5
REMARK    5  A    between atoms: C_17  and  C_20
REMARK    6  A    between atoms: C_23  and  C_25
REMARK    7  A    between atoms: C_29  and  N_31
REMARK                            x       y       z     vdW  Elec       q    Type
REMARK                         _______ _______ _______ _____ _____    ______ ____
ROOT
ATOM      1  C   UNL     1      -1.152   5.034   7.029  0.00  0.00    -0.000 C 
ATOM      2  C   UNL     1      -2.621   5.107   6.600  0.00  0.00    +0.009 C 
ATOM      3  C   UNL     1      -2.800   4.434   5.239  0.00  0.00    +0.037 C 
ATOM      4  C   UNL     1      -1.795   5.029   4.259  0.00  0.00    -0.023 A 
ATOM      5  C   UNL     1      -0.710   5.702   4.704  0.00  0.00    -0.004 A 
ATOM      6  S   UNL     1       0.153   6.201   3.236  0.00  0.00    -0.078 S 
ATOM      7  C   UNL     1      -0.900   5.529   2.066  0.00  0.00    +0.080 A 
ATOM      8  C   UNL     1      -1.921   4.924   2.815  0.00  0.00    +0.068 A 
ATOM      9  C   UNL     1      -3.007   4.250   2.067  0.00  0.00    +0.248 C 
ATOM     10  O   UNL     1      -4.011   3.852   2.630  0.00  0.00    -0.270 OA
ATOM     11  N   UNL     1      -2.838   4.095   0.737  0.00  0.00    -0.287 N 
ATOM     12  C   UNL     1      -1.596   4.403   0.039  0.00  0.00    +0.227 C 
ATOM     13  N   UNL     1      -0.870   5.506   0.695  0.00  0.00    -0.314 N 
ATOM     14  C   UNL     1      -0.328   5.963   6.128  0.00  0.00    +0.046 C 
ATOM     15  H   UNL     1      -3.585   3.759   0.217  0.00  0.00    +0.151 HD
ATOM     16  H   UNL     1      -0.397   6.181   0.184  0.00  0.00    +0.149 HD
ENDROOT
BRANCH  12  17
ATOM     17  C   UNL     1      -0.720   3.176   0.025  0.00  0.00    +0.144 A 
ATOM     18  C   UNL     1      -1.155   1.901   0.017  0.00  0.00    +0.049 A 
ATOM     19  C   UNL     1      -0.013   1.076   0.008  0.00  0.00    +0.050 A 
ATOM     20  C   UNL     1       1.067   1.902   0.002  0.00  0.00    +0.135 A 
ATOM     21  O   UNL     1       0.623   3.173   0.012  0.00  0.00    -0.456 OA
BRANCH  20  22
ATOM     22  C   UNL     1       2.483   1.478  -0.012  0.00  0.00    +0.019 A 
ATOM     23  C   UNL     1       2.809   0.120  -0.021  0.00  0.00    +0.012 A 
ATOM     24  C   UNL     1       4.132  -0.268  -0.034  0.00  0.00    +0.003 A 
ATOM     25  C   UNL     1       5.136   0.684  -0.039  0.00  0.00    +0.033 A 
ATOM     26  C   UNL     1       4.820   2.031  -0.030  0.00  0.00    +0.127 A 
ATOM     27  C   UNL     1       3.501   2.433  -0.023  0.00  0.00    +0.044 A 
BRANCH  26  28
ATOM     28  N   UNL     1       5.901   3.043  -0.035  0.00  0.00    +0.056 N 
ATOM     29  O   UNL     1       7.066   2.689  -0.047  0.00  0.00    -0.126 OA
ATOM     30  O   UNL     1       5.624   4.229  -0.028  0.00  0.00    -0.126 OA
ENDBRANCH  26  28
ENDBRANCH  20  22
ENDBRANCH  12  17
BRANCH   1  32
ATOM     31  C   UNL     1      -1.858   4.564   9.380  0.00  0.00    +0.011 C 
ATOM     32  C   UNL     1      -1.020   5.481   8.486  0.00  0.00    -0.035 C 
ATOM     33  C   UNL     1       0.448   5.407   8.912  0.00  0.00    +0.011 C 
ATOM     34  C   UNL     1      -1.518   6.921   8.624  0.00  0.00    +0.011 C 
ENDBRANCH   1  32
TORSDOF 4
