REMARK  Name = ZINC12293449
REMARK  5 active torsions:
REMARK  status: ('A' for Active; 'I' for Inactive)
REMARK    1  A    between atoms: C_6  and  S_7
REMARK    2  A    between atoms: S_7  and  N_10
REMARK    3  A    between atoms: N_10  and  C_11
REMARK    4  A    between atoms: C_21  and  C_23
REMARK    5  A    between atoms: C_28  and  O_29
REMARK                            x       y       z     vdW  Elec       q    Type
REMARK                         _______ _______ _______ _____ _____    ______ ____
ROOT
ATOM      1  N   UNL     1       2.221   0.043  -0.002  0.00  0.00    -0.135 N 
ATOM      2  C   UNL     1       1.635   1.011   0.731  0.00  0.00    +0.274 C 
ATOM      3  O   UNL     1       0.422   1.089   0.776  0.00  0.00    -0.268 OA
ENDROOT
BRANCH   1   4
ATOM      4  C   UNL     1       3.606  -0.150   0.073  0.00  0.00    +0.061 A 
ATOM      5  C   UNL     1       4.131  -1.413   0.321  0.00  0.00    +0.029 A 
ATOM      6  C   UNL     1       5.487  -1.618   0.398  0.00  0.00    +0.049 A 
ATOM      7  C   UNL     1       6.390  -0.557   0.228  0.00  0.00    +0.146 A 
ATOM      8  C   UNL     1       5.832   0.705  -0.021  0.00  0.00    +0.063 A 
ATOM      9  C   UNL     1       4.479   0.917  -0.104  0.00  0.00    +0.044 A 
ATOM     10  S   UNL     1       7.264   1.747  -0.172  0.00  0.00    -0.004 S 
ATOM     11  C   UNL     1       8.496   0.481   0.097  0.00  0.00    +0.379 A 
ATOM     12  O   UNL     1       9.708   0.584   0.113  0.00  0.00    -0.237 OA
ATOM     13  O   UNL     1       7.737  -0.615   0.277  0.00  0.00    -0.417 OA
ENDBRANCH   1   4
BRANCH   2  14
ATOM     14  C   UNL     1       2.464   1.975   1.478  0.00  0.00    +0.081 A 
ATOM     15  C   UNL     1       3.712   1.591   1.975  0.00  0.00    +0.036 A 
ATOM     16  C   UNL     1       4.480   2.496   2.677  0.00  0.00    +0.042 A 
ATOM     17  C   UNL     1       4.024   3.789   2.882  0.00  0.00    +0.023 A 
ATOM     18  C   UNL     1       2.793   4.180   2.396  0.00  0.00    +0.047 A 
ATOM     19  C   UNL     1       2.005   3.281   1.692  0.00  0.00    +0.129 A 
ATOM     20 CL   UNL     1       6.028   2.016   3.301  0.00  0.00    -0.084 Cl
BRANCH  19  21
ATOM     21  O   UNL     1       0.795   3.665   1.214  0.00  0.00    -0.506 OA
ATOM     22  H   UNL     1       0.064   3.519   1.831  0.00  0.00    +0.292 HD
ENDBRANCH  19  21
ENDBRANCH   2  14
BRANCH   1  23
ATOM     23  S   UNL     1       1.304  -0.917  -0.992  0.00  0.00    +0.081 S 
ATOM     24  O   UNL     1       0.246  -0.103  -1.480  0.00  0.00    -0.149 OA
ATOM     25  O   UNL     1       2.208  -1.590  -1.856  0.00  0.00    -0.149 OA
BRANCH  23  31
ATOM     26  C   UNL     1       1.097  -3.426   0.062  0.00  0.00    +0.030 A 
ATOM     27  C   UNL     1       0.519  -4.394   0.862  0.00  0.00    +0.022 A 
ATOM     28  C   UNL     1      -0.602  -4.090   1.614  0.00  0.00    +0.041 A 
ATOM     29  C   UNL     1      -1.140  -2.817   1.569  0.00  0.00    +0.022 A 
ATOM     30  C   UNL     1      -0.558  -1.848   0.773  0.00  0.00    +0.030 A 
ATOM     31  C   UNL     1       0.562  -2.152   0.022  0.00  0.00    +0.109 A 
ATOM     32 CL   UNL     1      -1.333  -5.307   2.614  0.00  0.00    -0.084 Cl
ENDBRANCH  23  31
ENDBRANCH   1  23
TORSDOF 5
