REMARK  Name = ZINC04282055
REMARK  11 active torsions:
REMARK  status: ('A' for Active; 'I' for Inactive)
REMARK    1  A    between atoms: C_1  and  C_2
REMARK    2  A    between atoms: C_2  and  O_3
REMARK    3  A    between atoms: O_3  and  C_4
REMARK    4  A    between atoms: C_4  and  C_6
REMARK    5  A    between atoms: C_10  and  N_11
REMARK    6  A    between atoms: C_12  and  C_14
REMARK    7  A    between atoms: N_16  and  N_17
REMARK    8  A    between atoms: C_18  and  C_19
REMARK    9  A    between atoms: C_22  and  O_26
REMARK   10  A    between atoms: C_24  and  O_25
REMARK   11  A    between atoms: C_28  and  C_32
REMARK                            x       y       z     vdW  Elec       q    Type
REMARK                         _______ _______ _______ _____ _____    ______ ____
ROOT
ATOM      1  N   UNL     1      -8.474   3.282   0.099  0.00  0.00    -0.271 N 
ATOM      2  C   UNL     1      -7.312   3.965   0.091  0.00  0.00    +0.305 C 
ATOM      3  O   UNL     1      -7.321   5.179   0.097  0.00  0.00    -0.265 OA
ATOM      4  H   UNL     1      -8.467   2.312   0.094  0.00  0.00    +0.156 HD
ENDROOT
BRANCH   1   9
ATOM      5  C   UNL     1     -10.966   3.444   0.123  0.00  0.00    +0.091 A 
ATOM      6  C   UNL     1     -12.070   4.387   0.138  0.00  0.00    -0.021 A 
ATOM      7  C   UNL     1     -11.714   5.691   0.141  0.00  0.00    -0.004 A 
ATOM      8  S   UNL     1      -9.944   5.677   0.132  0.00  0.00    -0.077 S 
ATOM      9  C   UNL     1      -9.677   3.965   0.113  0.00  0.00    +0.087 A 
ATOM     10  C   UNL     1     -12.629   6.877   0.154  0.00  0.00    +0.046 C 
ATOM     11  C   UNL     1     -14.042   6.402  -0.214  0.00  0.00    -0.009 C 
ATOM     12  C   UNL     1     -14.379   5.162   0.620  0.00  0.00    +0.008 C 
ATOM     13  C   UNL     1     -13.537   3.974   0.150  0.00  0.00    +0.037 C 
ATOM     14  C   UNL     1     -15.050   7.513   0.083  0.00  0.00    +0.008 C 
BRANCH   5  15
ATOM     15  C   UNL     1     -11.201   1.998   0.118  0.00  0.00    +0.342 C 
ATOM     16  O   UNL     1     -11.288   1.393   1.170  0.00  0.00    -0.245 OA
BRANCH  15  17
ATOM     17  O   UNL     1     -11.320   1.338  -1.052  0.00  0.00    -0.461 OA
BRANCH  17  19
ATOM     18  C   UNL     1     -11.659  -0.664  -2.396  0.00  0.00    +0.048 C 
ATOM     19  C   UNL     1     -11.552  -0.093  -0.980  0.00  0.00    +0.229 C 
ENDBRANCH  17  19
ENDBRANCH  15  17
ENDBRANCH   5  15
ENDBRANCH   1   9
BRANCH   2  20
ATOM     20  C   UNL     1      -6.016   3.230   0.075  0.00  0.00    +0.318 C 
ATOM     21  O   UNL     1      -6.007   2.015   0.069  0.00  0.00    -0.263 OA
ATOM     22  N   UNL     1      -4.854   3.913   0.068  0.00  0.00    -0.199 N 
ATOM     23  H   UNL     1      -4.861   4.883   0.073  0.00  0.00    +0.178 HD
BRANCH  22  24
ATOM     24  N   UNL     1      -3.635   3.221   0.053  0.00  0.00    -0.187 NA
ATOM     25  C   UNL     1      -2.515   3.880   0.046  0.00  0.00    +0.142 C 
BRANCH  25  26
ATOM     26  C   UNL     1      -1.234   3.154   0.030  0.00  0.00    +0.036 A 
ATOM     27  C   UNL     1      -0.027   3.859   0.023  0.00  0.00    +0.016 A 
ATOM     28  C   UNL     1       1.168   3.176   0.007  0.00  0.00    +0.046 A 
ATOM     29  C   UNL     1       1.180   1.785   0.000  0.00  0.00    +0.120 A 
ATOM     30  C   UNL     1      -0.013   1.076   0.008  0.00  0.00    +0.091 A 
ATOM     31  C   UNL     1      -1.220   1.751   0.017  0.00  0.00    +0.129 A 
BRANCH  31  32
ATOM     32  O   UNL     1      -2.388   1.058   0.019  0.00  0.00    -0.506 OA
ATOM     33  H   UNL     1      -2.722   0.853   0.904  0.00  0.00    +0.292 HD
ENDBRANCH  31  32
BRANCH  29  34
ATOM     34  O   UNL     1       2.363   1.119  -0.015  0.00  0.00    -0.507 OA
ATOM     35  H   UNL     1       2.697   0.931  -0.902  0.00  0.00    +0.292 HD
ENDBRANCH  29  34
ENDBRANCH  25  26
ENDBRANCH  22  24
ENDBRANCH   2  20
TORSDOF 9
