REMARK  Name = ZINC28053221
REMARK  2 active torsions:
REMARK  status: ('A' for Active; 'I' for Inactive)
REMARK    1  A    between atoms: C_4  and  C_7
REMARK    2  A    between atoms: C_18  and  C_20
REMARK                            x       y       z     vdW  Elec       q    Type
REMARK                         _______ _______ _______ _____ _____    ______ ____
ROOT
ATOM      1  C   UNL     1       4.750   3.994   0.283  0.00  0.00    +0.174 C 
ATOM      2  C   UNL     1       3.440   3.245   0.295  0.00  0.00    +0.025 C 
ATOM      3  C   UNL     1       2.283   3.825  -0.033  0.00  0.00    +0.050 C 
ATOM      4  C   UNL     1       1.052   2.999  -0.022  0.00  0.00    +0.039 A 
ATOM      5  C   UNL     1      -0.210   3.579  -0.022  0.00  0.00    +0.033 A 
ATOM      6  C   UNL     1      -1.332   2.770  -0.010  0.00  0.00    +0.042 A 
ATOM      7  C   UNL     1      -1.198   1.391  -0.007  0.00  0.00    +0.023 A 
ATOM      8  C   UNL     1       0.056   0.807  -0.001  0.00  0.00    +0.048 A 
ATOM      9  C   UNL     1       1.185   1.605  -0.011  0.00  0.00    +0.131 A 
ATOM     10  O   UNL     1       2.432   1.069  -0.010  0.00  0.00    -0.479 OA
ATOM     11  C   UNL     1       3.446   1.786   0.693  0.00  0.00    +0.234 C 
ATOM     12 CL   UNL     1      -2.914   3.485  -0.009  0.00  0.00    -0.084 Cl
ATOM     13  N   UNL     1       2.200   5.175  -0.393  0.00  0.00    -0.282 N 
ATOM     14  C   UNL     1       3.304   5.970  -0.136  0.00  0.00    +0.240 A 
ATOM     15  N   UNL     1       4.506   5.426   0.189  0.00  0.00    -0.201 N 
ATOM     16  N   UNL     1       5.363   6.508   0.386  0.00  0.00    -0.042 NA
ATOM     17  N   UNL     1       4.663   7.576   0.173  0.00  0.00    -0.021 NA
ATOM     18  N   UNL     1       3.451   7.264  -0.137  0.00  0.00    -0.092 NA
ATOM     19  H   UNL     1       1.283   5.564  -0.860  0.00  0.00    +0.155 HD
ENDROOT
BRANCH  11  20
ATOM     20  C   UNL     1       3.197   1.674   2.175  0.00  0.00    -0.000 A 
ATOM     21  C   UNL     1       4.247   1.402   3.033  0.00  0.00    +0.008 A 
ATOM     22  C   UNL     1       4.020   1.303   4.393  0.00  0.00    +0.003 A 
ATOM     23  C   UNL     1       2.743   1.466   4.896  0.00  0.00    +0.038 A 
ATOM     24  C   UNL     1       1.691   1.734   4.037  0.00  0.00    +0.124 A 
ATOM     25  C   UNL     1       1.920   1.838   2.675  0.00  0.00    +0.046 A 
ATOM     26  F   UNL     1       0.442   1.894   4.527  0.00  0.00    -0.205 F 
ENDBRANCH  11  20
BRANCH   1  30
ATOM     27  C   UNL     1       7.073   2.728  -3.071  0.00  0.00    +0.000 A 
ATOM     28  C   UNL     1       7.564   2.566  -1.789  0.00  0.00    +0.000 A 
ATOM     29  C   UNL     1       6.813   2.976  -0.704  0.00  0.00    +0.006 A 
ATOM     30  C   UNL     1       5.569   3.547  -0.900  0.00  0.00    -0.019 A 
ATOM     31  C   UNL     1       5.076   3.705  -2.182  0.00  0.00    +0.006 A 
ATOM     32  C   UNL     1       5.830   3.300  -3.268  0.00  0.00    +0.000 A 
ENDBRANCH   1  30
TORSDOF 2
