REMARK  Name = ZINC43218753
REMARK  8 active torsions:
REMARK  status: ('A' for Active; 'I' for Inactive)
REMARK    1  A    between atoms: C_1  and  C_2
REMARK    2  A    between atoms: C_2  and  C_3
REMARK    3  A    between atoms: C_6  and  N_9
REMARK    4  A    between atoms: C_14  and  C_31
REMARK    5  A    between atoms: C_17  and  C_22
REMARK    6  A    between atoms: C_17  and  C_28
REMARK    7  A    between atoms: C_36  and  O_37
REMARK    8  A    between atoms: O_37  and  C_38
REMARK                            x       y       z     vdW  Elec       q    Type
REMARK                         _______ _______ _______ _____ _____    ______ ____
ROOT
ATOM      1  N   UNL     1      -5.302  -2.036  -0.364  0.00  0.00    -0.210 N 
ATOM      2  C   UNL     1      -5.881  -2.247   0.863  0.00  0.00    +0.229 C 
ATOM      3  O   UNL     1      -5.470  -1.891   1.946  0.00  0.00    -0.275 OA
ATOM      4  C   UNL     1      -7.086  -2.985   0.579  0.00  0.00    +0.078 C 
ATOM      5  C   UNL     1      -8.393  -3.304   1.179  0.00  0.00    -0.023 C 
ATOM      6  N   UNL     1      -9.119  -3.948   0.030  0.00  0.00    +0.398 N 
ATOM      7  C   UNL     1      -8.482  -3.475  -1.235  0.00  0.00    +0.074 C 
ATOM      8  C   UNL     1      -7.528  -2.353  -0.801  0.00  0.00    +0.090 C 
ATOM      9  C   UNL     1      -6.150  -2.302  -1.401  0.00  0.00    +0.229 C 
ATOM     10  O   UNL     1      -5.854  -2.467  -2.565  0.00  0.00    -0.275 OA
ATOM     11  H   UNL     1      -9.042  -4.952   0.097  0.00  0.00    -0.083 HD
ATOM     12  H   UNL     1     -10.091  -3.677   0.046  0.00  0.00    -0.083 HD
ENDROOT
BRANCH   1  16
ATOM     13  C   UNL     1      -1.383  -0.708  -0.869  0.00  0.00    -0.048 A 
ATOM     14  C   UNL     1      -1.887  -0.900   0.404  0.00  0.00    +0.005 A 
ATOM     15  C   UNL     1      -3.185  -1.340   0.574  0.00  0.00    +0.024 A 
ATOM     16  C   UNL     1      -3.984  -1.589  -0.534  0.00  0.00    +0.044 A 
ATOM     17  C   UNL     1      -3.475  -1.394  -1.811  0.00  0.00    +0.024 A 
ATOM     18  C   UNL     1      -2.177  -0.949  -1.975  0.00  0.00    +0.005 A 
BRANCH  13  20
ATOM     19  C   UNL     1       0.054   1.302  -1.083  0.00  0.00    +0.009 C 
ATOM     20  C   UNL     1       0.034  -0.227  -1.052  0.00  0.00    +0.032 C 
ENDBRANCH  13  20
ENDBRANCH   1  16
BRANCH   7  21
ATOM     21  C   UNL     1      -7.733  -4.604  -1.895  0.00  0.00    -0.047 A 
ATOM     22  C   UNL     1      -7.452  -4.550  -3.248  0.00  0.00    +0.003 A 
ATOM     23  C   UNL     1      -6.765  -5.585  -3.853  0.00  0.00    +0.000 A 
ATOM     24  C   UNL     1      -6.358  -6.675  -3.106  0.00  0.00    +0.000 A 
ATOM     25  C   UNL     1      -6.638  -6.729  -1.754  0.00  0.00    +0.000 A 
ATOM     26  C   UNL     1      -7.321  -5.691  -1.147  0.00  0.00    +0.003 A 
ENDBRANCH   7  21
BRANCH   5  27
ATOM     27  C   UNL     1      -8.236  -4.270   2.326  0.00  0.00    -0.019 A 
ATOM     28  C   UNL     1      -7.053  -4.965   2.488  0.00  0.00    +0.005 A 
ATOM     29  C   UNL     1      -6.909  -5.850   3.540  0.00  0.00    +0.000 A 
ATOM     30  C   UNL     1      -7.948  -6.043   4.432  0.00  0.00    +0.004 A 
ATOM     31  C   UNL     1      -9.132  -5.351   4.274  0.00  0.00    +0.046 A 
ATOM     32  C   UNL     1      -9.278  -4.457   3.223  0.00  0.00    +0.122 A 
BRANCH  32  33
ATOM     33  O   UNL     1     -10.440  -3.770   3.069  0.00  0.00    -0.495 OA
ATOM     34  C   UNL     1     -11.469  -4.013   4.030  0.00  0.00    +0.277 C 
ENDBRANCH  32  33
ENDBRANCH   5  27
BRANCH   7  35
ATOM     35  C   UNL     1      -9.527  -2.924  -2.170  0.00  0.00    +0.350 C 
ATOM     36  O   UNL     1     -10.702  -2.938  -1.848  0.00  0.00    -0.248 OA
ATOM     37  O   UNL     1      -9.196  -2.463  -3.250  0.00  0.00    -0.248 OA
ENDBRANCH   7  35
TORSDOF 6
