REMARK  Name = ZINC08762436
REMARK  3 active torsions:
REMARK  status: ('A' for Active; 'I' for Inactive)
REMARK    1  A    between atoms: C_3  and  C_9
REMARK    2  A    between atoms: C_9  and  C_11
REMARK    3  A    between atoms: C_9  and  O_22
REMARK                            x       y       z     vdW  Elec       q    Type
REMARK                         _______ _______ _______ _____ _____    ______ ____
ROOT
ATOM      1  C   UNL     1      -0.018   1.503   0.010  0.00  0.00    +0.212 C 
ENDROOT
BRANCH   1   2
ATOM      2  C   UNL     1       0.002  -0.004   0.002  0.00  0.00    +0.139 A 
ATOM      3  C   UNL     1       1.039  -0.755  -0.393  0.00  0.00    +0.056 A 
ATOM      4  C   UNL     1       0.618  -2.152  -0.231  0.00  0.00    +0.023 A 
ATOM      5  C   UNL     1       1.226  -3.386  -0.460  0.00  0.00    +0.027 A 
ATOM      6  C   UNL     1       0.530  -4.546  -0.200  0.00  0.00    +0.020 A 
ATOM      7  C   UNL     1      -0.768  -4.489   0.287  0.00  0.00    +0.034 A 
ATOM      8  C   UNL     1      -1.381  -3.276   0.517  0.00  0.00    +0.062 A 
ATOM      9  C   UNL     1      -0.696  -2.093   0.262  0.00  0.00    +0.149 A 
ATOM     10  O   UNL     1      -1.020  -0.790   0.384  0.00  0.00    -0.456 OA
ATOM     11 BR   UNL     1      -3.150  -3.219   1.181  0.00  0.00    -0.046 Br
ATOM     12 BR   UNL     1       1.348  -6.223  -0.509  0.00  0.00    -0.050 Br
ENDBRANCH   1   2
BRANCH   1  15
ATOM     13  C   UNL     1      -2.761   2.770  -2.253  0.00  0.00    +0.020 A 
ATOM     14  C   UNL     1      -2.092   2.312  -1.134  0.00  0.00    +0.009 A 
ATOM     15  C   UNL     1      -0.747   2.002  -1.211  0.00  0.00    +0.007 A 
ATOM     16  C   UNL     1      -0.069   2.155  -2.407  0.00  0.00    +0.048 A 
ATOM     17  C   UNL     1      -0.739   2.608  -3.529  0.00  0.00    +0.040 A 
ATOM     18  C   UNL     1      -2.085   2.919  -3.451  0.00  0.00    +0.042 A 
ATOM     19 CL   UNL     1      -2.926   3.494  -4.857  0.00  0.00    -0.083 Cl
ATOM     20 CL   UNL     1       1.622   1.773  -2.501  0.00  0.00    -0.083 Cl
ENDBRANCH   1  15
BRANCH   1  21
ATOM     21  O   UNL     1      -0.687   1.964   1.186  0.00  0.00    -0.379 OA
ATOM     22  H   UNL     1      -1.604   1.665   1.259  0.00  0.00    +0.211 HD
ENDBRANCH   1  21
TORSDOF 3
