REMARK  Name = ZINC35676011
REMARK  4 active torsions:
REMARK  status: ('A' for Active; 'I' for Inactive)
REMARK    1  A    between atoms: C_3  and  S_11
REMARK    2  A    between atoms: C_6  and  C_7
REMARK    3  A    between atoms: S_11  and  C_12
REMARK    4  A    between atoms: C_15  and  N_21
REMARK                            x       y       z     vdW  Elec       q    Type
REMARK                         _______ _______ _______ _____ _____    ______ ____
ROOT
ATOM      1  C   UNL     1       5.216   0.984  -0.082  0.00  0.00    +0.045 A 
ATOM      2  C   UNL     1       4.923  -0.341  -0.186  0.00  0.00    +0.019 A 
ATOM      3  C   UNL     1       5.912  -1.324  -0.236  0.00  0.00    +0.026 A 
ATOM      4  C   UNL     1       7.238  -1.028  -0.184  0.00  0.00    +0.056 A 
ATOM      5  C   UNL     1       7.663   0.371  -0.072  0.00  0.00    +0.156 A 
ATOM      6  C   UNL     1       6.617   1.412  -0.025  0.00  0.00    +0.150 A 
ATOM      7  N   UNL     1       7.207   2.578   0.068  0.00  0.00    -0.048 NA
ATOM      8  O   UNL     1       8.607   2.360   0.080  0.00  0.00    -0.241 OA
ATOM      9  N   UNL     1       8.830   0.962  -0.003  0.00  0.00    -0.047 NA
ENDROOT
BRANCH   4  10
ATOM     10  N   UNL     1       8.189  -2.050  -0.237  0.00  0.00    -0.356 N 
ATOM     11  H   UNL     1       7.904  -2.974  -0.311  0.00  0.00    +0.142 HD
ATOM     12  H   UNL     1       9.134  -1.835  -0.200  0.00  0.00    +0.142 HD
ENDBRANCH   4  10
BRANCH   1  13
ATOM     13  S   UNL     1       3.920   2.177  -0.024  0.00  0.00    -0.068 S 
BRANCH  13  16
ATOM     14  C   UNL     1       2.980   4.061   3.396  0.00  0.00    +0.016 A 
ATOM     15  C   UNL     1       3.019   3.695   2.063  0.00  0.00    +0.035 A 
ATOM     16  C   UNL     1       3.858   2.657   1.670  0.00  0.00    +0.102 A 
ATOM     17  N   UNL     1       4.611   2.026   2.559  0.00  0.00    -0.248 NA
ATOM     18  C   UNL     1       4.594   2.353   3.837  0.00  0.00    +0.124 A 
ATOM     19  C   UNL     1       3.784   3.374   4.296  0.00  0.00    +0.073 A 
BRANCH  19  20
ATOM     20  C   UNL     1       3.775   3.739   5.758  0.00  0.00    +0.419 C 
ATOM     21  F   UNL     1       2.798   2.986   6.420  0.00  0.00    -0.166 F 
ATOM     22  F   UNL     1       5.029   3.468   6.314  0.00  0.00    -0.166 F 
ATOM     23  F   UNL     1       3.487   5.101   5.896  0.00  0.00    -0.166 F 
ENDBRANCH  19  20
ENDBRANCH  13  16
ENDBRANCH   1  13
TORSDOF 4
