REMARK  Name = ZINC27101135
REMARK  8 active torsions:
REMARK  status: ('A' for Active; 'I' for Inactive)
REMARK    1  A    between atoms: C_6  and  C_7
REMARK    2  A    between atoms: C_7  and  C_8
REMARK    3  A    between atoms: C_7  and  O_15
REMARK    4  A    between atoms: O_15  and  C_16
REMARK    5  A    between atoms: C_24  and  C_25
REMARK    6  A    between atoms: C_28  and  O_33
REMARK    7  A    between atoms: C_29  and  O_32
REMARK    8  A    between atoms: C_30  and  O_31
REMARK                            x       y       z     vdW  Elec       q    Type
REMARK                         _______ _______ _______ _____ _____    ______ ____
ROOT
ATOM      1  C   UNL     1       0.432   1.358  -1.376  0.00  0.00    +0.125 A 
ATOM      2  C   UNL     1      -0.879   1.781  -1.581  0.00  0.00    +0.046 A 
ATOM      3  C   UNL     1      -1.895   0.869  -1.632  0.00  0.00    +0.019 A 
ATOM      4  C   UNL     1      -1.618  -0.490  -1.478  0.00  0.00    +0.068 A 
ATOM      5  C   UNL     1      -0.301  -0.929  -1.270  0.00  0.00    +0.143 A 
ATOM      6  C   UNL     1       0.721   0.012  -1.222  0.00  0.00    +0.092 A 
ATOM      7  O   UNL     1      -0.283  -2.274  -1.151  0.00  0.00    -0.451 OA
ATOM      8  C   UNL     1      -1.524  -2.805  -1.264  0.00  0.00    +0.176 C 
ATOM      9  C   UNL     1      -1.842  -4.125  -1.190  0.00  0.00    +0.062 C 
ATOM     10  C   UNL     1      -2.463  -1.698  -1.481  0.00  0.00    +0.231 C 
ATOM     11  O   UNL     1      -3.671  -1.763  -1.630  0.00  0.00    -0.283 OA
ENDROOT
BRANCH   9  12
ATOM     12  C   UNL     1      -0.780  -5.131  -1.103  0.00  0.00    +0.024 A 
ATOM     13  C   UNL     1       0.524  -4.750  -0.755  0.00  0.00    +0.015 A 
ATOM     14  C   UNL     1       1.518  -5.697  -0.674  0.00  0.00    +0.050 A 
ATOM     15  C   UNL     1       1.237  -7.034  -0.936  0.00  0.00    +0.162 A 
ATOM     16  C   UNL     1      -0.052  -7.426  -1.282  0.00  0.00    +0.201 A 
ATOM     17  C   UNL     1      -1.065  -6.482  -1.362  0.00  0.00    +0.169 A 
BRANCH  17  18
ATOM     18  O   UNL     1      -2.326  -6.862  -1.694  0.00  0.00    -0.503 OA
ATOM     19  H   UNL     1      -2.546  -7.921  -1.896  0.00  0.00    +0.292 HD
ENDBRANCH  17  18
BRANCH  16  20
ATOM     20  O   UNL     1      -0.319  -8.735  -1.538  0.00  0.00    -0.501 OA
ATOM     21  H   UNL     1      -1.339  -9.045  -1.811  0.00  0.00    +0.292 HD
ENDBRANCH  16  20
BRANCH  15  22
ATOM     22  O   UNL     1       2.227  -7.961  -0.854  0.00  0.00    -0.503 OA
ATOM     23  H   UNL     1       2.007  -9.019  -1.061  0.00  0.00    +0.292 HD
ENDBRANCH  15  22
ENDBRANCH   9  12
BRANCH   1  24
ATOM     24  O   UNL     1       1.434   2.271  -1.328  0.00  0.00    -0.479 OA
BRANCH  24  25
ATOM     25  C   UNL     1       1.059   3.650  -1.369  0.00  0.00    +0.234 C 
BRANCH  25  31
ATOM     26  C   UNL     1       3.487   4.179  -1.078  0.00  0.00    +0.010 A 
ATOM     27  C   UNL     1       4.507   4.953  -0.557  0.00  0.00    +0.039 A 
ATOM     28  C   UNL     1       4.210   6.033   0.257  0.00  0.00    +0.123 A 
ATOM     29  C   UNL     1       2.890   6.341   0.542  0.00  0.00    +0.039 A 
ATOM     30  C   UNL     1       1.872   5.569   0.016  0.00  0.00    +0.010 A 
ATOM     31  C   UNL     1       2.170   4.490  -0.796  0.00  0.00    -0.003 A 
ATOM     32  F   UNL     1       5.206   6.787   0.770  0.00  0.00    -0.205 F 
ENDBRANCH  25  31
BRANCH  25  33
ATOM     33  C   UNL     1       0.805   4.059  -2.797  0.00  0.00    -0.003 A 
ATOM     34  C   UNL     1       1.567   3.519  -3.816  0.00  0.00    +0.010 A 
ATOM     35  C   UNL     1       1.332   3.890  -5.127  0.00  0.00    +0.039 A 
ATOM     36  C   UNL     1       0.339   4.810  -5.418  0.00  0.00    +0.123 A 
ATOM     37  C   UNL     1      -0.421   5.354  -4.396  0.00  0.00    +0.039 A 
ATOM     38  C   UNL     1      -0.187   4.977  -3.087  0.00  0.00    +0.010 A 
ATOM     39  F   UNL     1       0.111   5.176  -6.698  0.00  0.00    -0.205 F 
ENDBRANCH  25  33
ENDBRANCH  24  25
ENDBRANCH   1  24
TORSDOF 8
