REMARK  Name = ZINC39325336
REMARK  13 active torsions:
REMARK  status: ('A' for Active; 'I' for Inactive)
REMARK    1  A    between atoms: C_1  and  C_2
REMARK    2  A    between atoms: C_2  and  O_3
REMARK    3  A    between atoms: O_3  and  C_4
REMARK    4  A    between atoms: C_11  and  C_16
REMARK    5  A    between atoms: C_16  and  N_17
REMARK    6  A    between atoms: N_17  and  C_18
REMARK    7  A    between atoms: N_17  and  S_27
REMARK    8  A    between atoms: C_18  and  C_19
REMARK    9  A    between atoms: C_19  and  C_20
REMARK   10  A    between atoms: C_24  and  C_26
REMARK   11  A    between atoms: S_27  and  C_30
REMARK   12  A    between atoms: C_33  and  O_36
REMARK   13  A    between atoms: O_36  and  C_37
REMARK                            x       y       z     vdW  Elec       q    Type
REMARK                         _______ _______ _______ _____ _____    ______ ____
ROOT
ATOM      1  N   UNL     1       3.845  -7.621   4.233  0.00  0.00    -0.175 NA
ENDROOT
BRANCH   1   2
ATOM      2  S   UNL     1       3.899  -7.922   5.860  0.00  0.00    +0.061 S 
ATOM      3  O   UNL     1       4.479  -9.210   6.016  0.00  0.00    -0.153 OA
ATOM      4  O   UNL     1       4.447  -6.761   6.470  0.00  0.00    -0.153 OA
BRANCH   2   5
ATOM      5  C   UNL     1       2.234  -8.048   6.423  0.00  0.00    +0.106 A 
ATOM      6  C   UNL     1       1.565  -6.918   6.856  0.00  0.00    +0.032 A 
ATOM      7  C   UNL     1       0.260  -7.014   7.299  0.00  0.00    +0.047 A 
ATOM      8  C   UNL     1      -0.380  -8.245   7.307  0.00  0.00    +0.120 A 
ATOM      9  C   UNL     1       0.294  -9.377   6.871  0.00  0.00    +0.047 A 
ATOM     10  C   UNL     1       1.597  -9.275   6.425  0.00  0.00    +0.032 A 
BRANCH   8  11
ATOM     11  O   UNL     1      -1.663  -8.342   7.742  0.00  0.00    -0.495 OA
ATOM     12  C   UNL     1      -2.259  -9.642   7.722  0.00  0.00    +0.277 C 
ENDBRANCH   8  11
ENDBRANCH   2   5
ENDBRANCH   1   2
BRANCH   1  13
ATOM     13  C   UNL     1       3.804  -6.240   3.744  0.00  0.00    +0.126 C 
BRANCH  13  21
ATOM     14  C   UNL     1       0.975  -1.851   1.135  0.00  0.00    +0.121 A 
ATOM     15  C   UNL     1       0.279  -2.734   0.300  0.00  0.00    +0.047 A 
ATOM     16  C   UNL     1       0.263  -4.076   0.507  0.00  0.00    +0.027 A 
ATOM     17  C   UNL     1       0.959  -4.642   1.591  0.00  0.00    +0.041 A 
ATOM     18  N   UNL     1       0.935  -5.961   1.782  0.00  0.00    -0.284 N 
ATOM     19  C   UNL     1       1.566  -6.559   2.778  0.00  0.00    +0.225 C 
ATOM     20  O   UNL     1       1.507  -7.768   2.901  0.00  0.00    -0.275 OA
ATOM     21  C   UNL     1       2.361  -5.734   3.765  0.00  0.00    +0.114 C 
ATOM     22  C   UNL     1       2.392  -4.233   3.553  0.00  0.00    -0.003 C 
ATOM     23  C   UNL     1       1.701  -3.738   2.487  0.00  0.00    -0.004 A 
ATOM     24  C   UNL     1       1.684  -2.302   2.207  0.00  0.00    +0.055 A 
ATOM     25  H   UNL     1       0.430  -6.508   1.160  0.00  0.00    +0.155 HD
BRANCH  14  26
ATOM     26  O   UNL     1       0.946  -0.519   0.867  0.00  0.00    -0.492 OA
BRANCH  26  28
ATOM     27  C   UNL     1       0.273   1.419  -0.410  0.00  0.00    +0.048 C 
ATOM     28  C   UNL     1       0.187  -0.102  -0.270  0.00  0.00    +0.225 C 
ENDBRANCH  26  28
ENDBRANCH  14  26
ENDBRANCH  13  21
ENDBRANCH   1  13
BRANCH   1  29
ATOM     29  C   UNL     1       3.836  -8.735   3.281  0.00  0.00    +0.114 C 
BRANCH  29  30
ATOM     30  C   UNL     1       5.270  -9.044   2.846  0.00  0.00    +0.052 C 
BRANCH  30  31
ATOM     31  C   UNL     1       5.262 -10.191   1.867  0.00  0.00    -0.046 A 
ATOM     32  C   UNL     1       5.360 -11.491   2.325  0.00  0.00    +0.004 A 
ATOM     33  C   UNL     1       5.353 -12.542   1.428  0.00  0.00    +0.001 A 
ATOM     34  C   UNL     1       5.246 -12.293   0.072  0.00  0.00    +0.003 A 
ATOM     35  C   UNL     1       5.146 -10.993  -0.386  0.00  0.00    -0.050 A 
ATOM     36  C   UNL     1       5.149  -9.941   0.512  0.00  0.00    +0.007 A 
ATOM     37  C   UNL     1       5.030 -10.721  -1.863  0.00  0.00    +0.044 C 
ENDBRANCH  30  31
ENDBRANCH  29  30
ENDBRANCH   1  29
TORSDOF 10
