REMARK  Name = ZINC52517094
REMARK  7 active torsions:
REMARK  status: ('A' for Active; 'I' for Inactive)
REMARK    1  A    between atoms: C_1  and  N_2
REMARK    2  A    between atoms: N_2  and  C_3
REMARK    3  A    between atoms: N_2  and  C_10
REMARK    4  A    between atoms: C_3  and  C_4
REMARK    5  A    between atoms: C_10  and  C_11
REMARK    6  A    between atoms: C_12  and  C_20
REMARK    7  A    between atoms: C_20  and  N_21
REMARK                            x       y       z     vdW  Elec       q    Type
REMARK                         _______ _______ _______ _____ _____    ______ ____
ROOT
ATOM      1  C   UNL     1      -0.286  -0.163  -2.406  0.00  0.00    +0.122 A 
ATOM      2  C   UNL     1      -0.189   0.960  -3.130  0.00  0.00    -0.015 A 
ATOM      3  C   UNL     1      -1.241   0.881  -4.151  0.00  0.00    +0.022 A 
ATOM      4  C   UNL     1      -1.657   1.713  -5.189  0.00  0.00    +0.012 A 
ATOM      5  C   UNL     1      -2.704   1.335  -5.983  0.00  0.00    +0.001 A 
ATOM      6  C   UNL     1      -3.353   0.128  -5.762  0.00  0.00    +0.004 A 
ATOM      7  C   UNL     1      -2.955  -0.708  -4.741  0.00  0.00    +0.047 A 
ATOM      8  C   UNL     1      -1.894  -0.342  -3.922  0.00  0.00    +0.135 A 
ATOM      9  O   UNL     1      -1.285  -0.931  -2.874  0.00  0.00    -0.458 OA
ENDROOT
BRANCH   1  10
ATOM     10  C   UNL     1       0.600  -0.516  -1.239  0.00  0.00    +0.159 C 
BRANCH  10  12
ATOM     11  C   UNL     1      -0.018   1.465   0.010  0.00  0.00    +0.105 C 
ATOM     12  N   UNL     1       0.002  -0.004   0.002  0.00  0.00    -0.294 NA
BRANCH  12  13
ATOM     13  C   UNL     1       0.706  -0.527   1.180  0.00  0.00    +0.127 C 
BRANCH  13  14
ATOM     14  C   UNL     1      -0.073  -0.186   2.424  0.00  0.00    +0.005 A 
ATOM     15  C   UNL     1      -1.042  -0.901   3.047  0.00  0.00    +0.027 A 
ATOM     16  C   UNL     1      -1.626  -0.385   4.189  0.00  0.00    +0.025 A 
ATOM     17  C   UNL     1      -1.212   0.820   4.652  0.00  0.00    +0.060 A 
ATOM     18  S   UNL     1       0.045   1.260   3.464  0.00  0.00    -0.099 S 
ATOM     19 BR   UNL     1      -2.982  -1.346   5.092  0.00  0.00    -0.050 Br
ENDBRANCH  13  14
ENDBRANCH  12  13
ENDBRANCH  10  12
ENDBRANCH   1  10
BRANCH   2  20
ATOM     20  C   UNL     1       0.801   2.079  -2.937  0.00  0.00    -0.046 C 
BRANCH  20  21
ATOM     21  N   UNL     1       2.006   1.811  -3.734  0.00  0.00    +0.381 N 
ATOM     22  H   UNL     1       2.668   2.561  -3.605  0.00  0.00    -0.090 HD
ATOM     23  H   UNL     1       2.419   0.941  -3.436  0.00  0.00    -0.090 HD
ATOM     24  H   UNL     1       1.756   1.748  -4.710  0.00  0.00    -0.090 HD
ENDBRANCH  20  21
ENDBRANCH   2  20
TORSDOF 6
