REMARK  Name = ZINC39469356
REMARK  5 active torsions:
REMARK  status: ('A' for Active; 'I' for Inactive)
REMARK    1  A    between atoms: C_1  and  C_2
REMARK    2  A    between atoms: C_2  and  O_3
REMARK    3  A    between atoms: O_3  and  P_4
REMARK    4  A    between atoms: C_13  and  C_22
REMARK    5  A    between atoms: C_27  and  O_28
REMARK                            x       y       z     vdW  Elec       q    Type
REMARK                         _______ _______ _______ _____ _____    ______ ____
ROOT
ATOM      1  P   UNL     1       0.877  -2.026  -1.510  0.00  0.00    +0.421 P 
ATOM      2  O   UNL     1       1.285  -2.763  -0.293  0.00  0.00    -0.239 OA
ATOM      3  N   UNL     1      -0.511  -2.665  -2.133  0.00  0.00    -0.156 NA
ATOM      4  N   UNL     1      -0.407  -3.827  -2.872  0.00  0.00    -0.228 NA
ATOM      5  C   UNL     1      -1.754  -4.148  -3.372  0.00  0.00    +0.111 C 
ATOM      6  C   UNL     1      -1.748  -5.445  -4.168  0.00  0.00    +0.037 C 
ATOM      7  C   UNL     1      -1.322  -6.599  -3.301  0.00  0.00    +0.017 C 
ATOM      8  C   UNL     1      -0.838  -7.702  -3.868  0.00  0.00    +0.127 C 
ATOM      9  C   UNL     1      -0.739  -7.778  -5.343  0.00  0.00    +0.017 C 
ATOM     10  C   UNL     1      -0.711  -6.646  -6.064  0.00  0.00    -0.012 C 
ATOM     11  C   UNL     1      -0.774  -5.321  -5.343  0.00  0.00    +0.022 C 
ATOM     12  C   UNL     1       0.611  -4.976  -4.794  0.00  0.00    +0.031 C 
ATOM     13  C   UNL     1       0.556  -3.686  -3.968  0.00  0.00    +0.100 C 
ATOM     14  C   UNL     1       1.974  -3.428  -3.441  0.00  0.00    +0.191 C 
ATOM     15  O   UNL     1       1.994  -2.208  -2.680  0.00  0.00    -0.294 OA
ATOM     16  F   UNL     1      -0.440  -8.743  -3.103  0.00  0.00    -0.205 F 
ATOM     17  H   UNL     1      -1.370  -2.240  -1.985  0.00  0.00    +0.153 HD
ENDROOT
BRANCH   9  18
ATOM     18  C   UNL     1      -0.672  -9.095  -6.020  0.00  0.00    +0.026 A 
ATOM     19  C   UNL     1       0.538  -9.557  -6.534  0.00  0.00    +0.012 A 
ATOM     20  C   UNL     1       0.595 -10.784  -7.162  0.00  0.00    +0.001 A 
ATOM     21  C   UNL     1      -0.545 -11.559  -7.285  0.00  0.00    +0.004 A 
ATOM     22  C   UNL     1      -1.750 -11.111  -6.779  0.00  0.00    +0.046 A 
ATOM     23  C   UNL     1      -1.821  -9.883  -6.139  0.00  0.00    +0.125 A 
BRANCH  23  24
ATOM     24  O   UNL     1      -3.004  -9.443  -5.637  0.00  0.00    -0.506 OA
ATOM     25  H   UNL     1      -3.531  -8.929  -6.263  0.00  0.00    +0.292 HD
ENDBRANCH  23  24
ENDBRANCH   9  18
BRANCH   1  26
ATOM     26  O   UNL     1       0.671  -0.465  -1.174  0.00  0.00    -0.296 OA
BRANCH  26  28
ATOM     27  C   UNL     1      -0.019   1.526   0.010  0.00  0.00    +0.035 C 
ATOM     28  C   UNL     1       0.002  -0.004   0.002  0.00  0.00    +0.168 C 
ENDBRANCH  26  28
ENDBRANCH   1  26
TORSDOF 4
