REMARK  Name = ZINC02179310
REMARK  10 active torsions:
REMARK  status: ('A' for Active; 'I' for Inactive)
REMARK    1  A    between atoms: C_1  and  O_2
REMARK    2  A    between atoms: O_2  and  C_3
REMARK    3  A    between atoms: C_5  and  C_13
REMARK    4  A    between atoms: C_8  and  O_9
REMARK    5  A    between atoms: O_9  and  C_10
REMARK    6  A    between atoms: C_10  and  C_11
REMARK    7  A    between atoms: C_15  and  C_33
REMARK    8  A    between atoms: C_16  and  N_32
REMARK    9  A    between atoms: N_17  and  N_25
REMARK   10  A    between atoms: N_25  and  C_26
REMARK                            x       y       z     vdW  Elec       q    Type
REMARK                         _______ _______ _______ _____ _____    ______ ____
ROOT
ATOM      1  C   UNL     1       2.403   0.379  -4.230  0.00  0.00    +0.098 C 
ATOM      2  C   UNL     1       1.720   0.070  -5.529  0.00  0.00    +0.078 C 
ATOM      3  C   UNL     1       2.308  -0.728  -6.459  0.00  0.00    +0.119 C 
ATOM      4  N   UNL     1       3.552  -1.261  -6.222  0.00  0.00    -0.211 N 
ATOM      5  C   UNL     1       4.378  -0.709  -5.280  0.00  0.00    +0.039 C 
ATOM      6  C   UNL     1       3.879   0.081  -4.308  0.00  0.00    +0.026 C 
ATOM      7  C   UNL     1       4.720   0.650  -3.336  0.00  0.00    +0.162 C 
ATOM      8  O   UNL     1       4.243   1.370  -2.481  0.00  0.00    -0.292 OA
ATOM      9  C   UNL     1       6.201   0.383  -3.333  0.00  0.00    +0.080 C 
ATOM     10  C   UNL     1       6.460  -0.991  -3.960  0.00  0.00    +0.014 C 
ATOM     11  C   UNL     1       5.856  -1.003  -5.362  0.00  0.00    +0.053 C 
ENDROOT
BRANCH   1  14
ATOM     12  C   UNL     1       0.606  -0.608  -1.056  0.00  0.00    +0.162 A 
ATOM     13  C   UNL     1       1.173   0.159  -2.062  0.00  0.00    +0.054 A 
ATOM     14  C   UNL     1       1.787  -0.456  -3.137  0.00  0.00    -0.031 A 
ATOM     15  C   UNL     1       1.837  -1.836  -3.212  0.00  0.00    +0.008 A 
ATOM     16  C   UNL     1       1.273  -2.606  -2.212  0.00  0.00    +0.050 A 
ATOM     17  C   UNL     1       0.662  -1.996  -1.129  0.00  0.00    +0.162 A 
BRANCH  12  19
ATOM     18  C   UNL     1      -0.017   1.425   0.010  0.00  0.00    +0.277 C 
ATOM     19  O   UNL     1       0.002  -0.004   0.002  0.00  0.00    -0.491 OA
ENDBRANCH  12  19
BRANCH  17  20
ATOM     20  O   UNL     1       0.112  -2.753  -0.142  0.00  0.00    -0.484 OA
BRANCH  20  21
ATOM     21  C   UNL     1       0.206  -4.171  -0.283  0.00  0.00    +0.256 C 
BRANCH  21  22
ATOM     22  C   UNL     1      -0.453  -4.838   0.897  0.00  0.00    +0.006 C 
ATOM     23  C   UNL     1      -1.258  -5.855   0.709  0.00  0.00    +0.007 C 
ENDBRANCH  21  22
ENDBRANCH  20  21
ENDBRANCH  17  20
ENDBRANCH   1  14
BRANCH   3  24
ATOM     24  N   UNL     1       1.657  -1.002  -7.638  0.00  0.00    -0.344 N 
ATOM     25  H   UNL     1       0.778  -0.627  -7.806  0.00  0.00    +0.144 HD
ATOM     26  H   UNL     1       2.076  -1.572  -8.302  0.00  0.00    +0.144 HD
ENDBRANCH   3  24
BRANCH   4  27
ATOM     27  N   UNL     1       3.978  -2.380  -6.950  0.00  0.00    -0.259 N 
ATOM     28  H   UNL     1       3.998  -3.254  -6.529  0.00  0.00    +0.171 HD
BRANCH  27  29
ATOM     29  C   UNL     1       4.376  -2.237  -8.281  0.00  0.00    +0.045 A 
ATOM     30  C   UNL     1       4.354  -0.985  -8.883  0.00  0.00    +0.024 A 
ATOM     31  C   UNL     1       4.748  -0.847 -10.200  0.00  0.00    +0.002 A 
ATOM     32  C   UNL     1       5.163  -1.953 -10.918  0.00  0.00    +0.000 A 
ATOM     33  C   UNL     1       5.186  -3.200 -10.322  0.00  0.00    +0.002 A 
ATOM     34  C   UNL     1       4.799  -3.345  -9.004  0.00  0.00    +0.024 A 
ENDBRANCH  27  29
ENDBRANCH   4  27
BRANCH   2  35
ATOM     35  C   UNL     1       0.427   0.626  -5.795  0.00  0.00    +0.099 C 
ATOM     36  N   UNL     1      -0.599   1.066  -6.005  0.00  0.00    -0.191 NA
ENDBRANCH   2  35
TORSDOF 9
