REMARK  Name = ZINC57992672
REMARK  5 active torsions:
REMARK  status: ('A' for Active; 'I' for Inactive)
REMARK    1  A    between atoms: C_1  and  C_2
REMARK    2  A    between atoms: C_7  and  N_12
REMARK    3  A    between atoms: C_9  and  C_11
REMARK    4  A    between atoms: C_13  and  C_15
REMARK    5  A    between atoms: N_31  and  C_34
REMARK                            x       y       z     vdW  Elec       q    Type
REMARK                         _______ _______ _______ _____ _____    ______ ____
ROOT
ATOM      1  C   UNL     1       1.363  -0.333   6.074  0.00  0.00    +0.110 C 
ATOM      2  C   UNL     1       0.742  -1.664   6.578  0.00  0.00    +0.034 C 
ATOM      3  C   UNL     1       1.100  -1.628   8.084  0.00  0.00    +0.059 C 
ATOM      4  C   UNL     1       0.052  -2.429   8.872  0.00  0.00    +0.020 C 
ATOM      5  C   UNL     1      -0.679  -1.388   9.749  0.00  0.00    +0.017 C 
ATOM      6  C   UNL     1      -0.435  -0.062   8.988  0.00  0.00    +0.086 C 
ATOM      7  N   UNL     1       0.969  -0.198   8.470  0.00  0.00    -0.282 NA
ATOM      8  C   UNL     1       1.151   0.619   7.261  0.00  0.00    +0.138 C 
ATOM      9  C   UNL     1       2.314   1.563   7.404  0.00  0.00    +0.004 A 
ATOM     10  C   UNL     1       3.659   1.377   7.632  0.00  0.00    +0.008 A 
ATOM     11  C   UNL     1       4.504   2.470   7.717  0.00  0.00    +0.000 A 
ATOM     12  C   UNL     1       3.994   3.747   7.572  0.00  0.00    +0.002 A 
ATOM     13  C   UNL     1       2.648   3.938   7.343  0.00  0.00    +0.024 A 
ATOM     14  C   UNL     1       1.790   2.843   7.256  0.00  0.00    +0.041 A 
ATOM     15  N   UNL     1       0.413   2.778   7.034  0.00  0.00    -0.272 N 
ATOM     16  C   UNL     1      -0.041   1.511   7.022  0.00  0.00    +0.245 C 
ATOM     17  O   UNL     1      -1.188   1.155   6.853  0.00  0.00    -0.273 OA
ATOM     18  C   UNL     1      -0.439   3.953   6.838  0.00  0.00    +0.138 C 
ENDROOT
BRANCH   1  20
ATOM     19  N   UNL     1       1.248   1.009   3.999  0.00  0.00    -0.312 N 
ATOM     20  C   UNL     1       0.634   0.166   4.853  0.00  0.00    +0.219 C 
ATOM     21  O   UNL     1      -0.506  -0.190   4.639  0.00  0.00    -0.275 OA
ATOM     22  H   UNL     1       2.159   1.294   4.170  0.00  0.00    +0.149 HD
BRANCH  19  28
ATOM     23  C   UNL     1      -1.085   3.527   1.465  0.00  0.00    +0.008 C 
ATOM     24  C   UNL     1       0.397   3.340   1.134  0.00  0.00    -0.009 C 
ATOM     25  C   UNL     1       0.541   2.321   0.001  0.00  0.00    +0.003 C 
ATOM     26  C   UNL     1      -0.056   0.983   0.440  0.00  0.00    +0.002 C 
ATOM     27  C   UNL     1       0.684   0.476   1.680  0.00  0.00    +0.022 C 
ATOM     28  C   UNL     1       0.539   1.494   2.812  0.00  0.00    +0.076 C 
ATOM     29  C   UNL     1       1.137   2.833   2.373  0.00  0.00    +0.009 C 
ATOM     30  C   UNL     1       0.992   3.852   3.506  0.00  0.00    +0.009 C 
ENDBRANCH  19  28
ENDBRANCH   1  20
TORSDOF 2
