REMARK  Name = ZINC09659555
REMARK  17 active torsions:
REMARK  status: ('A' for Active; 'I' for Inactive)
REMARK    1  A    between atoms: C_1  and  C_2
REMARK    2  A    between atoms: C_2  and  C_3
REMARK    3  A    between atoms: C_2  and  O_4
REMARK    4  A    between atoms: O_4  and  C_5
REMARK    5  A    between atoms: C_5  and  C_6
REMARK    6  A    between atoms: C_6  and  C_7
REMARK    7  A    between atoms: C_7  and  N_8
REMARK    8  A    between atoms: C_9  and  N_77
REMARK    9  A    between atoms: C_19  and  C_21
REMARK   10  A    between atoms: C_19  and  C_26
REMARK   11  A    between atoms: C_19  and  N_77
REMARK   12  A    between atoms: C_21  and  C_22
REMARK   13  A    between atoms: C_22  and  O_24
REMARK   14  A    between atoms: O_24  and  C_25
REMARK   15  A    between atoms: C_29  and  O_32
REMARK   16  A    between atoms: O_32  and  C_33
REMARK   17  A    between atoms: C_33  and  C_34
REMARK                            x       y       z     vdW  Elec       q    Type
REMARK                         _______ _______ _______ _____ _____    ______ ____
ROOT
ATOM      1  C   UNL     1       7.647   6.217  -2.796  0.00  0.00    -0.027 C 
ENDROOT
BRANCH   1   2
ATOM      2  C   UNL     1       7.086   5.075  -1.987  0.00  0.00    -0.061 A 
ATOM      3  C   UNL     1       7.079   3.796  -2.511  0.00  0.00    +0.005 A 
ATOM      4  C   UNL     1       6.566   2.748  -1.772  0.00  0.00    +0.046 A 
ATOM      5  C   UNL     1       6.058   2.980  -0.502  0.00  0.00    +0.121 A 
ATOM      6  C   UNL     1       6.061   4.266   0.020  0.00  0.00    +0.046 A 
ATOM      7  C   UNL     1       6.580   5.309  -0.722  0.00  0.00    +0.005 A 
BRANCH   5   8
ATOM      8  O   UNL     1       5.552   1.951   0.227  0.00  0.00    -0.487 OA
BRANCH   8   9
ATOM      9  C   UNL     1       5.045   2.264   1.526  0.00  0.00    +0.264 C 
BRANCH   9  10
ATOM     10  C   UNL     1       4.531   1.007   2.181  0.00  0.00    -0.010 A 
ATOM     11  C   UNL     1       5.378   0.233   2.951  0.00  0.00    +0.007 A 
ATOM     12  C   UNL     1       4.906  -0.920   3.551  0.00  0.00    +0.000 A 
ATOM     13  C   UNL     1       3.589  -1.300   3.377  0.00  0.00    +0.000 A 
ATOM     14  C   UNL     1       2.740  -0.522   2.611  0.00  0.00    +0.000 A 
ATOM     15  C   UNL     1       3.212   0.630   2.011  0.00  0.00    +0.007 A 
ENDBRANCH   9  10
ENDBRANCH   8   9
ENDBRANCH   5   8
ENDBRANCH   1   2
BRANCH   1  16
ATOM     16  N   UNL     1       8.409   7.116  -1.909  0.00  0.00    +0.399 N 
ATOM     17  H   UNL     1       8.045   8.071  -2.001  0.00  0.00    -0.082 HD
ATOM     18  H   UNL     1       8.303   6.802  -0.936  0.00  0.00    -0.082 HD
BRANCH  16  20
ATOM     19  N   UNL     1      10.466   8.374  -1.884  0.00  0.00    -0.308 N 
ATOM     20  C   UNL     1       9.839   7.102  -2.271  0.00  0.00    +0.047 C 
ATOM     21  C   UNL     1      10.563   6.038  -1.492  0.00  0.00    -0.059 C 
ATOM     22  C   UNL     1      11.489   6.647  -0.751  0.00  0.00    +0.014 C 
ATOM     23  C   UNL     1      11.433   8.091  -0.991  0.00  0.00    +0.241 C 
ATOM     24  O   UNL     1      12.155   8.914  -0.460  0.00  0.00    -0.270 OA
ATOM     25  C   UNL     1      12.432   5.920   0.180  0.00  0.00    +0.040 C 
ATOM     26  C   UNL     1      11.875   4.516   0.439  0.00  0.00    +0.005 C 
ATOM     27  C   UNL     1      11.532   3.849  -0.897  0.00  0.00    +0.005 C 
ATOM     28  C   UNL     1      10.318   4.552  -1.516  0.00  0.00    +0.031 C 
BRANCH  19  29
ATOM     29  C   UNL     1      10.104   9.705  -2.379  0.00  0.00    +0.108 C 
BRANCH  29  30
ATOM     30  C   UNL     1       9.123  10.362  -1.405  0.00  0.00    +0.047 C 
BRANCH  30  31
ATOM     31  C   UNL     1       8.654  11.700  -1.980  0.00  0.00    +0.161 C 
BRANCH  31  32
ATOM     32  O   UNL     1       7.826  12.365  -1.023  0.00  0.00    -0.377 OA
BRANCH  32  34
ATOM     33  C   UNL     1       5.993  13.437  -2.177  0.00  0.00    +0.037 C 
ATOM     34  C   UNL     1       7.332  13.632  -1.463  0.00  0.00    +0.112 C 
ATOM     35  C   UNL     1       7.137  14.550  -0.255  0.00  0.00    +0.037 C 
ENDBRANCH  32  34
ENDBRANCH  31  32
ENDBRANCH  30  31
ENDBRANCH  29  30
ENDBRANCH  19  29
ENDBRANCH  16  20
ENDBRANCH   1  16
BRANCH   1  36
ATOM     36  C   UNL     1       6.499   6.997  -3.440  0.00  0.00    +0.109 C 
BRANCH  36  37
ATOM     37  C   UNL     1       7.060   8.135  -4.253  0.00  0.00    +0.306 C 
ATOM     38  O   UNL     1       8.256   8.256  -4.379  0.00  0.00    -0.251 OA
BRANCH  37  39
ATOM     39  O   UNL     1       6.231   9.014  -4.838  0.00  0.00    -0.468 OA
ATOM     40  C   UNL     1       6.834  10.015  -5.701  0.00  0.00    +0.280 C 
ENDBRANCH  37  39
ENDBRANCH  36  37
ENDBRANCH   1  36
TORSDOF 14
