REMARK  Name = ZINC01757195
REMARK  11 active torsions:
REMARK  status: ('A' for Active; 'I' for Inactive)
REMARK    1  A    between atoms: C_1  and  C_2
REMARK    2  A    between atoms: C_2  and  O_3
REMARK    3  A    between atoms: O_3  and  C_4
REMARK    4  A    between atoms: C_4  and  C_6
REMARK    5  A    between atoms: C_10  and  N_11
REMARK    6  A    between atoms: C_12  and  C_14
REMARK    7  A    between atoms: C_14  and  C_31
REMARK    8  A    between atoms: C_15  and  C_16
REMARK    9  A    between atoms: C_19  and  C_21
REMARK   10  A    between atoms: C_25  and  N_27
REMARK   11  A    between atoms: C_34  and  C_38
REMARK                            x       y       z     vdW  Elec       q    Type
REMARK                         _______ _______ _______ _____ _____    ______ ____
ROOT
ATOM      1  N   UNL     1      -3.034  -2.524   2.497  0.00  0.00    -0.275 N 
ATOM      2  C   UNL     1      -3.809  -2.867   3.545  0.00  0.00    +0.259 C 
ATOM      3  O   UNL     1      -4.915  -3.340   3.355  0.00  0.00    -0.269 OA
ATOM      4  H   UNL     1      -2.153  -2.147   2.649  0.00  0.00    +0.156 HD
ENDROOT
BRANCH   1   9
ATOM      5  C   UNL     1      -2.842  -2.416   0.016  0.00  0.00    +0.091 A 
ATOM      6  C   UNL     1      -3.548  -2.714  -1.219  0.00  0.00    -0.021 A 
ATOM      7  C   UNL     1      -4.777  -3.242  -1.039  0.00  0.00    -0.004 A 
ATOM      8  S   UNL     1      -4.974  -3.335   0.716  0.00  0.00    -0.077 S 
ATOM      9  C   UNL     1      -3.495  -2.708   1.205  0.00  0.00    +0.087 A 
ATOM     10  C   UNL     1      -5.745  -3.651  -2.106  0.00  0.00    +0.046 C 
ATOM     11  C   UNL     1      -5.287  -3.033  -3.436  0.00  0.00    -0.009 C 
ATOM     12  C   UNL     1      -3.790  -3.300  -3.616  0.00  0.00    +0.008 C 
ATOM     13  C   UNL     1      -2.988  -2.468  -2.612  0.00  0.00    +0.037 C 
ATOM     14  C   UNL     1      -6.066  -3.667  -4.590  0.00  0.00    +0.008 C 
BRANCH   5  15
ATOM     15  C   UNL     1      -1.497  -1.838   0.006  0.00  0.00    +0.342 C 
ATOM     16  O   UNL     1      -0.522  -2.566  -0.007  0.00  0.00    -0.245 OA
BRANCH  15  17
ATOM     17  O   UNL     1      -1.339  -0.499   0.012  0.00  0.00    -0.461 OA
BRANCH  17  19
ATOM     18  C   UNL     1      -0.019   1.526   0.010  0.00  0.00    +0.048 C 
ATOM     19  C   UNL     1       0.002  -0.004   0.002  0.00  0.00    +0.229 C 
ENDBRANCH  17  19
ENDBRANCH  15  17
ENDBRANCH   5  15
ENDBRANCH   1   9
BRANCH   2  20
ATOM     20  C   UNL     1      -3.321  -2.672   4.914  0.00  0.00    +0.117 C 
ATOM     21  C   UNL     1      -4.120  -3.025   5.994  0.00  0.00    +0.070 C 
BRANCH  21  22
ATOM     22  C   UNL     1      -3.652  -2.838   7.304  0.00  0.00    +0.130 A 
ATOM     23  C   UNL     1      -4.341  -3.152   8.467  0.00  0.00    +0.050 A 
ATOM     24  C   UNL     1      -3.512  -2.805   9.533  0.00  0.00    +0.050 A 
ATOM     25  C   UNL     1      -2.351  -2.294   8.991  0.00  0.00    +0.136 A 
ATOM     26  O   UNL     1      -2.451  -2.327   7.651  0.00  0.00    -0.455 OA
BRANCH  25  27
ATOM     27  C   UNL     1      -1.191  -1.798   9.756  0.00  0.00    +0.020 A 
ATOM     28  C   UNL     1      -1.206  -1.827  11.153  0.00  0.00    +0.013 A 
ATOM     29  C   UNL     1      -0.119  -1.363  11.861  0.00  0.00    +0.023 A 
ATOM     30  C   UNL     1       0.988  -0.868  11.191  0.00  0.00    +0.071 A 
ATOM     31  C   UNL     1       1.010  -0.835   9.806  0.00  0.00    +0.145 A 
ATOM     32  C   UNL     1      -0.069  -1.302   9.086  0.00  0.00    +0.045 A 
ATOM     33 CL   UNL     1       2.354  -0.284  12.091  0.00  0.00    -0.081 Cl
BRANCH  31  34
ATOM     34  N   UNL     1       2.196  -0.304   9.099  0.00  0.00    +0.058 N 
ATOM     35  O   UNL     1       2.216  -0.275   7.890  0.00  0.00    -0.126 OA
ATOM     36  O   UNL     1       3.145   0.102   9.729  0.00  0.00    -0.126 OA
ENDBRANCH  31  34
ENDBRANCH  25  27
ENDBRANCH  21  22
BRANCH  20  37
ATOM     37  C   UNL     1      -2.020  -2.116   5.138  0.00  0.00    +0.104 C 
ATOM     38  N   UNL     1      -0.988  -1.675   5.315  0.00  0.00    -0.191 NA
ENDBRANCH  20  37
ENDBRANCH   2  20
TORSDOF 9
