REMARK  Name = ZINC21901600
REMARK  6 active torsions:
REMARK  status: ('A' for Active; 'I' for Inactive)
REMARK    1  A    between atoms: C_1  and  C_2
REMARK    2  A    between atoms: C_7  and  C_9
REMARK    3  A    between atoms: C_7  and  C_10
REMARK    4  A    between atoms: N_13  and  C_17
REMARK    5  A    between atoms: C_17  and  C_18
REMARK    6  A    between atoms: N_20  and  C_21
REMARK                            x       y       z     vdW  Elec       q    Type
REMARK                         _______ _______ _______ _____ _____    ______ ____
ROOT
ATOM      1  C   UNL     1      -0.842   1.572   0.234  0.00  0.00    +0.007 C 
ATOM      2  C   UNL     1      -0.447   0.100   0.100  0.00  0.00    -0.011 C 
ATOM      3  C   UNL     1       0.202  -0.132  -1.267  0.00  0.00    +0.038 C 
ATOM      4  C   UNL     1       0.614  -1.595  -1.393  0.00  0.00    +0.113 C 
ATOM      5  C   UNL     1       1.590  -1.978  -0.286  0.00  0.00    +0.041 C 
ATOM      6  C   UNL     1       0.935  -1.739   1.078  0.00  0.00    -0.032 C 
ATOM      7  C   UNL     1       0.547  -0.264   1.204  0.00  0.00    +0.009 C 
ATOM      8  C   UNL     1      -0.317  -2.609   1.202  0.00  0.00    +0.011 C 
ATOM      9  C   UNL     1       1.923  -2.104   2.188  0.00  0.00    +0.011 C 
ATOM     10  C   UNL     1       1.227  -1.855  -2.750  0.00  0.00    +0.247 C 
ATOM     11  O   UNL     1       2.227  -1.350  -3.213  0.00  0.00    -0.273 OA
ATOM     12  N   UNL     1       0.427  -2.769  -3.337  0.00  0.00    -0.215 N 
ATOM     13  C   UNL     1      -0.594  -3.114  -2.542  0.00  0.00    +0.310 C 
ATOM     14  O   UNL     1      -1.448  -3.922  -2.851  0.00  0.00    -0.252 OA
ATOM     15  N   UNL     1      -0.567  -2.467  -1.362  0.00  0.00    -0.285 N 
ATOM     16  H   UNL     1      -1.203  -2.558  -0.635  0.00  0.00    +0.151 HD
ENDROOT
BRANCH  12  17
ATOM     17  C   UNL     1       0.647  -3.316  -4.678  0.00  0.00    +0.214 C 
BRANCH  17  18
ATOM     18  C   UNL     1       1.509  -4.549  -4.583  0.00  0.00    +0.236 C 
ATOM     19  O   UNL     1       1.900  -4.933  -3.501  0.00  0.00    -0.274 OA
ATOM     20  N   UNL     1       1.844  -5.224  -5.699  0.00  0.00    -0.267 N 
ATOM     21  H   UNL     1       1.603  -4.872  -6.570  0.00  0.00    +0.156 HD
BRANCH  20  22
ATOM     22  C   UNL     1       2.538  -6.432  -5.603  0.00  0.00    +0.150 A 
ATOM     23  C   UNL     1       3.019  -7.047  -6.758  0.00  0.00    +0.217 A 
ATOM     24  C   UNL     1       3.708  -8.247  -6.644  0.00  0.00    +0.056 A 
ATOM     25  C   UNL     1       3.890  -8.788  -5.379  0.00  0.00    +0.021 A 
ATOM     26  C   UNL     1       3.385  -8.122  -4.280  0.00  0.00    +0.084 A 
ATOM     27  N   UNL     1       2.739  -6.980  -4.416  0.00  0.00    -0.346 N 
ATOM     28  O   UNL     1       2.817  -6.481  -7.977  0.00  0.00    -0.284 OA
ATOM     29  H   UNL     1       2.399  -6.532  -3.625  0.00  0.00    +0.167 HD
ENDBRANCH  20  22
ENDBRANCH  17  18
ENDBRANCH  12  17
TORSDOF 3
