REMARK  Name = ZINC50577760
REMARK  8 active torsions:
REMARK  status: ('A' for Active; 'I' for Inactive)
REMARK    1  A    between atoms: C_1  and  C_2
REMARK    2  A    between atoms: N_8  and  C_9
REMARK    3  A    between atoms: C_9  and  C_11
REMARK    4  A    between atoms: C_9  and  C_12
REMARK    5  A    between atoms: C_12  and  N_13
REMARK    6  A    between atoms: C_14  and  C_16
REMARK    7  A    between atoms: N_18  and  N_19
REMARK    8  A    between atoms: N_19  and  C_20
REMARK                            x       y       z     vdW  Elec       q    Type
REMARK                         _______ _______ _______ _____ _____    ______ ____
ROOT
ATOM      1  N   UNL     1      -0.779   1.937   0.763  0.00  0.00    -0.309 N 
ATOM      2  C   UNL     1      -1.054   3.210   0.417  0.00  0.00    +0.300 C 
ATOM      3  O   UNL     1      -0.601   4.127   1.071  0.00  0.00    -0.265 OA
ATOM      4  H   UNL     1      -1.080   1.206   0.201  0.00  0.00    +0.149 HD
ENDROOT
BRANCH   2   5
ATOM      5  C   UNL     1      -1.915   3.493  -0.770  0.00  0.00    +0.315 C 
ATOM      6  O   UNL     1      -2.443   2.578  -1.369  0.00  0.00    -0.264 OA
ATOM      7  N   UNL     1      -2.106   4.763  -1.177  0.00  0.00    -0.229 N 
ATOM      8  H   UNL     1      -1.685   5.494  -0.699  0.00  0.00    +0.173 HD
BRANCH   7   9
ATOM      9  N   UNL     1      -2.914   5.029  -2.291  0.00  0.00    -0.263 N 
ATOM     10  H   UNL     1      -3.336   4.298  -2.769  0.00  0.00    +0.170 HD
BRANCH   9  11
ATOM     11  C   UNL     1      -3.112   6.347  -2.713  0.00  0.00    +0.063 A 
ATOM     12  C   UNL     1      -2.504   7.394  -2.033  0.00  0.00    +0.027 A 
ATOM     13  C   UNL     1      -2.702   8.695  -2.452  0.00  0.00    +0.022 A 
ATOM     14  C   UNL     1      -3.505   8.956  -3.548  0.00  0.00    +0.042 A 
ATOM     15  C   UNL     1      -4.112   7.916  -4.228  0.00  0.00    +0.042 A 
ATOM     16  C   UNL     1      -3.913   6.611  -3.817  0.00  0.00    +0.065 A 
ATOM     17 CL   UNL     1      -4.669   5.305  -4.676  0.00  0.00    -0.082 Cl
ATOM     18 CL   UNL     1      -3.751  10.594  -4.071  0.00  0.00    -0.083 Cl
ENDBRANCH   9  11
ENDBRANCH   7   9
ENDBRANCH   2   5
BRANCH   1  19
ATOM     19  C   UNL     1      -0.027   1.656   1.988  0.00  0.00    +0.089 C 
BRANCH  19  20
ATOM     20  C   UNL     1       0.045   0.144   2.208  0.00  0.00    -0.054 C 
ATOM     21  C   UNL     1       0.910  -0.153   3.434  0.00  0.00    -0.012 C 
BRANCH  20  28
ATOM     22  C   UNL     1      -0.820  -2.417   1.446  0.00  0.00    -0.013 C 
ATOM     23  C   UNL     1       0.617  -1.953   1.197  0.00  0.00    -0.071 C 
ATOM     24  C   UNL     1       1.157  -2.626  -0.067  0.00  0.00    -0.016 C 
ATOM     25  C   UNL     1       2.595  -2.159  -0.312  0.00  0.00    -0.003 C 
ATOM     26  C   UNL     1       2.615  -0.631  -0.415  0.00  0.00    -0.019 C 
ATOM     27  C   UNL     1       2.020  -0.032   0.862  0.00  0.00    -0.078 C 
ATOM     28  N   UNL     1       0.637  -0.495   1.025  0.00  0.00    +0.384 N 
ATOM     29  H   UNL     1       0.101  -0.247   0.207  0.00  0.00    -0.081 HD
ENDBRANCH  20  28
ENDBRANCH  19  20
ENDBRANCH   1  19
TORSDOF 6
