REMARK  Name = ZINC13500976
REMARK  16 active torsions:
REMARK  status: ('A' for Active; 'I' for Inactive)
REMARK    1  A    between atoms: C_1  and  C_2
REMARK    2  A    between atoms: C_2  and  C_3
REMARK    3  A    between atoms: C_3  and  C_4
REMARK    4  A    between atoms: C_4  and  C_6
REMARK    5  A    between atoms: C_4  and  N_74
REMARK    6  A    between atoms: N_10  and  C_11
REMARK    7  A    between atoms: C_11  and  C_12
REMARK    8  A    between atoms: C_11  and  C_13
REMARK    9  A    between atoms: C_11  and  C_14
REMARK   10  A    between atoms: C_14  and  C_15
REMARK   11  A    between atoms: C_16  and  C_17
REMARK   12  A    between atoms: C_16  and  N_74
REMARK   13  A    between atoms: C_17  and  C_18
REMARK   14  A    between atoms: C_24  and  C_25
REMARK   15  A    between atoms: C_24  and  N_74
REMARK   16  A    between atoms: C_31  and  C_37
REMARK                            x       y       z     vdW  Elec       q    Type
REMARK                         _______ _______ _______ _____ _____    ______ ____
ROOT
ATOM      1  N   UNL     1       1.376  -0.651   3.426  0.00  0.00    +0.389 N 
ATOM      2  H   UNL     1       0.928  -0.616   4.349  0.00  0.00    -0.080 HD
ENDROOT
BRANCH   1   3
ATOM      3  C   UNL     1       1.432   0.717   2.867  0.00  0.00    +0.003 C 
BRANCH   3   4
ATOM      4  C   UNL     1       0.186   0.981   2.061  0.00  0.00    +0.139 A 
ATOM      5  N   UNL     1      -1.052   0.784   2.446  0.00  0.00    -0.115 NA
ATOM      6  N   UNL     1      -1.829   1.124   1.476  0.00  0.00    -0.023 NA
ATOM      7  N   UNL     1      -1.119   1.538   0.485  0.00  0.00    -0.043 NA
ATOM      8  N   UNL     1       0.128   1.468   0.808  0.00  0.00    -0.225 N 
BRANCH   8   9
ATOM      9  C   UNL     1       1.267   1.843  -0.034  0.00  0.00    +0.061 C 
ATOM     10  C   UNL     1       2.086   0.595  -0.368  0.00  0.00    +0.036 C 
ATOM     11  C   UNL     1       2.147   2.845   0.716  0.00  0.00    +0.036 C 
BRANCH   9  12
ATOM     12  C   UNL     1       0.757   2.481  -1.327  0.00  0.00    +0.026 C 
ATOM     13  C   UNL     1       1.947   2.872  -2.207  0.00  0.00    +0.006 C 
ENDBRANCH   9  12
ENDBRANCH   8   9
ENDBRANCH   3   4
BRANCH   3  14
ATOM     14  C   UNL     1       1.511   1.713   4.025  0.00  0.00    -0.008 C 
BRANCH  14  16
ATOM     15  C   UNL     1       2.927   2.518   5.920  0.00  0.00    +0.004 C 
ATOM     16  C   UNL     1       2.764   1.430   4.857  0.00  0.00    -0.005 C 
ENDBRANCH  14  16
ENDBRANCH   3  14
ENDBRANCH   1   3
BRANCH   1  17
ATOM     17  C   UNL     1       0.581  -1.527   2.540  0.00  0.00    -0.073 C 
BRANCH  17  18
ATOM     18  C   UNL     1       0.317  -2.849   3.263  0.00  0.00    +0.016 C 
BRANCH  18  19
ATOM     19  C   UNL     1      -0.602  -3.703   2.427  0.00  0.00    -0.049 A 
ATOM     20  C   UNL     1      -1.971  -3.611   2.593  0.00  0.00    +0.003 A 
ATOM     21  C   UNL     1      -2.814  -4.391   1.823  0.00  0.00    +0.000 A 
ATOM     22  C   UNL     1      -2.288  -5.270   0.895  0.00  0.00    +0.000 A 
ATOM     23  C   UNL     1      -0.918  -5.366   0.734  0.00  0.00    +0.000 A 
ATOM     24  C   UNL     1      -0.075  -4.582   1.500  0.00  0.00    +0.003 A 
ENDBRANCH  18  19
ENDBRANCH  17  18
ENDBRANCH   1  17
BRANCH   1  25
ATOM     25  C   UNL     1       2.744  -1.191   3.576  0.00  0.00    -0.037 C 
BRANCH  25  26
ATOM     26  C   UNL     1       3.511  -1.053   2.286  0.00  0.00    +0.001 A 
ATOM     27  C   UNL     1       4.321   0.017   2.093  0.00  0.00    +0.017 A 
ATOM     28  C   UNL     1       5.056   0.119   0.831  0.00  0.00    -0.001 A 
ATOM     29  C   UNL     1       5.910   1.197   0.576  0.00  0.00    +0.010 A 
ATOM     30  C   UNL     1       6.578   1.266  -0.614  0.00  0.00    +0.001 A 
ATOM     31  C   UNL     1       6.415   0.275  -1.573  0.00  0.00    +0.005 A 
ATOM     32  C   UNL     1       5.578  -0.795  -1.344  0.00  0.00    -0.026 A 
ATOM     33  C   UNL     1       4.888  -0.887  -0.140  0.00  0.00    +0.052 A 
ATOM     34  N   UNL     1       4.045  -1.947   0.116  0.00  0.00    -0.322 N 
ATOM     35  H   UNL     1       3.930  -2.639  -0.553  0.00  0.00    +0.169 HD
ATOM     36  C   UNL     1       3.378  -2.035   1.281  0.00  0.00    +0.251 A 
ATOM     37  O   UNL     1       2.641  -2.986   1.473  0.00  0.00    -0.268 OA
ATOM     38  C   UNL     1       5.411  -1.863  -2.394  0.00  0.00    +0.046 C 
ENDBRANCH  25  26
ENDBRANCH   1  25
TORSDOF 11
