REMARK  Name = ZINC39662417
REMARK  5 active torsions:
REMARK  status: ('A' for Active; 'I' for Inactive)
REMARK    1  A    between atoms: C_4  and  C_7
REMARK    2  A    between atoms: C_7  and  C_9
REMARK    3  A    between atoms: C_7  and  N_11
REMARK    4  A    between atoms: C_12  and  C_14
REMARK    5  A    between atoms: C_25  and  C_27
REMARK                            x       y       z     vdW  Elec       q    Type
REMARK                         _______ _______ _______ _____ _____    ______ ____
ROOT
ATOM      1  C   UNL     1       5.032  -3.250   1.955  0.00  0.00    +0.100 C 
ATOM      2  C   UNL     1       4.223  -4.436   1.385  0.00  0.00    +0.121 C 
ATOM      3  N   UNL     1       5.247  -5.412   0.947  0.00  0.00    -0.296 N 
ATOM      4  C   UNL     1       6.290  -5.351   1.999  0.00  0.00    +0.115 C 
ATOM      5  C   UNL     1       6.387  -3.855   2.361  0.00  0.00    -0.004 C 
ATOM      6  C   UNL     1       6.613  -3.688   3.860  0.00  0.00    -0.010 C 
ATOM      7  C   UNL     1       7.991  -4.245   4.230  0.00  0.00    -0.082 C 
ATOM      8  N   UNL     1       9.028  -3.530   3.475  0.00  0.00    +0.379 N 
ATOM      9  C   UNL     1       8.858  -3.773   2.038  0.00  0.00    -0.082 C 
ATOM     10  C   UNL     1       7.517  -3.196   1.576  0.00  0.00    -0.010 C 
ATOM     11  C   UNL     1       5.234  -6.183  -0.159  0.00  0.00    +0.249 C 
ATOM     12  O   UNL     1       6.109  -7.009  -0.335  0.00  0.00    -0.270 OA
ATOM     13  H   UNL     1       8.954  -2.541   3.659  0.00  0.00    -0.086 HD
ATOM     14  H   UNL     1       9.937  -3.857   3.765  0.00  0.00    -0.086 HD
ENDROOT
BRANCH  11  15
ATOM     15  C   UNL     1       4.157  -6.025  -1.157  0.00  0.00    +0.073 A 
ATOM     16  C   UNL     1       2.861  -5.707  -0.746  0.00  0.00    +0.016 A 
ATOM     17  C   UNL     1       1.860  -5.560  -1.683  0.00  0.00    +0.002 A 
ATOM     18  C   UNL     1       2.135  -5.726  -3.029  0.00  0.00    +0.023 A 
ATOM     19  C   UNL     1       3.415  -6.040  -3.447  0.00  0.00    +0.077 A 
ATOM     20  C   UNL     1       4.432  -6.186  -2.518  0.00  0.00    +0.154 A 
ATOM     21  F   UNL     1       5.684  -6.488  -2.926  0.00  0.00    -0.203 F 
ATOM     22 CL   UNL     1       3.750  -6.246  -5.138  0.00  0.00    -0.081 Cl
ENDBRANCH  11  15
BRANCH   1  24
ATOM     23  N   UNL     1       5.385  -0.902   1.261  0.00  0.00    -0.296 N 
ATOM     24  C   UNL     1       5.226  -2.191   0.901  0.00  0.00    +0.219 C 
ATOM     25  O   UNL     1       5.238  -2.498  -0.272  0.00  0.00    -0.275 OA
ATOM     26  H   UNL     1       5.376  -0.656   2.200  0.00  0.00    +0.150 HD
BRANCH  23  27
ATOM     27  C   UNL     1       5.573   0.127   0.236  0.00  0.00    +0.207 C 
BRANCH  27  31
ATOM     28  C   UNL     1       7.668   3.449   1.919  0.00  0.00    +0.000 A 
ATOM     29  C   UNL     1       7.965   3.021   0.638  0.00  0.00    +0.000 A 
ATOM     30  C   UNL     1       7.287   1.946   0.094  0.00  0.00    +0.006 A 
ATOM     31  C   UNL     1       6.313   1.299   0.830  0.00  0.00    -0.013 A 
ATOM     32  C   UNL     1       6.016   1.726   2.111  0.00  0.00    +0.006 A 
ATOM     33  C   UNL     1       6.693   2.802   2.655  0.00  0.00    +0.000 A 
ENDBRANCH  27  31
BRANCH  27  34
ATOM     34  C   UNL     1       4.260   0.575  -0.256  0.00  0.00    +0.090 C 
ATOM     35  N   UNL     1       3.247   0.920  -0.636  0.00  0.00    -0.194 NA
ENDBRANCH  27  34
ENDBRANCH  23  27
ENDBRANCH   1  24
TORSDOF 5
