REMARK  Name = ZINC50389830
REMARK  7 active torsions:
REMARK  status: ('A' for Active; 'I' for Inactive)
REMARK    1  A    between atoms: C_1  and  C_2
REMARK    2  A    between atoms: C_2  and  C_4
REMARK    3  A    between atoms: C_2  and  N_9
REMARK    4  A    between atoms: C_4  and  C_5
REMARK    5  A    between atoms: N_6  and  O_7
REMARK    6  A    between atoms: N_9  and  S_10
REMARK    7  A    between atoms: S_10  and  C_13
REMARK                            x       y       z     vdW  Elec       q    Type
REMARK                         _______ _______ _______ _____ _____    ______ ____
ROOT
ATOM      1  N   UNL     1      -1.265  -0.539  -0.047  0.00  0.00    -0.187 NA
ATOM      2  H   UNL     1      -1.680  -0.619   0.826  0.00  0.00    +0.148 HD
ENDROOT
BRANCH   1   3
ATOM      3  S   UNL     1      -2.163  -0.790  -1.416  0.00  0.00    +0.061 S 
ATOM      4  O   UNL     1      -1.416  -1.681  -2.233  0.00  0.00    -0.153 OA
ATOM      5  O   UNL     1      -3.486  -1.078  -0.986  0.00  0.00    -0.153 OA
BRANCH   3   6
ATOM      6  C   UNL     1      -2.236   0.744  -2.279  0.00  0.00    +0.132 A 
ATOM      7  C   UNL     1      -1.660   0.875  -3.529  0.00  0.00    +0.057 A 
ATOM      8  C   UNL     1      -1.735   2.070  -4.166  0.00  0.00    +0.081 A 
ATOM      9  S   UNL     1      -2.641   3.060  -2.989  0.00  0.00    -0.063 S 
ATOM     10  C   UNL     1      -2.864   1.814  -1.730  0.00  0.00    +0.106 A 
ATOM     11 CL   UNL     1      -3.672   1.939  -0.199  0.00  0.00    -0.074 Cl
ATOM     12 CL   UNL     1      -1.111   2.521  -5.722  0.00  0.00    -0.076 Cl
ENDBRANCH   3   6
ENDBRANCH   1   3
BRANCH   1  14
ATOM     13  C   UNL     1       0.321   1.322  -0.083  0.00  0.00    +0.026 C 
ATOM     14  C   UNL     1       0.155  -0.198  -0.155  0.00  0.00    +0.081 C 
BRANCH  14  15
ATOM     15  C   UNL     1       0.926  -0.850   0.995  0.00  0.00    +0.094 C 
BRANCH  15  16
ATOM     16  C   UNL     1       0.864  -2.349   0.854  0.00  0.00    +0.133 C 
ATOM     17  N   UNL     1       0.225  -2.879  -0.135  0.00  0.00    -0.077 NA
ATOM     18  N   UNL     1       1.490  -3.154   1.780  0.00  0.00    -0.344 N 
ATOM     19  H   UNL     1       1.971  -2.755   2.523  0.00  0.00    +0.144 HD
ATOM     20  H   UNL     1       1.451  -4.119   1.690  0.00  0.00    +0.144 HD
BRANCH  17  21
ATOM     21  O   UNL     1       0.167  -4.288  -0.267  0.00  0.00    -0.408 OA
ATOM     22  H   UNL     1      -0.333  -4.591  -1.037  0.00  0.00    +0.328 HD
ENDBRANCH  17  21
ENDBRANCH  15  16
ENDBRANCH  14  15
ENDBRANCH   1  14
TORSDOF 6
