REMARK  Name = ZINC09584434
REMARK  8 active torsions:
REMARK  status: ('A' for Active; 'I' for Inactive)
REMARK    1  A    between atoms: C_1  and  C_2
REMARK    2  A    between atoms: C_2  and  C_4
REMARK    3  A    between atoms: C_2  and  N_58
REMARK    4  A    between atoms: N_6  and  C_7
REMARK    5  A    between atoms: C_8  and  C_15
REMARK    6  A    between atoms: N_20  and  S_23
REMARK    7  A    between atoms: S_23  and  C_26
REMARK    8  A    between atoms: C_29  and  C_32
REMARK                            x       y       z     vdW  Elec       q    Type
REMARK                         _______ _______ _______ _____ _____    ______ ____
ROOT
ATOM      1  C   UNL     1       1.082  -0.615  -5.607  0.00  0.00    -0.004 C 
ATOM      2  C   UNL     1       1.166  -2.138  -5.727  0.00  0.00    +0.017 C 
ENDROOT
BRANCH   2   8
ATOM      3  C   UNL     1       2.400  -2.354  -3.655  0.00  0.00    -0.060 C 
ATOM      4  C   UNL     1       2.468  -3.136  -2.340  0.00  0.00    +0.091 C 
ATOM      5  N   UNL     1       1.211  -2.927  -1.605  0.00  0.00    -0.180 NA
ATOM      6  C   UNL     1      -0.056  -3.163  -2.314  0.00  0.00    +0.091 C 
ATOM      7  C   UNL     1      -0.025  -2.374  -3.632  0.00  0.00    -0.060 C 
ATOM      8  N   UNL     1       1.183  -2.765  -4.389  0.00  0.00    +0.389 N 
ATOM      9  H   UNL     1       1.191  -3.786  -4.500  0.00  0.00    -0.081 HD
BRANCH   5  10
ATOM     10  S   UNL     1       1.222  -2.445  -0.021  0.00  0.00    +0.061 S 
ATOM     11  O   UNL     1       2.476  -2.843   0.516  0.00  0.00    -0.153 OA
ATOM     12  O   UNL     1      -0.014  -2.864   0.540  0.00  0.00    -0.153 OA
BRANCH  10  13
ATOM     13  C   UNL     1       1.208  -0.683  -0.013  0.00  0.00    +0.106 A 
ATOM     14  C   UNL     1       0.002  -0.004   0.002  0.00  0.00    +0.030 A 
ATOM     15  C   UNL     1      -0.017   1.375   0.010  0.00  0.00    +0.021 A 
ATOM     16  C   UNL     1       1.185   2.087   0.002  0.00  0.00    +0.052 A 
ATOM     17  C   UNL     1       2.398   1.395  -0.013  0.00  0.00    +0.021 A 
ATOM     18  C   UNL     1       2.402   0.016  -0.020  0.00  0.00    +0.030 A 
BRANCH  16  19
ATOM     19  C   UNL     1       1.173   3.518   0.009  0.00  0.00    +0.099 C 
ATOM     20  N   UNL     1       1.164   4.654   0.015  0.00  0.00    -0.191 NA
ENDBRANCH  16  19
ENDBRANCH  10  13
ENDBRANCH   5  10
ENDBRANCH   2   8
BRANCH   2  21
ATOM     21  C   UNL     1      -0.031  -2.648  -6.488  0.00  0.00    +0.204 C 
ATOM     22  O   UNL     1      -0.794  -3.432  -5.964  0.00  0.00    -0.277 OA
ATOM     23  N   UNL     1      -0.254  -2.233  -7.751  0.00  0.00    -0.281 N 
ATOM     24  H   UNL     1       0.357  -1.607  -8.170  0.00  0.00    +0.155 HD
BRANCH  23  25
ATOM     25  C   UNL     1      -1.355  -2.702  -8.451  0.00  0.00    +0.084 A 
ATOM     26  C   UNL     1      -1.750  -2.392  -9.741  0.00  0.00    +0.068 A 
ATOM     27  C   UNL     1      -2.962  -3.034 -10.251  0.00  0.00    -0.023 A 
ATOM     28  C   UNL     1      -3.574  -3.864  -9.388  0.00  0.00    -0.004 A 
ATOM     29  S   UNL     1      -2.572  -3.813  -7.922  0.00  0.00    -0.077 S 
ATOM     30  C   UNL     1      -4.811  -4.482  -9.982  0.00  0.00    +0.043 C 
ATOM     31  C   UNL     1      -4.665  -4.261 -11.503  0.00  0.00    +0.010 C 
ATOM     32  C   UNL     1      -3.762  -3.012 -11.553  0.00  0.00    +0.037 C 
BRANCH  26  33
ATOM     33  C   UNL     1      -0.981  -1.457 -10.567  0.00  0.00    +0.244 C 
ATOM     34  O   UNL     1      -0.085  -1.870 -11.280  0.00  0.00    -0.270 OA
ATOM     35  N   UNL     1      -1.265  -0.140 -10.537  0.00  0.00    -0.325 N 
ATOM     36  H   UNL     1      -1.978   0.190  -9.969  0.00  0.00    +0.145 HD
ATOM     37  H   UNL     1      -0.755   0.479 -11.084  0.00  0.00    +0.145 HD
ENDBRANCH  26  33
ENDBRANCH  23  25
ENDBRANCH   2  21
TORSDOF 7
