REMARK  Name = ZINC08789951
REMARK  7 active torsions:
REMARK  status: ('A' for Active; 'I' for Inactive)
REMARK    1  A    between atoms: C_1  and  C_2
REMARK    2  A    between atoms: C_16  and  C_18
REMARK    3  A    between atoms: C_18  and  C_20
REMARK    4  A    between atoms: C_18  and  O_21
REMARK    5  A    between atoms: N_24  and  C_27
REMARK    6  A    between atoms: C_27  and  C_28
REMARK    7  A    between atoms: C_28  and  C_29
REMARK                            x       y       z     vdW  Elec       q    Type
REMARK                         _______ _______ _______ _____ _____    ______ ____
ROOT
ATOM      1  C   UNL     1       3.323  -4.782  -0.521  0.00  0.00    +0.046 C 
ATOM      2  C   UNL     1       2.691  -3.781   0.411  0.00  0.00    -0.028 A 
ATOM      3  C   UNL     1       2.466  -4.116   1.730  0.00  0.00    +0.025 A 
ATOM      4  C   UNL     1       1.886  -3.203   2.594  0.00  0.00    +0.042 A 
ATOM      5  C   UNL     1       1.529  -1.948   2.131  0.00  0.00    +0.024 A 
ATOM      6  C   UNL     1       1.751  -1.610   0.815  0.00  0.00    -0.026 A 
ATOM      7  C   UNL     1       2.334  -2.521  -0.062  0.00  0.00    +0.039 A 
ATOM      8  N   UNL     1       2.457  -1.955  -1.334  0.00  0.00    -0.286 N 
ATOM      9  C   UNL     1       1.982  -0.695  -1.377  0.00  0.00    +0.211 C 
ATOM     10  O   UNL     1       1.956   0.036  -2.345  0.00  0.00    -0.277 OA
ATOM     11  C   UNL     1       1.491  -0.371   0.007  0.00  0.00    +0.050 C 
ATOM     12  C   UNL     1       0.002  -0.004   0.002  0.00  0.00    +0.088 C 
ATOM     13  C   UNL     1      -0.019   1.550   0.011  0.00  0.00    +0.075 C 
ATOM     14  C   UNL     1       1.468   1.965  -0.001  0.00  0.00    -0.028 C 
ATOM     15  C   UNL     1      -0.642   1.897  -1.323  0.00  0.00    +0.224 C 
ATOM     16  O   UNL     1      -0.850   3.020  -1.728  0.00  0.00    -0.275 OA
ATOM     17  N   UNL     1      -0.928   0.771  -1.987  0.00  0.00    -0.241 N 
ATOM     18  C   UNL     1      -0.607  -0.354  -1.337  0.00  0.00    +0.225 C 
ATOM     19  O   UNL     1      -0.779  -1.478  -1.756  0.00  0.00    -0.275 OA
ATOM     20 CL   UNL     1       1.605  -3.631   4.253  0.00  0.00    -0.084 Cl
ATOM     21  H   UNL     1       2.839  -2.416  -2.097  0.00  0.00    +0.155 HD
ATOM     22  N   UNL     1       2.165   0.798   0.543  0.00  0.00    +0.396 N 
ATOM     23  H   UNL     1       3.150   0.805   0.252  0.00  0.00    -0.083 HD
ATOM     24  H   UNL     1       2.111   0.799   1.569  0.00  0.00    -0.083 HD
ENDROOT
BRANCH  14  25
ATOM     25  C   UNL     1       1.682   3.203   0.873  0.00  0.00    +0.098 C 
ATOM     26  C   UNL     1       3.160   3.596   0.846  0.00  0.00    +0.036 C 
BRANCH  25  27
ATOM     27  O   UNL     1       0.892   4.283   0.371  0.00  0.00    -0.394 OA
ATOM     28  H   UNL     1       0.979   5.102   0.878  0.00  0.00    +0.210 HD
ENDBRANCH  25  27
ENDBRANCH  14  25
BRANCH  17  29
ATOM     29  C   UNL     1      -1.543   0.769  -3.316  0.00  0.00    +0.121 C 
BRANCH  29  30
ATOM     30  C   UNL     1      -3.066   0.746  -3.174  0.00  0.00    +0.054 C 
BRANCH  30  31
ATOM     31  C   UNL     1      -3.699   0.744  -4.542  0.00  0.00    -0.046 A 
ATOM     32  C   UNL     1      -4.012   1.941  -5.160  0.00  0.00    +0.004 A 
ATOM     33  C   UNL     1      -4.588   1.939  -6.416  0.00  0.00    +0.000 A 
ATOM     34  C   UNL     1      -4.860   0.742  -7.051  0.00  0.00    +0.000 A 
ATOM     35  C   UNL     1      -4.551  -0.455  -6.430  0.00  0.00    +0.000 A 
ATOM     36  C   UNL     1      -3.971  -0.453  -5.176  0.00  0.00    +0.004 A 
ENDBRANCH  30  31
ENDBRANCH  29  30
ENDBRANCH  17  29
TORSDOF 5
