REMARK  Name = ZINC59037698
REMARK  4 active torsions:
REMARK  status: ('A' for Active; 'I' for Inactive)
REMARK    1  A    between atoms: C_2  and  C_3
REMARK    2  A    between atoms: C_7  and  N_9
REMARK    3  A    between atoms: C_10  and  C_12
REMARK    4  A    between atoms: C_24  and  C_26
REMARK                            x       y       z     vdW  Elec       q    Type
REMARK                         _______ _______ _______ _____ _____    ______ ____
ROOT
ATOM      1  C   UNL     1       3.046   6.471   0.063  0.00  0.00    +0.163 C 
ATOM      2  C   UNL     1       3.456   6.715   1.541  0.00  0.00    +0.037 C 
ATOM      3  C   UNL     1       3.121   8.204   1.718  0.00  0.00    +0.012 C 
ATOM      4  C   UNL     1       3.924   8.925   2.788  0.00  0.00    +0.005 C 
ATOM      5  C   UNL     1       3.541  10.413   2.720  0.00  0.00    +0.000 C 
ATOM      6  C   UNL     1       3.815  10.999   1.339  0.00  0.00    +0.002 C 
ATOM      7  C   UNL     1       3.113  10.188   0.237  0.00  0.00    +0.023 C 
ATOM      8  C   UNL     1       3.581   8.755   0.341  0.00  0.00    +0.080 C 
ATOM      9  N   UNL     1       3.069   7.786  -0.621  0.00  0.00    -0.283 N 
ATOM     10  C   UNL     1       2.689   8.035  -1.889  0.00  0.00    +0.248 C 
ATOM     11  O   UNL     1       2.851   9.141  -2.366  0.00  0.00    -0.270 OA
ENDROOT
BRANCH  10  12
ATOM     12  C   UNL     1       2.074   6.963  -2.701  0.00  0.00    +0.038 A 
ATOM     13  C   UNL     1       2.250   5.625  -2.344  0.00  0.00    +0.013 A 
ATOM     14  C   UNL     1       1.674   4.629  -3.104  0.00  0.00    +0.002 A 
ATOM     15  C   UNL     1       0.923   4.953  -4.221  0.00  0.00    +0.020 A 
ATOM     16  C   UNL     1       0.745   6.278  -4.581  0.00  0.00    +0.042 A 
ATOM     17  C   UNL     1       1.312   7.285  -3.825  0.00  0.00    +0.033 A 
ATOM     18 CL   UNL     1      -0.199   6.675  -5.983  0.00  0.00    -0.084 Cl
ENDBRANCH  10  12
BRANCH   1  20
ATOM     19  N   UNL     1       1.472   4.570   0.224  0.00  0.00    -0.284 N 
ATOM     20  C   UNL     1       1.658   5.886   0.005  0.00  0.00    +0.238 C 
ATOM     21  O   UNL     1       0.709   6.601  -0.240  0.00  0.00    -0.273 OA
ATOM     22  H   UNL     1       2.221   4.011   0.484  0.00  0.00    +0.155 HD
BRANCH  19  27
ATOM     23  C   UNL     1      -1.211   2.168  -0.565  0.00  0.00    +0.026 A 
ATOM     24  C   UNL     1      -2.336   2.913  -0.209  0.00  0.00    +0.017 A 
ATOM     25  C   UNL     1      -2.189   4.193   0.285  0.00  0.00    +0.003 A 
ATOM     26  C   UNL     1      -0.929   4.742   0.429  0.00  0.00    +0.023 A 
ATOM     27  C   UNL     1       0.198   4.009   0.077  0.00  0.00    +0.035 A 
ATOM     28  C   UNL     1       0.061   2.720  -0.415  0.00  0.00    +0.040 A 
BRANCH  23  30
ATOM     29  C   UNL     1      -1.484  -0.249  -1.499  0.00  0.00    +0.009 C 
ATOM     30  C   UNL     1      -1.361   0.840  -1.078  0.00  0.00    -0.070 C 
ENDBRANCH  23  30
ENDBRANCH  19  27
ENDBRANCH   1  20
TORSDOF 4
