REMARK  Name = ZINC28627716
REMARK  12 active torsions:
REMARK  status: ('A' for Active; 'I' for Inactive)
REMARK    1  A    between atoms: C_1  and  C_2
REMARK    2  A    between atoms: C_2  and  C_3
REMARK    3  A    between atoms: C_6  and  N_9
REMARK    4  A    between atoms: C_10  and  C_12
REMARK    5  A    between atoms: C_12  and  S_13
REMARK    6  A    between atoms: S_13  and  C_14
REMARK    7  A    between atoms: C_15  and  C_38
REMARK    8  A    between atoms: C_16  and  C_32
REMARK    9  A    between atoms: C_18  and  C_22
REMARK   10  A    between atoms: C_19  and  C_21
REMARK   11  A    between atoms: N_24  and  C_25
REMARK   12  A    between atoms: C_30  and  C_31
REMARK                            x       y       z     vdW  Elec       q    Type
REMARK                         _______ _______ _______ _____ _____    ______ ____
ROOT
ATOM      1  C   UNL     1       6.881   5.583   0.236  0.00  0.00    +0.080 C 
ATOM      2  C   UNL     1       5.705   6.258   0.337  0.00  0.00    +0.069 C 
ATOM      3  C   UNL     1       4.396   5.597   0.010  0.00  0.00    +0.098 C 
ATOM      4  C   UNL     1       4.548   4.103  -0.032  0.00  0.00    +0.044 C 
ATOM      5  C   UNL     1       5.754   3.518  -0.113  0.00  0.00    +0.014 C 
ATOM      6  N   UNL     1       6.899   4.265  -0.164  0.00  0.00    -0.312 N 
ATOM      7  C   UNL     1       5.847   2.014  -0.155  0.00  0.00    +0.061 C 
ATOM      8  H   UNL     1       7.834   3.812  -0.524  0.00  0.00    +0.152 HD
ENDROOT
BRANCH   3   9
ATOM      9  C   UNL     1       3.917   6.084  -1.333  0.00  0.00    -0.035 A 
ATOM     10  C   UNL     1       4.681   5.858  -2.463  0.00  0.00    +0.004 A 
ATOM     11  C   UNL     1       4.239   6.302  -3.696  0.00  0.00    +0.000 A 
ATOM     12  C   UNL     1       3.038   6.979  -3.797  0.00  0.00    +0.000 A 
ATOM     13  C   UNL     1       2.277   7.209  -2.667  0.00  0.00    +0.000 A 
ATOM     14  C   UNL     1       2.717   6.762  -1.435  0.00  0.00    +0.004 A 
ENDBRANCH   3   9
BRANCH   4  15
ATOM     15  C   UNL     1       3.390   3.291   0.021  0.00  0.00    +0.247 C 
ATOM     16  O   UNL     1       2.751   3.208   1.054  0.00  0.00    -0.270 OA
ATOM     17  N   UNL     1       2.994   2.610  -1.073  0.00  0.00    -0.281 N 
ATOM     18  H   UNL     1       3.609   2.628  -1.984  0.00  0.00    +0.155 HD
BRANCH  17  19
ATOM     19  C   UNL     1       1.800   1.882  -1.048  0.00  0.00    +0.037 A 
ATOM     20  C   UNL     1       1.395   1.247   0.119  0.00  0.00    +0.023 A 
ATOM     21  C   UNL     1       0.216   0.529   0.140  0.00  0.00    +0.002 A 
ATOM     22  C   UNL     1      -0.559   0.436  -1.002  0.00  0.00    +0.000 A 
ATOM     23  C   UNL     1      -0.162   1.071  -2.164  0.00  0.00    +0.005 A 
ATOM     24  C   UNL     1       1.017   1.791  -2.192  0.00  0.00    -0.029 A 
ATOM     25  C   UNL     1       1.452   2.477  -3.461  0.00  0.00    +0.045 C 
ENDBRANCH  17  19
ENDBRANCH   4  15
BRANCH   2  26
ATOM     26  C   UNL     1       5.714   7.625   0.764  0.00  0.00    +0.098 C 
ATOM     27  N   UNL     1       5.721   8.709   1.103  0.00  0.00    -0.191 NA
ENDBRANCH   2  26
BRANCH   1  28
ATOM     28  S   UNL     1       8.394   6.401   0.620  0.00  0.00    -0.100 S 
BRANCH  28  29
ATOM     29  C   UNL     1       9.565   5.054   0.314  0.00  0.00    +0.171 C 
BRANCH  29  31
ATOM     30  N   UNL     1      12.011   4.699   0.423  0.00  0.00    -0.285 N 
ATOM     31  C   UNL     1      10.967   5.537   0.585  0.00  0.00    +0.227 C 
ATOM     32  O   UNL     1      11.156   6.678   0.949  0.00  0.00    -0.275 OA
ATOM     33  H   UNL     1      11.850   3.694   0.006  0.00  0.00    +0.155 HD
BRANCH  30  37
ATOM     34  C   UNL     1      15.845   5.918   1.503  0.00  0.00    -0.048 A 
ATOM     35  C   UNL     1      14.754   6.345   2.236  0.00  0.00    +0.005 A 
ATOM     36  C   UNL     1      13.481   5.943   1.881  0.00  0.00    +0.023 A 
ATOM     37  C   UNL     1      13.299   5.109   0.786  0.00  0.00    +0.033 A 
ATOM     38  C   UNL     1      14.398   4.677   0.055  0.00  0.00    +0.023 A 
ATOM     39  C   UNL     1      15.667   5.088   0.411  0.00  0.00    +0.005 A 
BRANCH  34  41
ATOM     40  C   UNL     1      17.827   5.355   2.883  0.00  0.00    +0.009 C 
ATOM     41  C   UNL     1      17.233   6.359   1.893  0.00  0.00    +0.032 C 
ENDBRANCH  34  41
ENDBRANCH  30  37
ENDBRANCH  29  31
ENDBRANCH  28  29
ENDBRANCH   1  28
TORSDOF 9
