REMARK  Name = ZINC13149162
REMARK  9 active torsions:
REMARK  status: ('A' for Active; 'I' for Inactive)
REMARK    1  A    between atoms: C_1  and  C_2
REMARK    2  A    between atoms: C_2  and  C_4
REMARK    3  A    between atoms: C_2  and  N_19
REMARK    4  A    between atoms: N_6  and  N_7
REMARK    5  A    between atoms: C_8  and  C_10
REMARK    6  A    between atoms: C_10  and  O_11
REMARK    7  A    between atoms: O_11  and  C_12
REMARK    8  A    between atoms: N_19  and  S_20
REMARK    9  A    between atoms: S_20  and  C_23
REMARK                            x       y       z     vdW  Elec       q    Type
REMARK                         _______ _______ _______ _____ _____    ______ ____
ROOT
ATOM      1  C   UNL     1      -3.183  -3.667   0.013  0.00  0.00    +0.247 C 
ATOM      2  O   UNL     1      -2.250  -4.443  -0.000  0.00  0.00    -0.273 OA
ATOM      3  N   UNL     1      -2.954  -2.339   0.018  0.00  0.00    -0.233 N 
ATOM      4  H   UNL     1      -3.700  -1.719   0.028  0.00  0.00    +0.173 HD
ENDROOT
BRANCH   3   5
ATOM      5  N   UNL     1      -1.640  -1.854   0.008  0.00  0.00    -0.232 N 
ATOM      6  C   UNL     1      -1.412  -0.526   0.013  0.00  0.00    +0.267 C 
ATOM      7  O   UNL     1      -2.344   0.250   0.026  0.00  0.00    -0.271 OA
ATOM      8  H   UNL     1      -0.894  -2.474  -0.003  0.00  0.00    +0.173 HD
BRANCH   6   9
ATOM      9  C   UNL     1       0.002  -0.004   0.002  0.00  0.00    +0.326 C 
BRANCH   9  10
ATOM     10  O   UNL     1      -0.017   1.425   0.010  0.00  0.00    -0.483 OA
BRANCH  10  11
ATOM     11  C   UNL     1       1.185   2.058   0.002  0.00  0.00    +0.122 A 
ATOM     12  C   UNL     1       2.360   1.319  -0.008  0.00  0.00    +0.046 A 
ATOM     13  C   UNL     1       3.581   1.965  -0.020  0.00  0.00    +0.005 A 
ATOM     14  C   UNL     1       3.634   3.347  -0.014  0.00  0.00    +0.015 A 
ATOM     15  C   UNL     1       2.465   4.086   0.001  0.00  0.00    +0.021 A 
ATOM     16  C   UNL     1       1.240   3.444   0.009  0.00  0.00    +0.061 A 
ATOM     17 BR   UNL     1       2.541   5.975   0.011  0.00  0.00    -0.050 Br
ENDBRANCH  10  11
ENDBRANCH   9  10
ENDBRANCH   6   9
ENDBRANCH   3   5
BRANCH   1  19
ATOM     18  C   UNL     1      -5.336  -3.682  -1.216  0.00  0.00    +0.035 C 
ATOM     19  C   UNL     1      -4.596  -4.189   0.024  0.00  0.00    +0.160 C 
BRANCH  19  20
ATOM     20  N   UNL     1      -4.577  -5.654   0.015  0.00  0.00    -0.178 NA
ATOM     21  H   UNL     1      -3.887  -6.127  -0.476  0.00  0.00    +0.149 HD
BRANCH  20  22
ATOM     22  S   UNL     1      -5.732  -6.502   0.845  0.00  0.00    +0.059 S 
ATOM     23  O   UNL     1      -5.461  -7.879   0.624  0.00  0.00    -0.153 OA
ATOM     24  O   UNL     1      -5.794  -5.937   2.147  0.00  0.00    -0.153 OA
BRANCH  22  25
ATOM     25  C   UNL     1      -7.280  -6.163   0.074  0.00  0.00    +0.105 A 
ATOM     26  C   UNL     1      -8.050  -5.100   0.508  0.00  0.00    +0.031 A 
ATOM     27  C   UNL     1      -9.262  -4.830  -0.098  0.00  0.00    +0.040 A 
ATOM     28  C   UNL     1      -9.710  -5.632  -1.134  0.00  0.00    +0.124 A 
ATOM     29  C   UNL     1      -8.941  -6.700  -1.565  0.00  0.00    +0.040 A 
ATOM     30  C   UNL     1      -7.727  -6.964  -0.960  0.00  0.00    +0.031 A 
ATOM     31  F   UNL     1     -10.897  -5.372  -1.725  0.00  0.00    -0.205 F 
ENDBRANCH  22  25
ENDBRANCH  20  22
ENDBRANCH  19  20
ENDBRANCH   1  19
TORSDOF 8
