REMARK  Name = ZINC33645873
REMARK  8 active torsions:
REMARK  status: ('A' for Active; 'I' for Inactive)
REMARK    1  A    between atoms: C_4  and  C_7
REMARK    2  A    between atoms: C_7  and  C_8
REMARK    3  A    between atoms: C_7  and  N_14
REMARK    4  A    between atoms: C_15  and  C_17
REMARK    5  A    between atoms: C_17  and  S_18
REMARK    6  A    between atoms: S_18  and  C_19
REMARK    7  A    between atoms: C_22  and  C_25
REMARK    8  A    between atoms: N_23  and  N_24
REMARK                            x       y       z     vdW  Elec       q    Type
REMARK                         _______ _______ _______ _____ _____    ______ ____
ROOT
ATOM      1  N   UNL     1       3.611  -1.865  -0.930  0.00  0.00    -0.304 N 
ATOM      2  C   UNL     1       4.721  -2.370  -1.504  0.00  0.00    +0.224 C 
ATOM      3  O   UNL     1       5.802  -1.868  -1.281  0.00  0.00    -0.275 OA
ATOM      4  H   UNL     1       2.747  -2.267  -1.108  0.00  0.00    +0.150 HD
ENDROOT
BRANCH   1   5
ATOM      5  C   UNL     1       3.711  -0.707  -0.038  0.00  0.00    +0.134 C 
BRANCH   5   9
ATOM      6  C   UNL     1      -0.017   1.378   0.010  0.00  0.00    +0.000 A 
ATOM      7  C   UNL     1       1.171   2.086   0.002  0.00  0.00    +0.000 A 
ATOM      8  C   UNL     1       2.377   1.411  -0.013  0.00  0.00    +0.006 A 
ATOM      9  C   UNL     1       2.396   0.029  -0.020  0.00  0.00    -0.023 A 
ATOM     10  C   UNL     1       1.208  -0.679  -0.012  0.00  0.00    +0.006 A 
ATOM     11  C   UNL     1       0.002  -0.004   0.002  0.00  0.00    +0.000 A 
ENDBRANCH   5   9
BRANCH   5  12
ATOM     12  C   UNL     1       4.044  -1.175   1.356  0.00  0.00    -0.023 A 
ATOM     13  C   UNL     1       3.455  -2.320   1.860  0.00  0.00    +0.006 A 
ATOM     14  C   UNL     1       3.760  -2.748   3.138  0.00  0.00    +0.000 A 
ATOM     15  C   UNL     1       4.654  -2.033   3.912  0.00  0.00    +0.000 A 
ATOM     16  C   UNL     1       5.243  -0.888   3.408  0.00  0.00    +0.000 A 
ATOM     17  C   UNL     1       4.941  -0.462   2.128  0.00  0.00    +0.006 A 
ENDBRANCH   5  12
ENDBRANCH   1   5
BRANCH   2  18
ATOM     18  C   UNL     1       4.619  -3.561  -2.422  0.00  0.00    +0.173 C 
BRANCH  18  19
ATOM     19  S   UNL     1       6.270  -4.000  -3.030  0.00  0.00    -0.075 S 
BRANCH  19  20
ATOM     20  C   UNL     1       5.985  -5.390  -4.075  0.00  0.00    +0.209 A 
ATOM     21  N   UNL     1       4.822  -5.945  -4.333  0.00  0.00    -0.121 NA
ATOM     22  N   UNL     1       4.975  -6.937  -5.135  0.00  0.00    -0.127 NA
ATOM     23  C   UNL     1       6.245  -7.077  -5.438  0.00  0.00    +0.182 A 
ATOM     24  N   UNL     1       6.930  -6.087  -4.772  0.00  0.00    -0.224 N 
BRANCH  23  25
ATOM     25  C   UNL     1       6.828  -8.101  -6.330  0.00  0.00    +0.021 A 
ATOM     26  C   UNL     1       8.203  -8.339  -6.319  0.00  0.00    +0.013 A 
ATOM     27  C   UNL     1       8.741  -9.296  -7.154  0.00  0.00    +0.021 A 
ATOM     28  C   UNL     1       7.920 -10.020  -8.002  0.00  0.00    +0.041 A 
ATOM     29  C   UNL     1       6.555  -9.788  -8.018  0.00  0.00    +0.021 A 
ATOM     30  C   UNL     1       6.004  -8.838  -7.183  0.00  0.00    +0.013 A 
ATOM     31 CL   UNL     1       8.605 -11.223  -9.050  0.00  0.00    -0.084 Cl
ENDBRANCH  23  25
BRANCH  24  32
ATOM     32  N   UNL     1       8.275  -5.851  -4.801  0.00  0.00    -0.295 N 
ATOM     33  H   UNL     1       8.748  -6.366  -4.074  0.00  0.00    +0.163 HD
ATOM     34  H   UNL     1       8.661  -6.069  -5.708  0.00  0.00    +0.163 HD
ENDBRANCH  24  32
ENDBRANCH  19  20
ENDBRANCH  18  19
ENDBRANCH   2  18
TORSDOF 8
