REMARK  Name = ZINC36058011
REMARK  8 active torsions:
REMARK  status: ('A' for Active; 'I' for Inactive)
REMARK    1  A    between atoms: C_1  and  N_2
REMARK    2  A    between atoms: C_5  and  C_8
REMARK    3  A    between atoms: C_5  and  N_26
REMARK    4  A    between atoms: N_10  and  C_11
REMARK    5  A    between atoms: C_11  and  C_13
REMARK    6  A    between atoms: C_11  and  C_20
REMARK    7  A    between atoms: C_13  and  C_14
REMARK    8  A    between atoms: C_27  and  C_32
REMARK                            x       y       z     vdW  Elec       q    Type
REMARK                         _______ _______ _______ _____ _____    ______ ____
ROOT
ATOM      1  C   UNL     1      -0.446   2.077  -0.517  0.00  0.00    -0.096 C 
ATOM      2  N   UNL     1      -0.271   0.620  -0.463  0.00  0.00    +0.378 N 
ATOM      3  C   UNL     1       0.617   0.194  -1.552  0.00  0.00    -0.077 C 
ATOM      4  C   UNL     1       0.738  -1.331  -1.550  0.00  0.00    +0.017 C 
ATOM      5  C   UNL     1       1.317  -1.790  -0.209  0.00  0.00    +0.110 C 
ATOM      6  C   UNL     1       0.424  -1.277   0.924  0.00  0.00    +0.017 C 
ATOM      7  C   UNL     1       0.314   0.246   0.831  0.00  0.00    -0.077 C 
ATOM      8  H   UNL     1      -1.168   0.170  -0.568  0.00  0.00    -0.082 HD
ENDROOT
BRANCH   5   9
ATOM      9  N   UNL     1       2.670  -1.249  -0.049  0.00  0.00    -0.280 N 
ATOM     10  C   UNL     1       3.323  -0.496   1.014  0.00  0.00    +0.116 C 
ATOM     11  C   UNL     1       4.585  -0.492   0.160  0.00  0.00    +0.123 C 
ATOM     12  C   UNL     1       3.762  -1.270  -0.822  0.00  0.00    +0.219 C 
ATOM     13  O   UNL     1       3.998  -1.743  -1.914  0.00  0.00    -0.275 OA
BRANCH  10  14
ATOM     14  C   UNL     1       3.468  -1.272   2.298  0.00  0.00    -0.023 A 
ATOM     15  C   UNL     1       3.931  -2.575   2.268  0.00  0.00    +0.009 A 
ATOM     16  C   UNL     1       4.066  -3.290   3.443  0.00  0.00    +0.050 A 
ATOM     17  C   UNL     1       3.736  -2.704   4.654  0.00  0.00    +0.166 A 
ATOM     18  C   UNL     1       3.270  -1.392   4.684  0.00  0.00    +0.167 A 
ATOM     19  C   UNL     1       3.143  -0.678   3.503  0.00  0.00    +0.055 A 
ATOM     20  O   UNL     1       3.018  -1.048   5.981  0.00  0.00    -0.453 OA
ATOM     21  C   UNL     1       2.946  -2.292   6.701  0.00  0.00    +0.466 C 
ATOM     22  O   UNL     1       3.777  -3.182   5.932  0.00  0.00    -0.453 OA
ENDBRANCH  10  14
ENDBRANCH   5   9
BRANCH   5  23
ATOM     23  C   UNL     1       1.367  -3.295  -0.169  0.00  0.00    +0.237 C 
ATOM     24  O   UNL     1       2.436  -3.866  -0.121  0.00  0.00    -0.273 OA
ATOM     25  N   UNL     1       0.223  -4.008  -0.188  0.00  0.00    -0.306 N 
ATOM     26  H   UNL     1      -0.628  -3.556  -0.300  0.00  0.00    +0.149 HD
BRANCH  25  27
ATOM     27  C   UNL     1       0.265  -5.465  -0.040  0.00  0.00    +0.107 C 
BRANCH  27  28
ATOM     28  C   UNL     1       0.433  -6.103  -1.395  0.00  0.00    -0.027 A 
ATOM     29  C   UNL     1      -0.199  -5.559  -2.498  0.00  0.00    +0.005 A 
ATOM     30  C   UNL     1      -0.045  -6.144  -3.741  0.00  0.00    +0.000 A 
ATOM     31  C   UNL     1       0.741  -7.273  -3.881  0.00  0.00    +0.000 A 
ATOM     32  C   UNL     1       1.373  -7.816  -2.778  0.00  0.00    +0.000 A 
ATOM     33  C   UNL     1       1.223  -7.228  -1.536  0.00  0.00    +0.005 A 
ENDBRANCH  27  28
BRANCH  27  34
ATOM     34  C   UNL     1      -1.040  -5.951   0.594  0.00  0.00    +0.062 C 
BRANCH  34  35
ATOM     35  C   UNL     1      -1.137  -5.429   2.005  0.00  0.00    -0.045 A 
ATOM     36  C   UNL     1      -0.617  -6.168   3.052  0.00  0.00    +0.004 A 
ATOM     37  C   UNL     1      -0.706  -5.690   4.346  0.00  0.00    +0.000 A 
ATOM     38  C   UNL     1      -1.315  -4.473   4.593  0.00  0.00    +0.000 A 
ATOM     39  C   UNL     1      -1.834  -3.735   3.546  0.00  0.00    +0.000 A 
ATOM     40  C   UNL     1      -1.741  -4.211   2.252  0.00  0.00    +0.004 A 
ENDBRANCH  34  35
ENDBRANCH  27  34
ENDBRANCH  25  27
ENDBRANCH   5  23
TORSDOF 7
