REMARK  Name = ZINC59044933
REMARK  9 active torsions:
REMARK  status: ('A' for Active; 'I' for Inactive)
REMARK    1  A    between atoms: C_1  and  C_2
REMARK    2  A    between atoms: C_2  and  C_3
REMARK    3  A    between atoms: C_3  and  S_4
REMARK    4  A    between atoms: S_4  and  C_5
REMARK    5  A    between atoms: C_11  and  C_13
REMARK    6  A    between atoms: C_13  and  S_14
REMARK    7  A    between atoms: S_14  and  C_15
REMARK    8  A    between atoms: C_18  and  C_21
REMARK    9  A    between atoms: N_19  and  N_20
REMARK                            x       y       z     vdW  Elec       q    Type
REMARK                         _______ _______ _______ _____ _____    ______ ____
ROOT
ATOM      1  S   UNL     1       5.648  -3.348   9.075  0.00  0.00    -0.075 S 
ENDROOT
BRANCH   1   2
ATOM      2  C   UNL     1       6.285  -4.361  10.367  0.00  0.00    +0.209 A 
ATOM      3  N   UNL     1       6.180  -5.668  10.458  0.00  0.00    -0.121 NA
ATOM      4  N   UNL     1       6.758  -6.084  11.527  0.00  0.00    -0.127 NA
ATOM      5  C   UNL     1       7.269  -5.069  12.185  0.00  0.00    +0.183 A 
ATOM      6  N   UNL     1       6.987  -3.935  11.459  0.00  0.00    -0.224 N 
BRANCH   5   7
ATOM      7  C   UNL     1       8.011  -5.133  13.461  0.00  0.00    +0.035 A 
ATOM      8  C   UNL     1       7.690  -4.262  14.504  0.00  0.00    +0.013 A 
ATOM      9  C   UNL     1       8.387  -4.328  15.693  0.00  0.00    +0.001 A 
ATOM     10  C   UNL     1       9.402  -5.254  15.854  0.00  0.00    +0.001 A 
ATOM     11  C   UNL     1       9.726  -6.120  14.825  0.00  0.00    +0.016 A 
ATOM     12  C   UNL     1       9.034  -6.069  13.632  0.00  0.00    +0.029 A 
ATOM     13 BR   UNL     1       9.472  -7.260  12.229  0.00  0.00    -0.050 Br
ENDBRANCH   5   7
BRANCH   6  14
ATOM     14  N   UNL     1       7.333  -2.650  11.768  0.00  0.00    -0.295 N 
ATOM     15  H   UNL     1       6.661  -2.235  12.397  0.00  0.00    +0.163 HD
ATOM     16  H   UNL     1       8.263  -2.609  12.156  0.00  0.00    +0.163 HD
ENDBRANCH   6  14
ENDBRANCH   1   2
BRANCH   1  17
ATOM     17  C   UNL     1       4.836  -4.523   7.956  0.00  0.00    +0.173 C 
BRANCH  17  24
ATOM     18  C   UNL     1       1.863  -2.776   2.566  0.00  0.00    +0.160 A 
ATOM     19  N   UNL     1       2.482  -1.998   3.442  0.00  0.00    -0.133 NA
ATOM     20  N   UNL     1       3.034  -2.466   4.475  0.00  0.00    -0.125 NA
ATOM     21  C   UNL     1       3.031  -3.760   4.748  0.00  0.00    +0.189 A 
ATOM     22  S   UNL     1       2.109  -4.372   3.340  0.00  0.00    -0.024 S 
ATOM     23  N   UNL     1       3.582  -4.449   5.825  0.00  0.00    -0.263 N 
ATOM     24  C   UNL     1       4.239  -3.777   6.790  0.00  0.00    +0.229 C 
ATOM     25  O   UNL     1       4.351  -2.571   6.721  0.00  0.00    -0.275 OA
ATOM     26  H   UNL     1       3.493  -5.414   5.881  0.00  0.00    +0.157 HD
BRANCH  18  27
ATOM     27  S   UNL     1       1.030  -2.359   1.070  0.00  0.00    -0.097 S 
BRANCH  27  28
ATOM     28  C   UNL     1       1.205  -0.557   0.959  0.00  0.00    +0.076 C 
BRANCH  28  30
ATOM     29  C   UNL     1       0.665   1.464  -0.407  0.00  0.00    +0.004 C 
ATOM     30  C   UNL     1       0.517  -0.056  -0.313  0.00  0.00    +0.008 C 
ENDBRANCH  28  30
ENDBRANCH  27  28
ENDBRANCH  18  27
ENDBRANCH  17  24
ENDBRANCH   1  17
TORSDOF 8
