REMARK  Name = ZINC10061788
REMARK  10 active torsions:
REMARK  status: ('A' for Active; 'I' for Inactive)
REMARK    1  A    between atoms: C_1  and  C_2
REMARK    2  A    between atoms: C_2  and  O_3
REMARK    3  A    between atoms: O_3  and  C_4
REMARK    4  A    between atoms: C_4  and  C_6
REMARK    5  A    between atoms: C_10  and  N_11
REMARK    6  A    between atoms: C_12  and  C_14
REMARK    7  A    between atoms: C_23  and  C_28
REMARK    8  A    between atoms: C_23  and  C_29
REMARK    9  A    between atoms: C_24  and  C_26
REMARK   10  A    between atoms: C_24  and  C_27
REMARK                            x       y       z     vdW  Elec       q    Type
REMARK                         _______ _______ _______ _____ _____    ______ ____
ROOT
ATOM      1  C   UNL     1      -4.106   1.036  -0.447  0.00  0.00    +0.091 A 
ATOM      2  C   UNL     1      -2.971   1.639   0.222  0.00  0.00    -0.024 A 
ATOM      3  C   UNL     1      -2.662   2.895  -0.174  0.00  0.00    -0.016 A 
ATOM      4  S   UNL     1      -3.864   3.283  -1.415  0.00  0.00    -0.079 S 
ATOM      5  C   UNL     1      -4.757   1.798  -1.413  0.00  0.00    +0.087 A 
ATOM      6  C   UNL     1      -1.545   3.745   0.338  0.00  0.00    -0.041 C 
ATOM      7  C   UNL     1      -0.729   1.579   1.268  0.00  0.00    -0.069 C 
ATOM      8  C   UNL     1      -2.139   0.982   1.314  0.00  0.00    +0.024 C 
ATOM      9  C   UNL     1      -0.013   1.086   0.008  0.00  0.00    -0.010 C 
ATOM     10  C   UNL     1       0.047   1.048   2.488  0.00  0.00    -0.010 C 
ATOM     11  C   UNL     1      -2.158   4.996   0.999  0.00  0.00    -0.005 C 
ATOM     12  C   UNL     1      -0.671   4.212  -0.832  0.00  0.00    -0.005 C 
ATOM     13  N   UNL     1      -0.720   3.061   1.373  0.00  0.00    +0.389 N 
ATOM     14  H   UNL     1      -1.081   3.321   2.299  0.00  0.00    -0.084 HD
ATOM     15  H   UNL     1       0.250   3.385   1.281  0.00  0.00    -0.084 HD
ENDROOT
BRANCH   5  16
ATOM     16  N   UNL     1      -5.854   1.452  -2.183  0.00  0.00    -0.271 N 
ATOM     17  C   UNL     1      -6.353   2.329  -3.077  0.00  0.00    +0.304 C 
ATOM     18  O   UNL     1      -5.840   3.423  -3.206  0.00  0.00    -0.265 OA
ATOM     19  H   UNL     1      -6.262   0.578  -2.081  0.00  0.00    +0.156 HD
BRANCH  17  20
ATOM     20  C   UNL     1      -7.524   1.959  -3.900  0.00  0.00    +0.285 A 
ATOM     21  N   UNL     1      -8.086   2.731  -4.793  0.00  0.00    -0.205 NA
ATOM     22  C   UNL     1      -9.122   2.073  -5.350  0.00  0.00    +0.110 A 
ATOM     23  C   UNL     1     -10.058   2.403  -6.337  0.00  0.00    +0.031 A 
ATOM     24  C   UNL     1     -11.014   1.497  -6.695  0.00  0.00    +0.002 A 
ATOM     25  C   UNL     1     -11.069   0.249  -6.090  0.00  0.00    +0.004 A 
ATOM     26  C   UNL     1     -10.158  -0.097  -5.115  0.00  0.00    +0.048 A 
ATOM     27  C   UNL     1      -9.177   0.809  -4.736  0.00  0.00    +0.156 A 
ATOM     28  O   UNL     1      -8.165   0.775  -3.845  0.00  0.00    -0.432 OA
ENDBRANCH  17  20
ENDBRANCH   5  16
BRANCH   1  29
ATOM     29  C   UNL     1      -4.560  -0.318  -0.125  0.00  0.00    +0.342 C 
ATOM     30  O   UNL     1      -5.391  -0.490   0.746  0.00  0.00    -0.245 OA
BRANCH  29  31
ATOM     31  O   UNL     1      -4.058  -1.375  -0.796  0.00  0.00    -0.461 OA
BRANCH  31  33
ATOM     32  C   UNL     1      -3.873  -3.753  -1.286  0.00  0.00    +0.048 C 
ATOM     33  C   UNL     1      -4.554  -2.688  -0.424  0.00  0.00    +0.229 C 
ENDBRANCH  31  33
ENDBRANCH  29  31
ENDBRANCH   1  29
TORSDOF 5
