REMARK  Name = ZINC25153895
REMARK  11 active torsions:
REMARK  status: ('A' for Active; 'I' for Inactive)
REMARK    1  A    between atoms: C_1  and  C_2
REMARK    2  A    between atoms: C_3  and  C_14
REMARK    3  A    between atoms: C_4  and  C_13
REMARK    4  A    between atoms: C_8  and  C_12
REMARK    5  A    between atoms: N_10  and  C_11
REMARK    6  A    between atoms: C_14  and  C_15
REMARK    7  A    between atoms: C_15  and  C_16
REMARK    8  A    between atoms: N_18  and  C_19
REMARK    9  A    between atoms: C_22  and  N_25
REMARK   10  A    between atoms: N_25  and  S_26
REMARK   11  A    between atoms: S_26  and  C_29
REMARK                            x       y       z     vdW  Elec       q    Type
REMARK                         _______ _______ _______ _____ _____    ______ ____
ROOT
ATOM      1  C   UNL     1       6.224   0.178  -3.882  0.00  0.00    +0.218 C 
ATOM      2  O   UNL     1       5.866   1.018  -3.083  0.00  0.00    -0.275 OA
ATOM      3  N   UNL     1       5.593  -1.011  -3.939  0.00  0.00    -0.285 N 
ATOM      4  H   UNL     1       5.969  -1.802  -4.603  0.00  0.00    +0.155 HD
ENDROOT
BRANCH   3   5
ATOM      5  C   UNL     1       4.456  -1.239  -3.151  0.00  0.00    +0.033 A 
ATOM      6  C   UNL     1       3.562  -0.204  -2.906  0.00  0.00    +0.025 A 
ATOM      7  C   UNL     1       2.442  -0.429  -2.131  0.00  0.00    +0.026 A 
ATOM      8  C   UNL     1       2.209  -1.689  -1.596  0.00  0.00    +0.048 A 
ATOM      9  C   UNL     1       3.106  -2.722  -1.836  0.00  0.00    +0.026 A 
ATOM     10  C   UNL     1       4.223  -2.499  -2.616  0.00  0.00    +0.025 A 
BRANCH   8  11
ATOM     11  N   UNL     1       1.075  -1.917  -0.810  0.00  0.00    -0.216 N 
ATOM     12  H   UNL     1       1.174  -2.025   0.281  0.00  0.00    +0.174 HD
BRANCH  11  13
ATOM     13  S   UNL     1      -0.417  -2.023  -1.520  0.00  0.00    +0.072 S 
ATOM     14  O   UNL     1      -0.550  -0.883  -2.358  0.00  0.00    -0.150 OA
ATOM     15  O   UNL     1      -1.342  -2.316  -0.482  0.00  0.00    -0.150 OA
BRANCH  13  16
ATOM     16  C   UNL     1      -0.390  -3.428  -2.582  0.00  0.00    +0.109 A 
ATOM     17  C   UNL     1      -0.652  -4.686  -2.071  0.00  0.00    +0.031 A 
ATOM     18  C   UNL     1      -0.631  -5.789  -2.903  0.00  0.00    +0.040 A 
ATOM     19  C   UNL     1      -0.346  -5.634  -4.250  0.00  0.00    +0.124 A 
ATOM     20  C   UNL     1      -0.083  -4.374  -4.760  0.00  0.00    +0.040 A 
ATOM     21  C   UNL     1      -0.106  -3.273  -3.926  0.00  0.00    +0.031 A 
ATOM     22  F   UNL     1      -0.325  -6.712  -5.064  0.00  0.00    -0.205 F 
ENDBRANCH  13  16
ENDBRANCH  11  13
ENDBRANCH   8  11
ENDBRANCH   3   5
BRANCH   1  23
ATOM     23  C   UNL     1       7.377   0.465  -4.810  0.00  0.00    +0.101 C 
BRANCH  23  24
ATOM     24  C   UNL     1       7.911   1.873  -4.541  0.00  0.00    +0.046 C 
BRANCH  24  27
ATOM     25  C   UNL     1       7.438   3.081  -7.137  0.00  0.00    +0.045 C 
ATOM     26  C   UNL     1       8.835   2.729  -6.695  0.00  0.00    -0.033 A 
ATOM     27  C   UNL     1       9.063   2.159  -5.469  0.00  0.00    -0.022 A 
ATOM     28  C   UNL     1      10.360   1.852  -5.086  0.00  0.00    +0.044 A 
ATOM     29  N   UNL     1      11.386   2.085  -5.876  0.00  0.00    -0.232 NA
ATOM     30  C   UNL     1      11.227   2.635  -7.074  0.00  0.00    +0.159 A 
ATOM     31  C   UNL     1       9.935   2.977  -7.523  0.00  0.00    +0.045 A 
ATOM     32  C   UNL     1      10.099   3.551  -8.854  0.00  0.00    +0.069 A 
ATOM     33  N   UNL     1      11.370   3.537  -9.136  0.00  0.00    -0.174 NA
ATOM     34  N   UNL     1      12.093   2.984  -8.074  0.00  0.00    -0.249 N 
ATOM     35  C   UNL     1      13.547   2.808  -8.038  0.00  0.00    +0.174 C 
ATOM     36  C   UNL     1       8.996   4.067  -9.742  0.00  0.00    +0.068 C 
ATOM     37  C   UNL     1      10.600   1.231  -3.734  0.00  0.00    +0.066 C 
ENDBRANCH  24  27
ENDBRANCH  23  24
ENDBRANCH   1  23
TORSDOF 7
