REMARK  Name = ZINC39966699
REMARK  7 active torsions:
REMARK  status: ('A' for Active; 'I' for Inactive)
REMARK    1  A    between atoms: C_1  and  C_2
REMARK    2  A    between atoms: C_8  and  C_10
REMARK    3  A    between atoms: C_10  and  S_11
REMARK    4  A    between atoms: S_11  and  C_12
REMARK    5  A    between atoms: C_15  and  C_20
REMARK    6  A    between atoms: N_16  and  C_17
REMARK    7  A    between atoms: C_17  and  C_18
REMARK                            x       y       z     vdW  Elec       q    Type
REMARK                         _______ _______ _______ _____ _____    ______ ____
ROOT
ATOM      1  C   UNL     1      -6.269  -5.421   0.021  0.00  0.00    +0.193 A 
ATOM      2  N   UNL     1      -5.739  -6.621  -0.025  0.00  0.00    -0.122 NA
ATOM      3  N   UNL     1      -6.664  -7.512  -0.039  0.00  0.00    -0.128 NA
ATOM      4  C   UNL     1      -7.843  -6.936  -0.004  0.00  0.00    +0.166 A 
ATOM      5  N   UNL     1      -7.628  -5.579   0.042  0.00  0.00    -0.298 N 
ENDROOT
BRANCH   4   6
ATOM      6  C   UNL     1      -9.155  -7.619  -0.006  0.00  0.00    +0.030 A 
ATOM      7  C   UNL     1     -10.115  -7.261   0.895  0.00  0.00    +0.057 A 
ATOM      8  S   UNL     1     -11.452  -8.363   0.462  0.00  0.00    -0.101 S 
ATOM      9  C   UNL     1     -10.650  -9.207  -0.878  0.00  0.00    -0.006 A 
ATOM     10  C   UNL     1      -9.422  -8.638  -0.943  0.00  0.00    -0.026 A 
ATOM     11  C   UNL     1      -8.375  -9.084  -1.960  0.00  0.00    +0.036 C 
ATOM     12  C   UNL     1      -9.061  -9.672  -3.187  0.00  0.00    +0.005 C 
ATOM     13  C   UNL     1      -9.281 -11.174  -3.016  0.00  0.00    +0.001 C 
ATOM     14  C   UNL     1     -10.212 -11.436  -1.837  0.00  0.00    +0.005 C 
ATOM     15  C   UNL     1     -11.214 -10.287  -1.742  0.00  0.00    +0.043 C 
ENDBRANCH   4   6
BRANCH   1  16
ATOM     16  S   UNL     1      -5.394  -3.892   0.057  0.00  0.00    -0.077 S 
BRANCH  16  17
ATOM     17  C   UNL     1      -3.649  -4.383   0.006  0.00  0.00    +0.173 C 
BRANCH  17  25
ATOM     18  C   UNL     1      -0.031   1.512   0.138  0.00  0.00    +0.089 C 
ATOM     19  C   UNL     1      -0.008   0.006   0.086  0.00  0.00    +0.136 A 
ATOM     20  C   UNL     1      -1.085  -0.799   0.079  0.00  0.00    +0.091 A 
ATOM     21  C   UNL     1      -0.633  -2.136   0.024  0.00  0.00    +0.168 A 
ATOM     22  N   UNL     1       0.675  -2.117  -0.001  0.00  0.00    -0.063 NA
ATOM     23  O   UNL     1       1.090  -0.763   0.033  0.00  0.00    -0.358 OA
ATOM     24  N   UNL     1      -1.438  -3.275   0.001  0.00  0.00    -0.267 N 
ATOM     25  C   UNL     1      -2.779  -3.153   0.031  0.00  0.00    +0.229 C 
ATOM     26  O   UNL     1      -3.287  -2.053   0.079  0.00  0.00    -0.275 OA
ATOM     27  H   UNL     1      -1.032  -4.155  -0.037  0.00  0.00    +0.156 HD
ENDBRANCH  17  25
ENDBRANCH  16  17
ENDBRANCH   1  16
BRANCH   5  28
ATOM     28  C   UNL     1      -8.641  -4.523   0.098  0.00  0.00    +0.152 C 
BRANCH  28  29
ATOM     29  C   UNL     1      -9.107  -4.199  -1.298  0.00  0.00    -0.013 C 
ATOM     30  C   UNL     1     -10.382  -4.253  -1.592  0.00  0.00    +0.005 C 
ENDBRANCH  28  29
ENDBRANCH   5  28
TORSDOF 6
