REMARK  Name = ZINC00685968
REMARK  8 active torsions:
REMARK  status: ('A' for Active; 'I' for Inactive)
REMARK    1  A    between atoms: C_1  and  C_2
REMARK    2  A    between atoms: C_2  and  C_34
REMARK    3  A    between atoms: C_6  and  C_24
REMARK    4  A    between atoms: C_8  and  C_22
REMARK    5  A    between atoms: C_9  and  N_21
REMARK    6  A    between atoms: N_10  and  C_11
REMARK    7  A    between atoms: C_14  and  S_17
REMARK    8  A    between atoms: S_17  and  N_20
REMARK                            x       y       z     vdW  Elec       q    Type
REMARK                         _______ _______ _______ _____ _____    ______ ____
ROOT
ATOM      1  C   UNL     1      -1.249   2.604   3.527  0.00  0.00    +0.011 C 
ATOM      2  C   UNL     1      -0.076   2.744   2.554  0.00  0.00    -0.023 C 
ATOM      3  C   UNL     1      -0.478   3.657   1.393  0.00  0.00    +0.058 C 
ATOM      4  C   UNL     1      -1.637   3.045   0.646  0.00  0.00    +0.025 C 
ATOM      5  C   UNL     1      -1.788   1.706   0.572  0.00  0.00    +0.025 C 
ATOM      6  C   UNL     1      -2.952   1.097  -0.169  0.00  0.00    +0.100 C 
ATOM      7  C   UNL     1      -3.572   2.087  -1.110  0.00  0.00    +0.077 C 
ATOM      8  C   UNL     1      -3.346   3.420  -0.974  0.00  0.00    +0.107 C 
ATOM      9  N   UNL     1      -2.532   3.883   0.034  0.00  0.00    -0.260 N 
ATOM     10  C   UNL     1      -0.878   0.838   1.200  0.00  0.00    +0.162 C 
ATOM     11  O   UNL     1      -1.034  -0.363   1.103  0.00  0.00    -0.292 OA
ATOM     12  C   UNL     1       0.290   1.369   1.987  0.00  0.00    +0.086 C 
ATOM     13  C   UNL     1       1.131   3.336   3.286  0.00  0.00    +0.011 C 
ENDROOT
BRANCH   6  14
ATOM     14  C   UNL     1      -3.991   0.641   0.823  0.00  0.00    +0.000 A 
ATOM     15  C   UNL     1      -4.601   1.559   1.657  0.00  0.00    +0.007 A 
ATOM     16  C   UNL     1      -5.558   1.142   2.563  0.00  0.00    +0.000 A 
ATOM     17  C   UNL     1      -5.899  -0.196   2.643  0.00  0.00    +0.003 A 
ATOM     18  C   UNL     1      -5.287  -1.116   1.813  0.00  0.00    +0.038 A 
ATOM     19  C   UNL     1      -4.332  -0.699   0.902  0.00  0.00    +0.127 A 
ATOM     20  F   UNL     1      -3.733  -1.598   0.091  0.00  0.00    -0.205 F 
ENDBRANCH   6  14
BRANCH   9  21
ATOM     21  C   UNL     1      -2.617   5.221   0.436  0.00  0.00    +0.040 A 
ATOM     22  C   UNL     1      -3.493   5.589   1.449  0.00  0.00    +0.026 A 
ATOM     23  C   UNL     1      -3.571   6.909   1.847  0.00  0.00    +0.030 A 
ATOM     24  C   UNL     1      -2.787   7.866   1.231  0.00  0.00    +0.105 A 
ATOM     25  C   UNL     1      -1.917   7.505   0.218  0.00  0.00    +0.030 A 
ATOM     26  C   UNL     1      -1.830   6.185  -0.181  0.00  0.00    +0.026 A 
BRANCH  24  27
ATOM     27  S   UNL     1      -2.894   9.550   1.737  0.00  0.00    +0.056 S 
ATOM     28  O   UNL     1      -3.381   9.543   3.072  0.00  0.00    -0.153 OA
ATOM     29  O   UNL     1      -1.662  10.162   1.380  0.00  0.00    -0.153 OA
BRANCH  27  30
ATOM     30  N   UNL     1      -4.064  10.267   0.810  0.00  0.00    -0.204 NA
ATOM     31  H   UNL     1      -4.585  11.003   1.169  0.00  0.00    +0.144 HD
ATOM     32  H   UNL     1      -4.230   9.950  -0.091  0.00  0.00    +0.144 HD
ENDBRANCH  27  30
ENDBRANCH  24  27
ENDBRANCH   9  21
BRANCH   8  33
ATOM     33  N   UNL     1      -3.933   4.307  -1.845  0.00  0.00    -0.345 N 
ATOM     34  H   UNL     1      -3.704   5.249  -1.805  0.00  0.00    +0.144 HD
ATOM     35  H   UNL     1      -4.575   3.991  -2.500  0.00  0.00    +0.144 HD
ENDBRANCH   8  33
BRANCH   7  36
ATOM     36  C   UNL     1      -4.415   1.620  -2.169  0.00  0.00    +0.099 C 
ATOM     37  N   UNL     1      -5.084   1.249  -3.009  0.00  0.00    -0.191 NA
ENDBRANCH   7  36
TORSDOF 6
