REMARK  Name = ZINC14460963
REMARK  4 active torsions:
REMARK  status: ('A' for Active; 'I' for Inactive)
REMARK    1  A    between atoms: C_1  and  C_2
REMARK    2  A    between atoms: C_7  and  C_8
REMARK    3  A    between atoms: C_10  and  C_19
REMARK    4  A    between atoms: C_24  and  O_25
REMARK                            x       y       z     vdW  Elec       q    Type
REMARK                         _______ _______ _______ _____ _____    ______ ____
ROOT
ATOM      1  C   UNL     1       6.136   4.910  -0.135  0.00  0.00    +0.044 C 
ATOM      2  C   UNL     1       4.779   5.080   0.499  0.00  0.00    -0.046 A 
ATOM      3  C   UNL     1       4.620   4.891   1.860  0.00  0.00    +0.004 A 
ATOM      4  C   UNL     1       3.378   5.048   2.438  0.00  0.00    +0.006 A 
ATOM      5  C   UNL     1       2.277   5.396   1.666  0.00  0.00    -0.019 A 
ATOM      6  C   UNL     1       2.436   5.585   0.306  0.00  0.00    +0.035 A 
ATOM      7  C   UNL     1       3.693   5.426  -0.276  0.00  0.00    -0.026 A 
ATOM      8  C   UNL     1       3.865   5.633  -1.759  0.00  0.00    +0.046 C 
ATOM      9  N   UNL     1       1.370   5.935  -0.524  0.00  0.00    -0.336 N 
ATOM     10  C   UNL     1       0.094   5.446   0.002  0.00  0.00    +0.108 C 
ATOM     11  C   UNL     1      -0.147   6.016   1.391  0.00  0.00    +0.029 C 
ATOM     12  C   UNL     1       0.953   5.549   2.366  0.00  0.00    +0.049 C 
ATOM     13  C   UNL     1       1.068   6.709   3.341  0.00  0.00    -0.023 C 
ATOM     14  C   UNL     1       0.598   7.808   2.807  0.00  0.00    -0.030 C 
ATOM     15  C   UNL     1       0.102   7.544   1.397  0.00  0.00    +0.033 C 
ATOM     16  H   UNL     1       1.522   5.607  -1.466  0.00  0.00    +0.147 HD
ENDROOT
BRANCH  10  17
ATOM     17  C   UNL     1       0.127   3.942   0.077  0.00  0.00    +0.015 A 
ATOM     18  C   UNL     1      -0.298   3.297   1.223  0.00  0.00    +0.024 A 
ATOM     19  C   UNL     1      -0.268   1.916   1.292  0.00  0.00    +0.018 A 
ATOM     20  C   UNL     1       0.186   1.177   0.214  0.00  0.00    +0.019 A 
ATOM     21  C   UNL     1       0.616   1.818  -0.932  0.00  0.00    +0.047 A 
ATOM     22  C   UNL     1       0.583   3.203  -1.005  0.00  0.00    +0.122 A 
ATOM     23 BR   UNL     1      -0.849   1.036   2.862  0.00  0.00    -0.050 Br
BRANCH  22  24
ATOM     24  O   UNL     1       1.000   3.835  -2.133  0.00  0.00    -0.506 OA
ATOM     25  H   UNL     1       1.957   3.970  -2.178  0.00  0.00    +0.292 HD
ENDBRANCH  22  24
ENDBRANCH  10  17
TORSDOF 2
