REMARK  Name = ZINC39599179
REMARK  7 active torsions:
REMARK  status: ('A' for Active; 'I' for Inactive)
REMARK    1  A    between atoms: C_1  and  O_2
REMARK    2  A    between atoms: O_2  and  C_3
REMARK    3  A    between atoms: C_9  and  C_12
REMARK    4  A    between atoms: C_12  and  C_13
REMARK    5  A    between atoms: C_13  and  N_14
REMARK    6  A    between atoms: C_15  and  C_17
REMARK    7  A    between atoms: C_28  and  C_30
REMARK                            x       y       z     vdW  Elec       q    Type
REMARK                         _______ _______ _______ _____ _____    ______ ____
ROOT
ATOM      1  C   UNL     1       2.423  -7.937  -1.862  0.00  0.00    +0.100 C 
ATOM      2  C   UNL     1       0.969  -7.882  -2.381  0.00  0.00    +0.121 C 
ATOM      3  N   UNL     1       1.098  -7.574  -3.825  0.00  0.00    -0.296 N 
ATOM      4  C   UNL     1       2.270  -8.367  -4.267  0.00  0.00    +0.115 C 
ATOM      5  C   UNL     1       3.273  -8.259  -3.102  0.00  0.00    -0.004 C 
ATOM      6  C   UNL     1       4.006  -9.583  -2.911  0.00  0.00    -0.010 C 
ATOM      7  C   UNL     1       4.890  -9.853  -4.131  0.00  0.00    -0.082 C 
ATOM      8  N   UNL     1       5.853  -8.757  -4.293  0.00  0.00    +0.379 N 
ATOM      9  C   UNL     1       5.142  -7.503  -4.569  0.00  0.00    -0.082 C 
ATOM     10  C   UNL     1       4.269  -7.133  -3.367  0.00  0.00    -0.010 C 
ATOM     11  C   UNL     1       0.324  -6.758  -4.568  0.00  0.00    +0.249 C 
ATOM     12  O   UNL     1       0.501  -6.680  -5.768  0.00  0.00    -0.270 OA
ATOM     13  H   UNL     1       6.392  -8.657  -3.446  0.00  0.00    -0.086 HD
ATOM     14  H   UNL     1       6.474  -8.966  -5.061  0.00  0.00    -0.086 HD
ENDROOT
BRANCH  11  15
ATOM     15  C   UNL     1      -0.738  -5.959  -3.924  0.00  0.00    +0.073 A 
ATOM     16  C   UNL     1      -1.447  -6.479  -2.838  0.00  0.00    +0.016 A 
ATOM     17  C   UNL     1      -2.437  -5.728  -2.241  0.00  0.00    +0.002 A 
ATOM     18  C   UNL     1      -2.731  -4.460  -2.713  0.00  0.00    +0.023 A 
ATOM     19  C   UNL     1      -2.035  -3.937  -3.788  0.00  0.00    +0.077 A 
ATOM     20  C   UNL     1      -1.035  -4.677  -4.394  0.00  0.00    +0.154 A 
ATOM     21  F   UNL     1      -0.351  -4.163  -5.440  0.00  0.00    -0.203 F 
ATOM     22 CL   UNL     1      -2.412  -2.346  -4.372  0.00  0.00    -0.081 Cl
ENDBRANCH  11  15
BRANCH   1  24
ATOM     23  N   UNL     1       3.762  -6.544  -0.318  0.00  0.00    -0.315 N 
ATOM     24  C   UNL     1       2.823  -6.604  -1.282  0.00  0.00    +0.218 C 
ATOM     25  O   UNL     1       2.301  -5.586  -1.685  0.00  0.00    -0.275 OA
ATOM     26  H   UNL     1       4.180  -7.358   0.004  0.00  0.00    +0.149 HD
BRANCH  23  27
ATOM     27  C   UNL     1       4.152  -5.248   0.245  0.00  0.00    +0.109 C 
BRANCH  27  28
ATOM     28  C   UNL     1       5.226  -5.459   1.314  0.00  0.00    +0.056 C 
BRANCH  28  35
ATOM     29  C   UNL     1       3.459  -2.784   4.751  0.00  0.00    +0.121 A 
ATOM     30  C   UNL     1       4.179  -1.607   4.938  0.00  0.00    +0.047 A 
ATOM     31  C   UNL     1       5.281  -1.328   4.159  0.00  0.00    +0.030 A 
ATOM     32  C   UNL     1       5.683  -2.225   3.176  0.00  0.00    +0.047 A 
ATOM     33  N   UNL     1       6.715  -2.227   2.261  0.00  0.00    -0.360 N 
ATOM     34  C   UNL     1       6.664  -3.368   1.507  0.00  0.00    +0.087 A 
ATOM     35  C   UNL     1       5.627  -4.127   1.893  0.00  0.00    -0.021 A 
ATOM     36  C   UNL     1       4.957  -3.415   2.985  0.00  0.00    +0.006 A 
ATOM     37  C   UNL     1       3.845  -3.690   3.783  0.00  0.00    +0.056 A 
ATOM     38  H   UNL     1       7.377  -1.525   2.166  0.00  0.00    +0.165 HD
BRANCH  29  40
ATOM     39  C   UNL     1       2.033  -2.068   6.514  0.00  0.00    +0.277 C 
ATOM     40  O   UNL     1       2.374  -3.045   5.528  0.00  0.00    -0.495 OA
ENDBRANCH  29  40
ENDBRANCH  28  35
ENDBRANCH  27  28
ENDBRANCH  23  27
ENDBRANCH   1  24
TORSDOF 6
