REMARK  Name = ZINC21309131
REMARK  9 active torsions:
REMARK  status: ('A' for Active; 'I' for Inactive)
REMARK    1  A    between atoms: C_1  and  C_2
REMARK    2  A    between atoms: C_9  and  C_19
REMARK    3  A    between atoms: C_12  and  C_13
REMARK    4  A    between atoms: N_21  and  C_22
REMARK    5  A    between atoms: C_22  and  C_23
REMARK    6  A    between atoms: C_23  and  C_25
REMARK    7  A    between atoms: C_23  and  N_30
REMARK    8  A    between atoms: N_30  and  C_31
REMARK    9  A    between atoms: N_30  and  C_32
REMARK                            x       y       z     vdW  Elec       q    Type
REMARK                         _______ _______ _______ _____ _____    ______ ____
ROOT
ATOM      1  C   UNL     1       4.895   1.695   2.050  0.00  0.00    +0.051 C 
ATOM      2  C   UNL     1       3.448   1.929   1.702  0.00  0.00    +0.040 A 
ATOM      3  C   UNL     1       2.509   0.876   1.814  0.00  0.00    +0.196 A 
ATOM      4  O   UNL     1       2.843  -0.235   2.190  0.00  0.00    -0.287 OA
ATOM      5  C   UNL     1       1.108   1.176   1.456  0.00  0.00    +0.065 A 
ATOM      6  C   UNL     1       0.115   0.201   1.536  0.00  0.00    +0.015 A 
ATOM      7  C   UNL     1      -1.185   0.514   1.196  0.00  0.00    +0.002 A 
ATOM      8  C   UNL     1      -1.513   1.789   0.774  0.00  0.00    +0.017 A 
ATOM      9  C   UNL     1      -0.535   2.780   0.692  0.00  0.00    +0.080 A 
ATOM     10  C   UNL     1       0.791   2.475   1.030  0.00  0.00    +0.151 A 
ATOM     11  O   UNL     1       1.757   3.411   0.956  0.00  0.00    -0.454 OA
ATOM     12  C   UNL     1       3.034   3.153   1.278  0.00  0.00    +0.142 A 
ENDROOT
BRANCH  12  13
ATOM     13  C   UNL     1       4.027   4.239   1.167  0.00  0.00    +0.018 A 
ATOM     14  C   UNL     1       3.804   5.462   1.803  0.00  0.00    +0.011 A 
ATOM     15  C   UNL     1       4.739   6.471   1.699  0.00  0.00    +0.001 A 
ATOM     16  C   UNL     1       5.891   6.277   0.958  0.00  0.00    +0.000 A 
ATOM     17  C   UNL     1       6.117   5.070   0.320  0.00  0.00    +0.001 A 
ATOM     18  C   UNL     1       5.193   4.051   0.420  0.00  0.00    +0.011 A 
ENDBRANCH  12  13
BRANCH   9  19
ATOM     19  C   UNL     1      -0.893   4.139   0.241  0.00  0.00    +0.248 C 
ATOM     20  O   UNL     1      -0.036   4.998   0.163  0.00  0.00    -0.270 OA
ATOM     21  N   UNL     1      -2.168   4.428  -0.083  0.00  0.00    -0.312 N 
ATOM     22  H   UNL     1      -2.944   3.651  -0.012  0.00  0.00    +0.149 HD
BRANCH  21  23
ATOM     23  C   UNL     1      -2.523   5.778  -0.530  0.00  0.00    +0.097 C 
BRANCH  23  24
ATOM     24  C   UNL     1      -4.022   5.838  -0.832  0.00  0.00    +0.016 C 
BRANCH  24  25
ATOM     25  C   UNL     1      -4.409   7.253  -1.173  0.00  0.00    +0.093 A 
ATOM     26  C   UNL     1      -4.745   7.704  -2.395  0.00  0.00    +0.043 A 
ATOM     27  C   UNL     1      -5.035   9.081  -2.259  0.00  0.00    +0.041 A 
ATOM     28  C   UNL     1      -4.851   9.391  -0.963  0.00  0.00    +0.195 A 
ATOM     29  O   UNL     1      -4.472   8.280  -0.310  0.00  0.00    -0.469 OA
ENDBRANCH  24  25
BRANCH  24  30
ATOM     30  N   UNL     1      -4.777   5.394   0.347  0.00  0.00    +0.384 N 
ATOM     31  C   UNL     1      -4.467   6.229   1.516  0.00  0.00    -0.096 C 
ATOM     32  C   UNL     1      -6.221   5.385   0.075  0.00  0.00    -0.096 C 
ATOM     33  H   UNL     1      -4.470   4.363   0.577  0.00  0.00    -0.082 HD
ENDBRANCH  24  30
ENDBRANCH  23  24
ENDBRANCH  21  23
ENDBRANCH   9  19
TORSDOF 6
