REMARK  Name = ZINC14007811
REMARK  7 active torsions:
REMARK  status: ('A' for Active; 'I' for Inactive)
REMARK    1  A    between atoms: C_1  and  C_2
REMARK    2  A    between atoms: C_5  and  C_8
REMARK    3  A    between atoms: C_11  and  S_14
REMARK    4  A    between atoms: S_14  and  C_15
REMARK    5  A    between atoms: C_15  and  C_16
REMARK    6  A    between atoms: N_18  and  C_19
REMARK    7  A    between atoms: C_29  and  C_31
REMARK                            x       y       z     vdW  Elec       q    Type
REMARK                         _______ _______ _______ _____ _____    ______ ____
ROOT
ATOM      1  C   UNL     1       0.035  -4.255  -0.005  0.00  0.00    +0.109 A 
ATOM      2  C   UNL     1       0.737  -4.955   0.964  0.00  0.00    +0.069 A 
ATOM      3  C   UNL     1       0.765  -6.369   0.952  0.00  0.00    +0.114 A 
ATOM      4  C   UNL     1       0.034  -6.973  -0.105  0.00  0.00    +0.146 A 
ATOM      5  N   UNL     1      -0.603  -6.217  -0.979  0.00  0.00    -0.140 NA
ATOM      6  N   UNL     1      -0.617  -4.935  -0.943  0.00  0.00    -0.147 NA
ATOM      7  N   UNL     1       1.486  -6.899   1.953  0.00  0.00    -0.241 NA
ATOM      8  C   UNL     1       2.093  -6.160   2.838  0.00  0.00    +0.077 A 
ATOM      9  S   UNL     1       1.729  -4.580   2.381  0.00  0.00    -0.070 S 
ATOM     10  C   UNL     1       2.929  -6.614   4.006  0.00  0.00    +0.073 C 
ENDROOT
BRANCH   1  15
ATOM     11  C   UNL     1      -0.075   1.502   0.048  0.00  0.00    +0.044 C 
ATOM     12  C   UNL     1      -0.046  -0.005   0.034  0.00  0.00    -0.050 A 
ATOM     13  C   UNL     1      -0.043  -0.683  -1.171  0.00  0.00    +0.004 A 
ATOM     14  C   UNL     1      -0.017  -2.062  -1.190  0.00  0.00    +0.010 A 
ATOM     15  C   UNL     1       0.007  -2.773   0.009  0.00  0.00    +0.003 A 
ATOM     16  C   UNL     1       0.004  -2.084   1.221  0.00  0.00    +0.010 A 
ATOM     17  C   UNL     1      -0.017  -0.704   1.228  0.00  0.00    +0.004 A 
ENDBRANCH   1  15
BRANCH   4  18
ATOM     18  S   UNL     1      -0.022  -8.729  -0.249  0.00  0.00    -0.093 S 
BRANCH  18  19
ATOM     19  C   UNL     1      -1.051  -9.015  -1.716  0.00  0.00    +0.172 C 
BRANCH  19  20
ATOM     20  C   UNL     1      -1.182 -10.498  -1.955  0.00  0.00    +0.227 C 
ATOM     21  O   UNL     1      -0.635 -11.283  -1.210  0.00  0.00    -0.275 OA
ATOM     22  N   UNL     1      -1.907 -10.950  -2.998  0.00  0.00    -0.285 N 
ATOM     23  H   UNL     1      -2.398 -10.326  -3.554  0.00  0.00    +0.155 HD
BRANCH  22  24
ATOM     24  C   UNL     1      -1.949 -12.322  -3.278  0.00  0.00    +0.037 A 
ATOM     25  C   UNL     1      -2.007 -12.761  -4.594  0.00  0.00    +0.027 A 
ATOM     26  C   UNL     1      -2.049 -14.114  -4.872  0.00  0.00    +0.051 A 
ATOM     27  C   UNL     1      -2.033 -15.036  -3.838  0.00  0.00    +0.166 A 
ATOM     28  C   UNL     1      -1.975 -14.600  -2.517  0.00  0.00    +0.168 A 
ATOM     29  C   UNL     1      -1.928 -13.244  -2.240  0.00  0.00    +0.072 A 
ATOM     30  O   UNL     1      -1.972 -15.691  -1.697  0.00  0.00    -0.453 OA
ATOM     31  C   UNL     1      -2.441 -16.784  -2.508  0.00  0.00    +0.466 C 
ATOM     32  O   UNL     1      -2.067 -16.402  -3.845  0.00  0.00    -0.453 OA
ENDBRANCH  22  24
ENDBRANCH  19  20
ENDBRANCH  18  19
ENDBRANCH   4  18
TORSDOF 5
