REMARK  Name = ZINC09019510
REMARK  13 active torsions:
REMARK  status: ('A' for Active; 'I' for Inactive)
REMARK    1  A    between atoms: C_1  and  C_2
REMARK    2  A    between atoms: C_2  and  C_3
REMARK    3  A    between atoms: C_3  and  C_4
REMARK    4  A    between atoms: C_4  and  C_5
REMARK    5  A    between atoms: C_5  and  N_6
REMARK    6  A    between atoms: N_9  and  C_27
REMARK    7  A    between atoms: C_10  and  N_15
REMARK    8  A    between atoms: C_12  and  C_13
REMARK    9  A    between atoms: C_12  and  C_14
REMARK   10  A    between atoms: N_15  and  O_26
REMARK   11  A    between atoms: N_18  and  C_19
REMARK   12  A    between atoms: C_24  and  C_25
REMARK   13  A    between atoms: C_32  and  C_33
REMARK                            x       y       z     vdW  Elec       q    Type
REMARK                         _______ _______ _______ _____ _____    ______ ____
ROOT
ATOM      1  N   UNL     1       2.835   1.129  -1.886  0.00  0.00    -0.276 N 
ATOM      2  C   UNL     1       2.551  -0.179  -1.913  0.00  0.00    +0.311 C 
ATOM      3  O   UNL     1       2.765  -0.884  -2.881  0.00  0.00    -0.252 OA
ATOM      4  N   UNL     1       2.009  -0.641  -0.779  0.00  0.00    -0.232 N 
ATOM      5  C   UNL     1       1.886   0.464   0.183  0.00  0.00    +0.224 C 
ATOM      6  C   UNL     1       2.454   1.681  -0.573  0.00  0.00    +0.071 C 
ATOM      7  C   UNL     1       1.383   2.761  -0.734  0.00  0.00    +0.035 C 
ATOM      8  C   UNL     1       3.679   2.240   0.153  0.00  0.00    +0.035 C 
ENDROOT
BRANCH   4   9
ATOM      9  C   UNL     1       1.620  -1.966  -0.546  0.00  0.00    +0.043 A 
ATOM     10  C   UNL     1       0.370  -2.407  -0.958  0.00  0.00    +0.024 A 
ATOM     11  C   UNL     1      -0.010  -3.714  -0.728  0.00  0.00    +0.002 A 
ATOM     12  C   UNL     1       0.853  -4.584  -0.086  0.00  0.00    +0.000 A 
ATOM     13  C   UNL     1       2.099  -4.148   0.326  0.00  0.00    +0.005 A 
ATOM     14  C   UNL     1       2.487  -2.842   0.093  0.00  0.00    -0.029 A 
ATOM     15  C   UNL     1       3.847  -2.369   0.536  0.00  0.00    +0.045 C 
ENDBRANCH   4   9
BRANCH   5  16
ATOM     16  N   UNL     1       0.481   0.687   0.534  0.00  0.00    -0.144 N 
ATOM     17  C   UNL     1      -0.453   0.757  -0.435  0.00  0.00    +0.331 C 
ATOM     18  O   UNL     1      -0.145   0.544  -1.592  0.00  0.00    -0.250 OA
ATOM     19  N   UNL     1      -1.727   1.064  -0.122  0.00  0.00    -0.267 N 
ATOM     20  H   UNL     1      -1.986   1.170   0.807  0.00  0.00    +0.156 HD
BRANCH  19  21
ATOM     21  C   UNL     1      -2.677   1.229  -1.137  0.00  0.00    +0.038 A 
ATOM     22  C   UNL     1      -2.538   0.544  -2.337  0.00  0.00    +0.023 A 
ATOM     23  C   UNL     1      -3.477   0.709  -3.337  0.00  0.00    +0.002 A 
ATOM     24  C   UNL     1      -4.554   1.554  -3.143  0.00  0.00    +0.000 A 
ATOM     25  C   UNL     1      -4.695   2.237  -1.949  0.00  0.00    +0.005 A 
ATOM     26  C   UNL     1      -3.762   2.072  -0.943  0.00  0.00    -0.029 A 
ATOM     27  C   UNL     1      -3.920   2.813   0.360  0.00  0.00    +0.045 C 
ENDBRANCH  19  21
BRANCH  16  28
ATOM     28  O   UNL     1       0.104   0.829   1.892  0.00  0.00    -0.289 OA
ATOM     29  H   UNL     1       0.828   0.688   2.517  0.00  0.00    +0.242 HD
ENDBRANCH  16  28
ENDBRANCH   5  16
BRANCH   1  30
ATOM     30  C   UNL     1       3.431   1.891  -2.986  0.00  0.00    +0.110 C 
BRANCH  30  31
ATOM     31  C   UNL     1       2.322   2.453  -3.877  0.00  0.00    +0.019 C 
BRANCH  31  32
ATOM     32  C   UNL     1       2.945   3.249  -5.026  0.00  0.00    +0.001 C 
BRANCH  32  34
ATOM     33  C   UNL     1       2.459   4.607  -7.066  0.00  0.00    +0.004 C 
ATOM     34  C   UNL     1       1.836   3.811  -5.918  0.00  0.00    -0.003 C 
ENDBRANCH  32  34
ENDBRANCH  31  32
ENDBRANCH  30  31
ENDBRANCH   1  30
TORSDOF 8
