REMARK  Name = ZINC00678652
REMARK  10 active torsions:
REMARK  status: ('A' for Active; 'I' for Inactive)
REMARK    1  A    between atoms: C_1  and  C_2
REMARK    2  A    between atoms: C_3  and  C_32
REMARK    3  A    between atoms: C_4  and  C_25
REMARK    4  A    between atoms: C_10  and  C_15
REMARK    5  A    between atoms: C_18  and  O_23
REMARK    6  A    between atoms: C_19  and  O_21
REMARK    7  A    between atoms: O_21  and  C_22
REMARK    8  A    between atoms: O_23  and  C_24
REMARK    9  A    between atoms: C_32  and  O_34
REMARK   10  A    between atoms: O_34  and  C_35
REMARK                            x       y       z     vdW  Elec       q    Type
REMARK                         _______ _______ _______ _____ _____    ______ ____
ROOT
ATOM      1  C   UNL     1      -2.188   3.099  -2.453  0.00  0.00    +0.061 C 
ATOM      2  C   UNL     1      -1.547   2.614  -1.178  0.00  0.00    +0.016 C 
ATOM      3  C   UNL     1      -0.889   1.442  -1.165  0.00  0.00    +0.065 C 
ATOM      4  C   UNL     1      -0.233   0.932   0.083  0.00  0.00    +0.092 C 
ATOM      5  C   UNL     1      -0.771   1.637   1.303  0.00  0.00    +0.024 C 
ATOM      6  C   UNL     1      -1.430   2.808   1.188  0.00  0.00    +0.016 C 
ATOM      7  N   UNL     1      -1.638   3.370  -0.043  0.00  0.00    -0.321 N 
ATOM      8  C   UNL     1      -1.952   3.529   2.406  0.00  0.00    +0.059 C 
ATOM      9  C   UNL     1      -2.323   2.510   3.486  0.00  0.00    +0.032 C 
ATOM     10  C   UNL     1      -1.079   1.681   3.820  0.00  0.00    +0.088 C 
ATOM     11  C   UNL     1      -0.564   1.041   2.560  0.00  0.00    +0.162 C 
ATOM     12  O   UNL     1       0.042  -0.011   2.630  0.00  0.00    -0.292 OA
ATOM     13  H   UNL     1      -1.880   4.441  -0.113  0.00  0.00    +0.152 HD
ENDROOT
BRANCH   4  14
ATOM     14  C   UNL     1       1.254   1.165  -0.008  0.00  0.00    -0.034 A 
ATOM     15  C   UNL     1       1.744   2.451  -0.137  0.00  0.00    +0.004 A 
ATOM     16  C   UNL     1       3.107   2.667  -0.216  0.00  0.00    +0.002 A 
ATOM     17  C   UNL     1       3.980   1.595  -0.176  0.00  0.00    +0.020 A 
ATOM     18  C   UNL     1       3.489   0.308  -0.052  0.00  0.00    +0.041 A 
ATOM     19  C   UNL     1       2.125   0.093   0.032  0.00  0.00    +0.024 A 
ATOM     20 CL   UNL     1       4.585  -1.038  -0.002  0.00  0.00    -0.084 Cl
ENDBRANCH   4  14
BRANCH   9  21
ATOM     21  C   UNL     1      -2.798   3.231   4.721  0.00  0.00    -0.040 A 
ATOM     22  C   UNL     1      -1.955   4.113   5.372  0.00  0.00    +0.008 A 
ATOM     23  C   UNL     1      -2.385   4.777   6.505  0.00  0.00    +0.049 A 
ATOM     24  C   UNL     1      -3.664   4.560   6.992  0.00  0.00    +0.161 A 
ATOM     25  C   UNL     1      -4.513   3.672   6.337  0.00  0.00    +0.162 A 
ATOM     26  C   UNL     1      -4.077   3.014   5.198  0.00  0.00    +0.053 A 
BRANCH  25  27
ATOM     27  O   UNL     1      -5.769   3.455   6.811  0.00  0.00    -0.491 OA
ATOM     28  C   UNL     1      -6.584   2.530   6.088  0.00  0.00    +0.277 C 
ENDBRANCH  25  27
BRANCH  24  29
ATOM     29  O   UNL     1      -4.089   5.212   8.107  0.00  0.00    -0.491 OA
ATOM     30  C   UNL     1      -3.164   6.108   8.726  0.00  0.00    +0.277 C 
ENDBRANCH  24  29
ENDBRANCH   9  21
BRANCH   3  31
ATOM     31  C   UNL     1      -0.815   0.675  -2.352  0.00  0.00    +0.338 C 
ATOM     32  O   UNL     1      -1.444   1.015  -3.336  0.00  0.00    -0.245 OA
BRANCH  31  33
ATOM     33  O   UNL     1      -0.046  -0.433  -2.392  0.00  0.00    -0.458 OA
BRANCH  33  34
ATOM     34  C   UNL     1      -0.018  -1.159  -3.622  0.00  0.00    +0.177 C 
ATOM     35  C   UNL     1      -1.087  -2.271  -3.604  0.00  0.00    +0.044 C 
ATOM     36  C   UNL     1      -0.418  -3.453  -4.349  0.00  0.00    +0.004 C 
ATOM     37  C   UNL     1       1.052  -3.373  -3.868  0.00  0.00    +0.004 C 
ATOM     38  C   UNL     1       1.342  -1.859  -3.790  0.00  0.00    +0.044 C 
ENDBRANCH  33  34
ENDBRANCH  31  33
ENDBRANCH   3  31
TORSDOF 7
