REMARK  Name = ZINC24146193
REMARK  12 active torsions:
REMARK  status: ('A' for Active; 'I' for Inactive)
REMARK    1  A    between atoms: C_1  and  C_2
REMARK    2  A    between atoms: C_2  and  C_3
REMARK    3  A    between atoms: C_2  and  C_4
REMARK    4  A    between atoms: C_7  and  C_10
REMARK    5  A    between atoms: C_10  and  C_36
REMARK    6  A    between atoms: N_13  and  C_17
REMARK    7  A    between atoms: C_17  and  C_18
REMARK    8  A    between atoms: N_20  and  C_21
REMARK    9  A    between atoms: C_21  and  C_23
REMARK   10  A    between atoms: C_21  and  C_33
REMARK   11  A    between atoms: C_33  and  C_34
REMARK   12  A    between atoms: C_33  and  C_35
REMARK                            x       y       z     vdW  Elec       q    Type
REMARK                         _______ _______ _______ _____ _____    ______ ____
ROOT
ATOM      1  C   UNL     1       3.313   6.306   2.726  0.00  0.00    +0.213 C 
ENDROOT
BRANCH   1   5
ATOM      2  C   UNL     1       2.451   3.937  -0.001  0.00  0.00    +0.135 C 
ATOM      3  C   UNL     1       2.287   5.262   0.717  0.00  0.00    +0.251 C 
ATOM      4  O   UNL     1       1.542   6.170   0.417  0.00  0.00    -0.272 OA
ATOM      5  N   UNL     1       3.143   5.221   1.757  0.00  0.00    -0.215 N 
ATOM      6  C   UNL     1       3.818   4.066   1.796  0.00  0.00    +0.310 C 
ATOM      7  O   UNL     1       4.646   3.796   2.643  0.00  0.00    -0.252 OA
ATOM      8  N   UNL     1       3.476   3.237   0.792  0.00  0.00    -0.281 N 
ATOM      9  C   UNL     1       2.934   4.158  -1.436  0.00  0.00    +0.047 C 
ATOM     10  H   UNL     1       3.804   2.229   0.501  0.00  0.00    +0.152 HD
BRANCH   2  14
ATOM     11  C   UNL     1      -1.219   1.751   0.017  0.00  0.00    -0.045 A 
ATOM     12  C   UNL     1      -0.013   1.076   0.008  0.00  0.00    +0.004 A 
ATOM     13  C   UNL     1       1.175   1.783   0.000  0.00  0.00    +0.006 A 
ATOM     14  C   UNL     1       1.156   3.165   0.008  0.00  0.00    -0.015 A 
ATOM     15  C   UNL     1      -0.050   3.840   0.022  0.00  0.00    +0.006 A 
ATOM     16  C   UNL     1      -1.238   3.133   0.030  0.00  0.00    +0.004 A 
BRANCH  11  18
ATOM     17  C   UNL     1      -3.315   1.331   1.274  0.00  0.00    +0.012 C 
ATOM     18  C   UNL     1      -2.514   0.980   0.019  0.00  0.00    +0.013 C 
ATOM     19  C   UNL     1      -3.327   1.345  -1.224  0.00  0.00    +0.012 C 
ENDBRANCH  11  18
ENDBRANCH   2  14
ENDBRANCH   1   5
BRANCH   1  20
ATOM     20  C   UNL     1       2.355   6.111   3.873  0.00  0.00    +0.231 C 
ATOM     21  O   UNL     1       1.603   5.158   3.879  0.00  0.00    -0.274 OA
ATOM     22  N   UNL     1       2.332   6.994   4.890  0.00  0.00    -0.307 N 
ATOM     23  H   UNL     1       3.013   7.858   4.884  0.00  0.00    +0.149 HD
BRANCH  22  24
ATOM     24  C   UNL     1       1.400   6.804   6.005  0.00  0.00    +0.106 C 
BRANCH  24  25
ATOM     25  C   UNL     1       1.115   8.134   6.653  0.00  0.00    -0.023 A 
ATOM     26  C   UNL     1       2.137   9.050   6.828  0.00  0.00    +0.009 A 
ATOM     27  C   UNL     1       1.879  10.270   7.424  0.00  0.00    +0.050 A 
ATOM     28  C   UNL     1       0.595  10.579   7.847  0.00  0.00    +0.162 A 
ATOM     29  C   UNL     1      -0.431   9.660   7.669  0.00  0.00    +0.162 A 
ATOM     30  C   UNL     1      -0.167   8.439   7.067  0.00  0.00    +0.055 A 
ATOM     31  O   UNL     1      -1.700   9.945   8.073  0.00  0.00    -0.485 OA
ATOM     32  C   UNL     1      -1.851  11.023   9.004  0.00  0.00    +0.270 C 
ATOM     33  C   UNL     1      -1.008  12.206   8.510  0.00  0.00    +0.270 C 
ATOM     34  O   UNL     1       0.358  11.783   8.436  0.00  0.00    -0.485 OA
ENDBRANCH  24  25
BRANCH  24  35
ATOM     35  C   UNL     1       2.022   5.857   7.033  0.00  0.00    +0.008 C 
ATOM     36  C   UNL     1       3.260   6.514   7.648  0.00  0.00    +0.009 C 
ATOM     37  C   UNL     1       1.002   5.560   8.135  0.00  0.00    +0.009 C 
ENDBRANCH  24  35
ENDBRANCH  22  24
ENDBRANCH   1  20
TORSDOF 7
