REMARK  Name = ZINC45536799
REMARK  7 active torsions:
REMARK  status: ('A' for Active; 'I' for Inactive)
REMARK    1  A    between atoms: C_4  and  C_25
REMARK    2  A    between atoms: C_5  and  C_7
REMARK    3  A    between atoms: C_7  and  N_8
REMARK    4  A    between atoms: C_9  and  C_11
REMARK    5  A    between atoms: C_11  and  C_12
REMARK    6  A    between atoms: C_12  and  N_13
REMARK    7  A    between atoms: C_25  and  N_26
REMARK                            x       y       z     vdW  Elec       q    Type
REMARK                         _______ _______ _______ _____ _____    ______ ____
ROOT
ATOM      1  N   UNL     1       1.490  -2.679   1.334  0.00  0.00    -0.311 N 
ATOM      2  C   UNL     1       1.553  -4.004   1.569  0.00  0.00    +0.215 C 
ATOM      3  O   UNL     1       1.394  -4.789   0.658  0.00  0.00    -0.276 OA
ATOM      4  H   UNL     1       1.617  -2.051   2.063  0.00  0.00    +0.149 HD
ENDROOT
BRANCH   1   5
ATOM      5  C   UNL     1       1.229  -2.186  -0.020  0.00  0.00    +0.139 C 
BRANCH   5  10
ATOM      6  C   UNL     1      -0.017   1.378   0.010  0.00  0.00    +0.000 A 
ATOM      7  C   UNL     1       1.171   2.085   0.002  0.00  0.00    +0.000 A 
ATOM      8  C   UNL     1       2.377   1.411  -0.013  0.00  0.00    +0.002 A 
ATOM      9  C   UNL     1       2.396   0.028  -0.020  0.00  0.00    -0.059 A 
ATOM     10  C   UNL     1       1.209  -0.679  -0.012  0.00  0.00    -0.029 A 
ATOM     11  C   UNL     1       0.002  -0.004   0.002  0.00  0.00    +0.005 A 
BRANCH   9  12
ATOM     12  C   UNL     1       3.711  -0.707  -0.038  0.00  0.00    -0.043 C 
BRANCH  12  13
ATOM     13  N   UNL     1       4.007  -1.149  -1.407  0.00  0.00    +0.382 N 
ATOM     14  C   UNL     1       4.197   0.024  -2.268  0.00  0.00    -0.078 C 
ATOM     15  C   UNL     1       4.425  -0.430  -3.712  0.00  0.00    -0.019 C 
ATOM     16  C   UNL     1       5.672  -1.316  -3.771  0.00  0.00    -0.004 C 
ATOM     17  C   UNL     1       5.493  -2.498  -2.813  0.00  0.00    -0.019 C 
ATOM     18  C   UNL     1       5.226  -1.967  -1.403  0.00  0.00    -0.078 C 
ATOM     19  H   UNL     1       3.236  -1.699  -1.756  0.00  0.00    -0.081 HD
ENDBRANCH  12  13
ENDBRANCH   9  12
ENDBRANCH   5  10
ENDBRANCH   1   5
BRANCH   2  20
ATOM     20  C   UNL     1       1.821  -4.511   2.962  0.00  0.00    +0.115 C 
BRANCH  20  21
ATOM     21  C   UNL     1       1.842  -6.041   2.954  0.00  0.00    +0.127 C 
BRANCH  21  22
ATOM     22  N   UNL     1       2.103  -6.534   4.308  0.00  0.00    -0.224 N 
ATOM     23  C   UNL     1       3.335  -6.768   4.806  0.00  0.00    +0.247 C 
ATOM     24  O   UNL     1       4.396  -6.616   4.240  0.00  0.00    -0.273 OA
ATOM     25  C   UNL     1       3.113  -7.258   6.219  0.00  0.00    +0.113 C 
ATOM     26  C   UNL     1       3.766  -6.310   7.219  0.00  0.00    +0.035 C 
ATOM     27  C   UNL     1       3.504  -6.808   8.643  0.00  0.00    +0.003 C 
ATOM     28  C   UNL     1       4.075  -8.218   8.802  0.00  0.00    +0.000 C 
ATOM     29  C   UNL     1       3.394  -9.162   7.809  0.00  0.00    +0.003 C 
ATOM     30  C   UNL     1       3.656  -8.673   6.381  0.00  0.00    +0.035 C 
ATOM     31  N   UNL     1       1.653  -7.245   6.375  0.00  0.00    -0.285 N 
ATOM     32  C   UNL     1       1.148  -6.802   5.208  0.00  0.00    +0.309 C 
ATOM     33  O   UNL     1      -0.040  -6.665   4.994  0.00  0.00    -0.252 OA
ATOM     34  H   UNL     1       1.151  -7.501   7.165  0.00  0.00    +0.151 HD
ENDBRANCH  21  22
ENDBRANCH  20  21
ENDBRANCH   2  20
TORSDOF 7
