REMARK  Name = ZINC35442754
REMARK  9 active torsions:
REMARK  status: ('A' for Active; 'I' for Inactive)
REMARK    1  A    between atoms: C_1  and  C_2
REMARK    2  A    between atoms: C_4  and  C_27
REMARK    3  A    between atoms: C_6  and  C_24
REMARK    4  A    between atoms: C_9  and  C_11
REMARK    5  A    between atoms: C_11  and  C_12
REMARK    6  A    between atoms: C_15  and  C_17
REMARK    7  A    between atoms: C_24  and  C_25
REMARK    8  A    between atoms: C_24  and  C_26
REMARK    9  A    between atoms: C_27  and  N_28
REMARK                            x       y       z     vdW  Elec       q    Type
REMARK                         _______ _______ _______ _____ _____    ______ ____
ROOT
ATOM      1  C   UNL     1      -0.185   1.574  -0.421  0.00  0.00    +0.039 C 
ATOM      2  C   UNL     1      -0.064   0.077  -0.296  0.00  0.00    -0.073 C 
ATOM      3  C   UNL     1       0.154  -0.606  -1.374  0.00  0.00    -0.026 C 
ATOM      4  C   UNL     1       0.287  -2.101  -1.410  0.00  0.00    -0.002 C 
ATOM      5  C   UNL     1       0.554  -2.640  -0.003  0.00  0.00    -0.003 C 
ATOM      6  C   UNL     1      -0.477  -2.030   0.954  0.00  0.00    +0.012 C 
ATOM      7  C   UNL     1      -0.198  -0.529   1.070  0.00  0.00    +0.024 C 
ENDROOT
BRANCH   5   8
ATOM      8  C   UNL     1       0.424  -4.165  -0.004  0.00  0.00    -0.014 C 
ATOM      9  C   UNL     1       0.832  -4.712   1.366  0.00  0.00    +0.007 C 
ATOM     10  C   UNL     1      -1.026  -4.553  -0.297  0.00  0.00    +0.007 C 
ENDBRANCH   5   8
BRANCH   7  11
ATOM     11  C   UNL     1       1.099  -0.308   1.852  0.00  0.00    +0.105 C 
BRANCH  11  12
ATOM     12  C   UNL     1       1.300   1.167   2.086  0.00  0.00    +0.218 A 
ATOM     13  N   UNL     1       0.874   1.848   3.113  0.00  0.00    -0.112 NA
ATOM     14  N   UNL     1       1.223   3.080   2.986  0.00  0.00    -0.107 NA
ATOM     15  C   UNL     1       1.889   3.228   1.865  0.00  0.00    +0.251 A 
ATOM     16  O   UNL     1       1.955   2.017   1.276  0.00  0.00    -0.420 OA
BRANCH  15  17
ATOM     17  C   UNL     1       2.465   4.487   1.347  0.00  0.00    +0.074 A 
ATOM     18  C   UNL     1       3.147   4.497   0.129  0.00  0.00    +0.016 A 
ATOM     19  C   UNL     1       3.682   5.675  -0.348  0.00  0.00    +0.001 A 
ATOM     20  C   UNL     1       3.545   6.847   0.376  0.00  0.00    +0.003 A 
ATOM     21  C   UNL     1       2.871   6.846   1.583  0.00  0.00    +0.039 A 
ATOM     22  C   UNL     1       2.324   5.674   2.071  0.00  0.00    +0.136 A 
ATOM     23  F   UNL     1       1.661   5.675   3.248  0.00  0.00    -0.205 F 
ENDBRANCH  15  17
ENDBRANCH  11  12
ENDBRANCH   7  11
BRANCH   4  24
ATOM     24  C   UNL     1       1.450  -2.484  -2.327  0.00  0.00    -0.071 C 
BRANCH  24  25
ATOM     25  N   UNL     1       1.151  -2.058  -3.701  0.00  0.00    +0.382 N 
ATOM     26  C   UNL     1      -0.012  -2.802  -4.200  0.00  0.00    -0.060 C 
ATOM     27  C   UNL     1      -0.395  -2.279  -5.588  0.00  0.00    +0.089 C 
ATOM     28  N   UNL     1       0.790  -2.351  -6.457  0.00  0.00    -0.303 N 
ATOM     29  C   UNL     1       2.049  -1.771  -5.962  0.00  0.00    +0.089 C 
ATOM     30  C   UNL     1       2.316  -2.319  -4.556  0.00  0.00    -0.060 C 
ATOM     31  C   UNL     1       0.724  -2.947  -7.704  0.00  0.00    +0.218 A 
ATOM     32  N   UNL     1      -0.429  -3.454  -8.118  0.00  0.00    -0.223 NA
ATOM     33  C   UNL     1      -0.527  -4.030  -9.304  0.00  0.00    +0.116 A 
ATOM     34  C   UNL     1       0.594  -4.100 -10.117  0.00  0.00    +0.039 A 
ATOM     35  C   UNL     1       1.783  -3.560  -9.653  0.00  0.00    +0.116 A 
ATOM     36  N   UNL     1       1.812  -2.993  -8.458  0.00  0.00    -0.223 NA
ATOM     37  H   UNL     1       0.944  -1.071  -3.708  0.00  0.00    -0.082 HD
ENDBRANCH  24  25
ENDBRANCH   4  24
TORSDOF 6
