REMARK  Name = ZINC27903128
REMARK  5 active torsions:
REMARK  status: ('A' for Active; 'I' for Inactive)
REMARK    1  A    between atoms: C_1  and  O_2
REMARK    2  A    between atoms: O_2  and  C_3
REMARK    3  A    between atoms: C_6  and  C_9
REMARK    4  A    between atoms: C_9  and  C_11
REMARK    5  A    between atoms: C_9  and  C_23
REMARK                            x       y       z     vdW  Elec       q    Type
REMARK                         _______ _______ _______ _____ _____    ______ ____
ROOT
ATOM      1  C   UNL     1       0.154   3.804   0.035  0.00  0.00    +0.100 C 
ENDROOT
BRANCH   1   2
ATOM      2  C   UNL     1      -0.126   4.740  -1.113  0.00  0.00    +0.093 A 
ATOM      3  C   UNL     1      -0.365   4.250  -2.386  0.00  0.00    +0.260 A 
ATOM      4  N   UNL     1      -0.675   5.101  -3.361  0.00  0.00    -0.303 N 
ATOM      5  C   UNL     1      -0.700   6.416  -3.177  0.00  0.00    +0.152 A 
ATOM      6  N   UNL     1      -0.354   6.951  -1.980  0.00  0.00    -0.289 N 
ATOM      7  C   UNL     1      -0.156   6.120  -0.918  0.00  0.00    +0.262 A 
ATOM      8  O   UNL     1      -0.001   6.584   0.201  0.00  0.00    -0.267 OA
ATOM      9  C   UNL     1      -0.124   8.368  -1.722  0.00  0.00    +0.128 C 
ATOM     10  C   UNL     1      -0.908   9.289  -2.640  0.00  0.00    +0.033 C 
ATOM     11  C   UNL     1      -0.499   8.995  -4.090  0.00  0.00    +0.079 C 
ATOM     12  S   UNL     1      -1.225   7.400  -4.545  0.00  0.00    -0.089 S 
ATOM     13  O   UNL     1      -0.286   2.922  -2.635  0.00  0.00    -0.267 OA
ATOM     14  H   UNL     1      -0.921   4.723  -4.364  0.00  0.00    +0.171 HD
ENDBRANCH   1   2
BRANCH   1  15
ATOM     15  C   UNL     1       1.288   2.882  -0.334  0.00  0.00    +0.093 A 
ATOM     16  C   UNL     1       2.315   3.327  -1.149  0.00  0.00    +0.260 A 
ATOM     17  N   UNL     1       3.305   2.483  -1.449  0.00  0.00    -0.303 N 
ATOM     18  C   UNL     1       3.323   1.250  -0.991  0.00  0.00    +0.152 A 
ATOM     19  N   UNL     1       2.348   0.738  -0.190  0.00  0.00    -0.288 N 
ATOM     20  C   UNL     1       1.310   1.572   0.136  0.00  0.00    +0.262 A 
ATOM     21  O   UNL     1       0.407   1.168   0.851  0.00  0.00    -0.267 OA
ATOM     22  C   UNL     1       2.470  -0.650   0.254  0.00  0.00    +0.138 C 
ATOM     23  C   UNL     1       3.725  -1.372  -0.257  0.00  0.00    +0.099 C 
ATOM     24  S   UNL     1       4.517  -0.046  -1.240  0.00  0.00    -0.088 S 
ATOM     25  O   UNL     1       2.321   4.595  -1.622  0.00  0.00    -0.267 OA
ATOM     26  H   UNL     1       4.133   2.814  -2.094  0.00  0.00    +0.171 HD
ENDBRANCH   1  15
BRANCH   1  30
ATOM     27  C   UNL     1       1.232   6.073   3.493  0.00  0.00    +0.120 A 
ATOM     28  C   UNL     1       0.033   5.375   3.466  0.00  0.00    +0.046 A 
ATOM     29  C   UNL     1      -0.313   4.642   2.346  0.00  0.00    +0.008 A 
ATOM     30  C   UNL     1       0.534   4.604   1.254  0.00  0.00    -0.035 A 
ATOM     31  C   UNL     1       1.732   5.295   1.281  0.00  0.00    +0.008 A 
ATOM     32  C   UNL     1       2.079   6.034   2.395  0.00  0.00    +0.046 A 
BRANCH  27  34
ATOM     33  C   UNL     1       2.823   7.488   4.550  0.00  0.00    +0.277 C 
ATOM     34  O   UNL     1       1.575   6.794   4.592  0.00  0.00    -0.495 OA
ENDBRANCH  27  34
ENDBRANCH   1  30
TORSDOF 4
