REMARK  Name = ZINC63993729
REMARK  11 active torsions:
REMARK  status: ('A' for Active; 'I' for Inactive)
REMARK    1  A    between atoms: C_1  and  C_2
REMARK    2  A    between atoms: C_2  and  C_3
REMARK    3  A    between atoms: C_2  and  C_4
REMARK    4  A    between atoms: C_4  and  N_5
REMARK    5  A    between atoms: N_11  and  C_14
REMARK    6  A    between atoms: C_14  and  C_15
REMARK    7  A    between atoms: N_25  and  C_28
REMARK    8  A    between atoms: C_28  and  C_29
REMARK    9  A    between atoms: C_29  and  C_30
REMARK   10  A    between atoms: C_33  and  O_36
REMARK   11  A    between atoms: O_36  and  C_37
REMARK                            x       y       z     vdW  Elec       q    Type
REMARK                         _______ _______ _______ _____ _____    ______ ____
ROOT
ATOM      1  N   UNL     1      -1.518  -2.146  -0.405  0.00  0.00    -0.224 N 
ATOM      2  C   UNL     1      -1.764  -2.907  -1.492  0.00  0.00    +0.247 C 
ATOM      3  O   UNL     1      -1.965  -2.526  -2.625  0.00  0.00    -0.273 OA
ATOM      4  C   UNL     1      -1.735  -4.335  -0.999  0.00  0.00    +0.112 C 
ATOM      5  C   UNL     1      -3.087  -5.005  -1.223  0.00  0.00    +0.017 C 
ATOM      6  C   UNL     1      -3.012  -6.462  -0.757  0.00  0.00    -0.076 C 
ATOM      7  N   UNL     1      -1.964  -7.165  -1.507  0.00  0.00    +0.381 N 
ATOM      8  C   UNL     1      -0.654  -6.572  -1.214  0.00  0.00    -0.076 C 
ATOM      9  C   UNL     1      -0.629  -5.120  -1.699  0.00  0.00    +0.017 C 
ATOM     10  N   UNL     1      -1.451  -4.213   0.436  0.00  0.00    -0.271 N 
ATOM     11  C   UNL     1      -1.336  -2.895   0.690  0.00  0.00    +0.312 C 
ATOM     12  O   UNL     1      -1.096  -2.437   1.789  0.00  0.00    -0.252 OA
ATOM     13  H   UNL     1      -2.152  -7.089  -2.496  0.00  0.00    -0.082 HD
ENDROOT
BRANCH   1  14
ATOM     14  C   UNL     1      -1.453  -0.683  -0.422  0.00  0.00    +0.121 C 
BRANCH  14  16
ATOM     15  C   UNL     1       0.028   1.283  -0.850  0.00  0.00    +0.009 C 
ATOM     16  C   UNL     1      -0.017  -0.239  -0.708  0.00  0.00    +0.001 C 
ATOM     17  C   UNL     1       0.890  -0.672   0.446  0.00  0.00    +0.009 C 
ENDBRANCH  14  16
ENDBRANCH   1  14
BRANCH   7  18
ATOM     18  C   UNL     1      -1.956  -8.582  -1.121  0.00  0.00    -0.050 C 
BRANCH  18  19
ATOM     19  C   UNL     1      -0.951  -9.341  -1.990  0.00  0.00    +0.086 C 
ATOM     20  C   UNL     1      -1.058 -10.828  -1.734  0.00  0.00    +0.005 C 
ATOM     21  C   UNL     1      -1.403 -11.388  -2.916  0.00  0.00    -0.004 A 
ATOM     22  C   UNL     1      -1.656 -12.775  -3.323  0.00  0.00    +0.010 A 
ATOM     23  C   UNL     1      -1.991 -13.032  -4.608  0.00  0.00    +0.001 A 
ATOM     24  C   UNL     1      -2.101 -12.008  -5.559  0.00  0.00    +0.002 A 
ATOM     25  C   UNL     1      -1.883 -10.710  -5.261  0.00  0.00    +0.026 A 
ATOM     26  C   UNL     1      -1.526 -10.325  -3.939  0.00  0.00    +0.043 A 
ATOM     27  N   UNL     1      -1.266  -9.152  -3.411  0.00  0.00    -0.380 N 
ATOM     28  H   UNL     1      -1.281  -8.303  -3.879  0.00  0.00    +0.160 HD
ENDBRANCH  18  19
ENDBRANCH   7  18
BRANCH  10  29
ATOM     29  C   UNL     1      -1.316  -5.307   1.400  0.00  0.00    +0.115 C 
BRANCH  29  30
ATOM     30  C   UNL     1      -2.465  -5.243   2.408  0.00  0.00    +0.054 C 
BRANCH  30  31
ATOM     31  C   UNL     1      -2.346  -6.390   3.379  0.00  0.00    -0.046 A 
ATOM     32  C   UNL     1      -2.959  -7.598   3.099  0.00  0.00    +0.007 A 
ATOM     33  C   UNL     1      -2.852  -8.650   3.987  0.00  0.00    +0.046 A 
ATOM     34  C   UNL     1      -2.129  -8.495   5.161  0.00  0.00    +0.120 A 
ATOM     35  C   UNL     1      -1.515  -7.282   5.439  0.00  0.00    +0.046 A 
ATOM     36  C   UNL     1      -1.621  -6.234   4.545  0.00  0.00    +0.007 A 
BRANCH  34  37
ATOM     37  O   UNL     1      -2.022  -9.529   6.036  0.00  0.00    -0.495 OA
ATOM     38  C   UNL     1      -1.262  -9.297   7.224  0.00  0.00    +0.277 C 
ENDBRANCH  34  37
ENDBRANCH  30  31
ENDBRANCH  29  30
ENDBRANCH  10  29
TORSDOF 8
