REMARK  Name = ZINC12293515
REMARK  9 active torsions:
REMARK  status: ('A' for Active; 'I' for Inactive)
REMARK    1  A    between atoms: C_1  and  C_2
REMARK    2  A    between atoms: C_5  and  C_9
REMARK    3  A    between atoms: C_7  and  C_8
REMARK    4  A    between atoms: C_9  and  C_11
REMARK    5  A    between atoms: C_9  and  O_30
REMARK    6  A    between atoms: C_11  and  N_62
REMARK    7  A    between atoms: C_18  and  O_29
REMARK    8  A    between atoms: C_22  and  C_28
REMARK    9  A    between atoms: C_23  and  C_27
REMARK                            x       y       z     vdW  Elec       q    Type
REMARK                         _______ _______ _______ _____ _____    ______ ____
ROOT
ATOM      1  C   UNL     1      -2.061  -1.243   2.763  0.00  0.00    -0.075 C 
ATOM      2  C   UNL     1      -0.806  -1.727   2.034  0.00  0.00    +0.029 C 
ATOM      3  C   UNL     1      -1.018  -1.604   0.524  0.00  0.00    +0.110 C 
ATOM      4  C   UNL     1      -2.255  -2.406   0.117  0.00  0.00    +0.029 C 
ATOM      5  C   UNL     1      -3.468  -1.903   0.903  0.00  0.00    -0.075 C 
ATOM      6  C   UNL     1       0.210  -2.147  -0.213  0.00  0.00    +0.084 C 
ATOM      7  C   UNL     1       1.446  -1.399   0.291  0.00  0.00    +0.152 C 
ATOM      8  C   UNL     1       1.179   0.085   0.284  0.00  0.00    +0.023 A 
ATOM      9  C   UNL     1       2.254   0.957   0.334  0.00  0.00    +0.013 A 
ATOM     10  C   UNL     1       2.045   2.322   0.334  0.00  0.00    -0.047 A 
ATOM     11  C   UNL     1       0.758   2.824   0.283  0.00  0.00    -0.044 A 
ATOM     12  C   UNL     1      -0.317   1.961   0.231  0.00  0.00    +0.049 A 
ATOM     13  C   UNL     1      -0.111   0.585   0.230  0.00  0.00    +0.127 A 
ATOM     14  O   UNL     1      -1.194  -0.233   0.171  0.00  0.00    -0.485 OA
ATOM     15  C   UNL     1       0.529   4.314   0.284  0.00  0.00    +0.044 C 
ATOM     16  C   UNL     1       3.220   3.264   0.388  0.00  0.00    +0.044 C 
ATOM     17  N   UNL     1      -3.208  -2.079   2.348  0.00  0.00    +0.382 N 
ATOM     18  H   UNL     1      -2.984  -3.064   2.529  0.00  0.00    -0.082 HD
ENDROOT
BRANCH   7  19
ATOM     19  O   UNL     1       2.557  -1.685  -0.562  0.00  0.00    -0.387 OA
ATOM     20  H   UNL     1       3.377  -1.243  -0.302  0.00  0.00    +0.210 HD
ENDBRANCH   7  19
BRANCH  17  21
ATOM     21  C   UNL     1      -4.409  -1.709   3.125  0.00  0.00    -0.042 C 
BRANCH  21  22
ATOM     22  C   UNL     1      -4.298  -2.326   4.521  0.00  0.00    +0.128 C 
BRANCH  22  27
ATOM     23  C   UNL     1      -8.863  -0.750   7.694  0.00  0.00    +0.044 C 
ATOM     24  C   UNL     1      -7.673  -1.161   6.866  0.00  0.00    -0.048 A 
ATOM     25  C   UNL     1      -7.759  -2.256   6.028  0.00  0.00    +0.004 A 
ATOM     26  C   UNL     1      -6.668  -2.631   5.265  0.00  0.00    +0.006 A 
ATOM     27  C   UNL     1      -5.488  -1.915   5.348  0.00  0.00    -0.021 A 
ATOM     28  C   UNL     1      -5.402  -0.819   6.186  0.00  0.00    +0.009 A 
ATOM     29  C   UNL     1      -6.495  -0.442   6.945  0.00  0.00    -0.047 A 
ATOM     30  C   UNL     1      -6.401   0.753   7.859  0.00  0.00    +0.044 C 
ENDBRANCH  22  27
BRANCH  22  31
ATOM     31  O   UNL     1      -4.263  -3.750   4.411  0.00  0.00    -0.389 OA
ATOM     32  H   UNL     1      -5.047  -4.132   3.992  0.00  0.00    +0.210 HD
ENDBRANCH  22  31
ENDBRANCH  21  22
ENDBRANCH  17  21
TORSDOF 5
