REMARK  Name = ZINC06692674
REMARK  11 active torsions:
REMARK  status: ('A' for Active; 'I' for Inactive)
REMARK    1  A    between atoms: C_1  and  C_2
REMARK    2  A    between atoms: C_2  and  O_4
REMARK    3  A    between atoms: O_4  and  C_5
REMARK    4  A    between atoms: C_5  and  C_6
REMARK    5  A    between atoms: C_6  and  C_8
REMARK    6  A    between atoms: C_6  and  O_36
REMARK    7  A    between atoms: C_8  and  O_35
REMARK    8  A    between atoms: C_13  and  C_34
REMARK    9  A    between atoms: C_15  and  O_33
REMARK   10  A    between atoms: C_25  and  C_32
REMARK   11  A    between atoms: C_28  and  O_31
REMARK                            x       y       z     vdW  Elec       q    Type
REMARK                         _______ _______ _______ _____ _____    ______ ____
ROOT
ATOM      1  C   UNL     1      -0.029   1.100   2.598  0.00  0.00    +0.101 C 
ATOM      2  C   UNL     1       1.393   1.666   2.838  0.00  0.00    +0.038 C 
ATOM      3  C   UNL     1       1.419   2.187   4.302  0.00  0.00    +0.007 C 
ATOM      4  C   UNL     1       0.169   1.545   4.920  0.00  0.00    +0.001 C 
ATOM      5  C   UNL     1      -0.857   1.662   3.776  0.00  0.00    +0.005 C 
ATOM      6  C   UNL     1      -2.100   0.879   4.102  0.00  0.00    +0.041 C 
ATOM      7  C   UNL     1      -2.531   1.075   5.562  0.00  0.00    +0.119 C 
ATOM      8  C   UNL     1      -1.848   2.258   6.224  0.00  0.00    +0.027 C 
ATOM      9  C   UNL     1      -0.329   2.116   6.212  0.00  0.00    -0.001 C 
ATOM     10  C   UNL     1       0.339   3.444   6.565  0.00  0.00    +0.004 C 
ATOM     11  C   UNL     1      -0.385   4.073   7.766  0.00  0.00    +0.004 C 
ATOM     12  C   UNL     1      -1.133   2.968   8.493  0.00  0.00    -0.002 C 
ATOM     13  C   UNL     1      -2.322   2.481   7.661  0.00  0.00    -0.024 C 
ATOM     14  C   UNL     1      -2.871   1.217   8.311  0.00  0.00    +0.010 C 
ATOM     15  C   UNL     1      -3.314   1.525   9.746  0.00  0.00    +0.032 C 
ATOM     16  C   UNL     1      -2.173   2.112  10.570  0.00  0.00    +0.115 C 
ATOM     17  C   UNL     1      -1.587   3.357   9.892  0.00  0.00    +0.035 C 
ATOM     18  C   UNL     1      -3.413   3.554   7.625  0.00  0.00    +0.012 C 
ATOM     19  C   UNL     1      -1.189   3.113   3.422  0.00  0.00    +0.014 C 
ENDROOT
BRANCH  16  20
ATOM     20  O   UNL     1      -2.661   2.470  11.866  0.00  0.00    -0.392 OA
ATOM     21  H   UNL     1      -3.025   1.727  12.367  0.00  0.00    +0.210 HD
ENDBRANCH  16  20
BRANCH   7  22
ATOM     22  O   UNL     1      -3.954   1.264   5.580  0.00  0.00    -0.391 OA
ATOM     23  H   UNL     1      -4.452   0.543   5.171  0.00  0.00    +0.210 HD
ENDBRANCH   7  22
BRANCH   1  24
ATOM     24  O   UNL     1      -0.018  -0.322   2.634  0.00  0.00    -0.385 OA
ATOM     25  H   UNL     1       0.505  -0.729   1.930  0.00  0.00    +0.210 HD
ENDBRANCH   1  24
BRANCH   1  26
ATOM     26  C   UNL     1      -0.595   1.612   1.276  0.00  0.00    +0.184 C 
BRANCH  26  27
ATOM     27  O   UNL     1       0.322   1.318   0.220  0.00  0.00    -0.386 OA
ATOM     28  H   UNL     1       0.502   0.375   0.107  0.00  0.00    +0.210 HD
ENDBRANCH  26  27
BRANCH  26  29
ATOM     29  C   UNL     1      -1.934   0.927   0.995  0.00  0.00    +0.266 C 
BRANCH  29  30
ATOM     30  O   UNL     1      -2.515   1.478  -0.216  0.00  0.00    -0.462 OA
BRANCH  30  32
ATOM     31  C   UNL     1      -4.363   1.505  -1.853  0.00  0.00    +0.136 C 
ATOM     32  C   UNL     1      -3.699   0.981  -0.605  0.00  0.00    +0.304 C 
ATOM     33  O   UNL     1      -4.233   0.114   0.045  0.00  0.00    -0.251 OA
ENDBRANCH  30  32
ENDBRANCH  29  30
ENDBRANCH  26  29
ENDBRANCH   1  26
TORSDOF 8
