REMARK  Name = ZINC59019383
REMARK  7 active torsions:
REMARK  status: ('A' for Active; 'I' for Inactive)
REMARK    1  A    between atoms: C_1  and  C_2
REMARK    2  A    between atoms: C_5  and  C_8
REMARK    3  A    between atoms: N_9  and  N_10
REMARK    4  A    between atoms: C_13  and  S_16
REMARK    5  A    between atoms: S_16  and  C_17
REMARK    6  A    between atoms: C_17  and  C_18
REMARK    7  A    between atoms: N_20  and  C_21
REMARK                            x       y       z     vdW  Elec       q    Type
REMARK                         _______ _______ _______ _____ _____    ______ ____
ROOT
ATOM      1  N   UNL     1       0.069  -6.305   1.091  0.00  0.00    -0.205 N 
ATOM      2  C   UNL     1       0.087  -7.003   2.285  0.00  0.00    +0.232 A 
ATOM      3  N   UNL     1       0.090  -6.474   3.491  0.00  0.00    -0.186 NA
ATOM      4  C   UNL     1       0.110  -7.446   4.409  0.00  0.00    +0.211 A 
ATOM      5  N   UNL     1       0.120  -8.608   3.799  0.00  0.00    -0.144 NA
ATOM      6  N   UNL     1       0.100  -8.346   2.419  0.00  0.00    -0.245 N 
ATOM      7  H   UNL     1       0.064  -6.786   0.249  0.00  0.00    +0.177 HD
ATOM      8  H   UNL     1       0.098  -9.001   1.704  0.00  0.00    +0.192 HD
ENDROOT
BRANCH   1  10
ATOM      9  C   UNL     1       0.039  -4.249  -0.022  0.00  0.00    +0.138 C 
ATOM     10  N   UNL     1       0.057  -4.904   1.099  0.00  0.00    -0.188 NA
BRANCH   9  15
ATOM     11  C   UNL     1      -0.011   1.502   0.009  0.00  0.00    +0.044 C 
ATOM     12  C   UNL     1       0.002  -0.005   0.001  0.00  0.00    -0.050 A 
ATOM     13  C   UNL     1      -0.004  -0.687  -1.203  0.00  0.00    +0.004 A 
ATOM     14  C   UNL     1       0.008  -2.067  -1.218  0.00  0.00    +0.010 A 
ATOM     15  C   UNL     1       0.027  -2.775  -0.014  0.00  0.00    -0.005 A 
ATOM     16  C   UNL     1       0.033  -2.079   1.198  0.00  0.00    +0.010 A 
ATOM     17  C   UNL     1       0.026  -0.700   1.197  0.00  0.00    +0.004 A 
ENDBRANCH   9  15
ENDBRANCH   1  10
BRANCH   4  18
ATOM     18  S   UNL     1       0.120  -7.206   6.154  0.00  0.00    -0.075 S 
BRANCH  18  19
ATOM     19  C   UNL     1       0.148  -8.890   6.828  0.00  0.00    +0.173 C 
BRANCH  19  20
ATOM     20  C   UNL     1       0.159  -8.828   8.334  0.00  0.00    +0.227 C 
ATOM     21  O   UNL     1       0.149  -7.754   8.897  0.00  0.00    -0.275 OA
ATOM     22  N   UNL     1       0.180  -9.967   9.055  0.00  0.00    -0.285 N 
ATOM     23  H   UNL     1       0.120 -10.825   8.608  0.00  0.00    +0.155 HD
BRANCH  22  24
ATOM     24  C   UNL     1       0.287  -9.910  10.449  0.00  0.00    +0.033 A 
ATOM     25  C   UNL     1       1.008 -10.882  11.131  0.00  0.00    +0.024 A 
ATOM     26  C   UNL     1       1.113 -10.823  12.507  0.00  0.00    +0.016 A 
ATOM     27  C   UNL     1       0.501  -9.798  13.206  0.00  0.00    +0.013 A 
ATOM     28  C   UNL     1      -0.217  -8.829  12.529  0.00  0.00    +0.016 A 
ATOM     29  C   UNL     1      -0.321  -8.879  11.153  0.00  0.00    +0.024 A 
ATOM     30  I   UNL     1       0.662  -9.713  15.293  0.00  0.00    -0.044 I 
ENDBRANCH  22  24
ENDBRANCH  19  20
ENDBRANCH  18  19
ENDBRANCH   4  18
TORSDOF 6
