REMARK  Name = ZINC39451158
REMARK  5 active torsions:
REMARK  status: ('A' for Active; 'I' for Inactive)
REMARK    1  A    between atoms: C_4  and  O_7
REMARK    2  A    between atoms: O_7  and  S_8
REMARK    3  A    between atoms: S_8  and  N_11
REMARK    4  A    between atoms: C_19  and  C_22
REMARK    5  A    between atoms: C_27  and  O_28
REMARK                            x       y       z     vdW  Elec       q    Type
REMARK                         _______ _______ _______ _____ _____    ______ ____
ROOT
ATOM      1  N   UNL     1       3.249  -2.193   1.963  0.00  0.00    -0.141 N 
ATOM      2  C   UNL     1       2.167  -1.907   2.785  0.00  0.00    +0.137 A 
ATOM      3  C   UNL     1       1.391  -2.920   3.317  0.00  0.00    +0.084 A 
ATOM      4  C   UNL     1       1.716  -4.321   3.021  0.00  0.00    +0.099 A 
ATOM      5  C   UNL     1       2.823  -4.585   2.184  0.00  0.00    +0.069 A 
ATOM      6  C   UNL     1       3.594  -3.455   1.646  0.00  0.00    +0.283 A 
ATOM      7  O   UNL     1       4.548  -3.660   0.918  0.00  0.00    -0.265 OA
ATOM      8  C   UNL     1       3.154  -5.905   1.885  0.00  0.00    +0.025 A 
ATOM      9  C   UNL     1       2.365  -6.917   2.435  0.00  0.00    +0.004 A 
ATOM     10  C   UNL     1       1.284  -6.574   3.256  0.00  0.00    +0.120 A 
ATOM     11  N   UNL     1       0.997  -5.320   3.519  0.00  0.00    -0.252 NA
ATOM     12  N   UNL     1       0.309  -2.610   4.120  0.00  0.00    -0.324 N 
ATOM     13  C   UNL     1      -0.346  -1.306   3.934  0.00  0.00    +0.171 C 
ATOM     14  C   UNL     1       0.727  -0.215   4.011  0.00  0.00    +0.120 C 
ATOM     15  C   UNL     1       1.857  -0.559   3.075  0.00  0.00    +0.186 C 
ATOM     16  O   UNL     1       2.507   0.331   2.566  0.00  0.00    -0.290 OA
ATOM     17 CL   UNL     1      -1.153  -1.256   2.323  0.00  0.00    -0.101 Cl
ATOM     18  H   UNL     1      -0.009  -3.236   4.789  0.00  0.00    +0.148 HD
ENDROOT
BRANCH   9  19
ATOM     19  C   UNL     1       2.668  -8.340   2.153  0.00  0.00    +0.025 A 
ATOM     20  C   UNL     1       2.864  -8.767   0.841  0.00  0.00    +0.012 A 
ATOM     21  C   UNL     1       3.147 -10.092   0.583  0.00  0.00    +0.001 A 
ATOM     22  C   UNL     1       3.236 -11.001   1.623  0.00  0.00    +0.004 A 
ATOM     23  C   UNL     1       3.043 -10.589   2.928  0.00  0.00    +0.046 A 
ATOM     24  C   UNL     1       2.764  -9.259   3.202  0.00  0.00    +0.125 A 
BRANCH  24  25
ATOM     25  O   UNL     1       2.579  -8.852   4.485  0.00  0.00    -0.506 OA
ATOM     26  H   UNL     1       1.662  -8.905   4.786  0.00  0.00    +0.292 HD
ENDBRANCH  24  25
ENDBRANCH   9  19
BRANCH   1  27
ATOM     27  S   UNL     1       4.140  -0.941   1.346  0.00  0.00    +0.224 S 
ATOM     28  O   UNL     1       3.229  -0.094   0.659  0.00  0.00    -0.113 OA
ATOM     29  O   UNL     1       5.270  -1.521   0.709  0.00  0.00    -0.113 OA
BRANCH  27  30
ATOM     30  O   UNL     1       4.671  -0.142   2.528  0.00  0.00    -0.329 OA
BRANCH  30  34
ATOM     31  C   UNL     1       7.794  -1.959   4.519  0.00  0.00    +0.000 A 
ATOM     32  C   UNL     1       8.052  -1.105   3.462  0.00  0.00    +0.004 A 
ATOM     33  C   UNL     1       7.008  -0.495   2.794  0.00  0.00    +0.048 A 
ATOM     34  C   UNL     1       5.699  -0.741   3.183  0.00  0.00    +0.158 A 
ATOM     35  C   UNL     1       5.443  -1.598   4.243  0.00  0.00    +0.048 A 
ATOM     36  C   UNL     1       6.490  -2.205   4.909  0.00  0.00    +0.004 A 
ENDBRANCH  30  34
ENDBRANCH  27  30
ENDBRANCH   1  27
TORSDOF 5
