REMARK  Name = ZINC63234622
REMARK  14 active torsions:
REMARK  status: ('A' for Active; 'I' for Inactive)
REMARK    1  A    between atoms: C_1  and  O_2
REMARK    2  A    between atoms: O_2  and  C_3
REMARK    3  A    between atoms: C_7  and  C_11
REMARK    4  A    between atoms: C_8  and  O_9
REMARK    5  A    between atoms: O_9  and  C_10
REMARK    6  A    between atoms: C_11  and  C_13
REMARK    7  A    between atoms: C_11  and  C_32
REMARK    8  A    between atoms: C_13  and  N_14
REMARK    9  A    between atoms: N_14  and  C_15
REMARK   10  A    between atoms: C_15  and  C_16
REMARK   11  A    between atoms: C_16  and  C_18
REMARK   12  A    between atoms: C_16  and  O_31
REMARK   13  A    between atoms: C_18  and  O_19
REMARK   14  A    between atoms: O_19  and  C_20
REMARK                            x       y       z     vdW  Elec       q    Type
REMARK                         _______ _______ _______ _____ _____    ______ ____
ROOT
ATOM      1  C   UNL     1       1.394  -3.895  -2.396  0.00  0.00    +0.034 C 
ENDROOT
BRANCH   1   2
ATOM      2  C   UNL     1       0.712  -4.286  -3.682  0.00  0.00    -0.036 C 
ATOM      3  C   UNL     1      -0.367  -5.089  -3.819  0.00  0.00    -0.001 A 
ATOM      4  C   UNL     1      -1.197  -5.814  -2.849  0.00  0.00    +0.010 A 
ATOM      5  C   UNL     1      -2.234  -6.556  -3.298  0.00  0.00    +0.001 A 
ATOM      6  C   UNL     1      -2.535  -6.651  -4.664  0.00  0.00    +0.002 A 
ATOM      7  C   UNL     1      -1.819  -6.015  -5.615  0.00  0.00    +0.026 A 
ATOM      8  C   UNL     1      -0.706  -5.206  -5.255  0.00  0.00    +0.043 A 
ATOM      9  N   UNL     1       0.130  -4.501  -5.978  0.00  0.00    -0.380 N 
ATOM     10  C   UNL     1       1.093  -3.853  -5.080  0.00  0.00    +0.145 C 
ATOM     11  H   UNL     1       0.114  -4.419  -6.944  0.00  0.00    +0.160 HD
ENDBRANCH   1   2
BRANCH   1  16
ATOM     12  C   UNL     1       0.662  -0.458  -0.989  0.00  0.00    +0.162 A 
ATOM     13  C   UNL     1       1.248   0.357  -1.944  0.00  0.00    +0.049 A 
ATOM     14  C   UNL     1       1.879  -0.205  -3.039  0.00  0.00    +0.004 A 
ATOM     15  C   UNL     1       1.925  -1.579  -3.183  0.00  0.00    +0.008 A 
ATOM     16  C   UNL     1       1.342  -2.398  -2.235  0.00  0.00    +0.003 A 
ATOM     17  C   UNL     1       0.713  -1.841  -1.132  0.00  0.00    +0.165 A 
BRANCH  12  19
ATOM     18  C   UNL     1       0.027   1.520   0.170  0.00  0.00    +0.277 C 
ATOM     19  O   UNL     1       0.042   0.093   0.089  0.00  0.00    -0.491 OA
ENDBRANCH  12  19
BRANCH  17  20
ATOM     20  O   UNL     1       0.144  -2.645  -0.194  0.00  0.00    -0.491 OA
ATOM     21  C   UNL     1      -1.225  -3.003  -0.392  0.00  0.00    +0.277 C 
ENDBRANCH  17  20
ENDBRANCH   1  16
BRANCH   1  22
ATOM     22  C   UNL     1       2.853  -4.354  -2.432  0.00  0.00    -0.070 C 
BRANCH  22  23
ATOM     23  N   UNL     1       3.484  -4.080  -1.134  0.00  0.00    +0.381 N 
ATOM     24  H   UNL     1       3.448  -3.090  -0.944  0.00  0.00    -0.086 HD
ATOM     25  H   UNL     1       2.992  -4.581  -0.409  0.00  0.00    -0.086 HD
BRANCH  23  26
ATOM     26  C   UNL     1       4.885  -4.521  -1.169  0.00  0.00    -0.049 C 
BRANCH  26  27
ATOM     27  C   UNL     1       5.543  -4.236   0.183  0.00  0.00    +0.123 C 
BRANCH  27  28
ATOM     28  O   UNL     1       4.921  -5.034   1.192  0.00  0.00    -0.391 OA
ATOM     29  H   UNL     1       4.987  -5.986   1.038  0.00  0.00    +0.210 HD
ENDBRANCH  27  28
BRANCH  27  30
ATOM     30  C   UNL     1       7.032  -4.579   0.108  0.00  0.00    +0.190 C 
BRANCH  30  31
ATOM     31  O   UNL     1       7.669  -4.205   1.331  0.00  0.00    -0.369 OA
BRANCH  31  32
ATOM     32  C   UNL     1       9.047  -4.576   1.405  0.00  0.00    +0.149 C 
ATOM     33  C   UNL     1       9.157  -6.000   1.948  0.00  0.00    +0.037 C 
ATOM     34  C   UNL     1      10.635  -6.299   2.225  0.00  0.00    +0.007 C 
ATOM     35  C   UNL     1      11.078  -5.464   3.425  0.00  0.00    +0.035 C 
ATOM     36  C   UNL     1      10.710  -4.017   3.228  0.00  0.00    -0.042 A 
ATOM     37  C   UNL     1       9.774  -3.610   2.304  0.00  0.00    -0.016 A 
ATOM     38  C   UNL     1       9.475  -2.260   2.178  0.00  0.00    +0.006 A 
ATOM     39  C   UNL     1      10.110  -1.324   2.969  0.00  0.00    +0.000 A 
ATOM     40  C   UNL     1      11.051  -1.733   3.895  0.00  0.00    +0.000 A 
ATOM     41  C   UNL     1      11.349  -3.073   4.021  0.00  0.00    +0.004 A 
ENDBRANCH  31  32
ENDBRANCH  30  31
ENDBRANCH  27  30
ENDBRANCH  26  27
ENDBRANCH  23  26
ENDBRANCH  22  23
ENDBRANCH   1  22
TORSDOF 12
