REMARK  Name = ZINC40923361
REMARK  9 active torsions:
REMARK  status: ('A' for Active; 'I' for Inactive)
REMARK    1  A    between atoms: C_1  and  C_2
REMARK    2  A    between atoms: C_5  and  N_9
REMARK    3  A    between atoms: C_6  and  C_8
REMARK    4  A    between atoms: C_10  and  C_12
REMARK    5  A    between atoms: C_13  and  C_37
REMARK    6  A    between atoms: C_20  and  C_22
REMARK    7  A    between atoms: C_27  and  O_28
REMARK    8  A    between atoms: O_28  and  C_29
REMARK    9  A    between atoms: C_29  and  C_30
REMARK                            x       y       z     vdW  Elec       q    Type
REMARK                         _______ _______ _______ _____ _____    ______ ____
ROOT
ATOM      1  C   UNL     1       1.203  -7.195  -2.022  0.00  0.00    +0.060 C 
ATOM      2  C   UNL     1       1.448  -7.674  -3.250  0.00  0.00    +0.018 C 
ATOM      3  N   UNL     1       1.993  -8.919  -3.457  0.00  0.00    -0.286 N 
ATOM      4  C   UNL     1       2.050  -9.778  -2.370  0.00  0.00    +0.240 A 
ATOM      5  N   UNL     1       2.304 -11.054  -2.303  0.00  0.00    -0.092 NA
ATOM      6  N   UNL     1       2.247 -11.457  -1.079  0.00  0.00    -0.021 NA
ATOM      7  N   UNL     1       1.957 -10.471  -0.293  0.00  0.00    -0.042 NA
ATOM      8  N   UNL     1       1.822  -9.345  -1.102  0.00  0.00    -0.201 N 
ATOM      9  C   UNL     1       1.516  -7.959  -0.763  0.00  0.00    +0.182 C 
ATOM     10  C   UNL     1       1.114  -6.819  -4.445  0.00  0.00    +0.061 C 
ATOM     11  H   UNL     1       2.323  -9.186  -4.329  0.00  0.00    +0.155 HD
ENDROOT
BRANCH   9  12
ATOM     12  C   UNL     1       2.702  -7.332  -0.076  0.00  0.00    +0.023 A 
ATOM     13  C   UNL     1       3.937  -7.327  -0.695  0.00  0.00    +0.009 A 
ATOM     14  C   UNL     1       5.025  -6.752  -0.064  0.00  0.00    +0.001 A 
ATOM     15  C   UNL     1       4.880  -6.180   1.186  0.00  0.00    +0.004 A 
ATOM     16  C   UNL     1       3.647  -6.182   1.809  0.00  0.00    +0.046 A 
ATOM     17  C   UNL     1       2.553  -6.754   1.177  0.00  0.00    +0.127 A 
BRANCH  17  18
ATOM     18  O   UNL     1       1.337  -6.752   1.785  0.00  0.00    -0.487 OA
BRANCH  18  19
ATOM     19  C   UNL     1       1.261  -6.154   3.080  0.00  0.00    +0.264 C 
BRANCH  19  20
ATOM     20  C   UNL     1      -0.170  -6.160   3.553  0.00  0.00    -0.010 A 
ATOM     21  C   UNL     1      -1.022  -5.136   3.187  0.00  0.00    +0.008 A 
ATOM     22  C   UNL     1      -2.335  -5.141   3.621  0.00  0.00    +0.020 A 
ATOM     23  C   UNL     1      -2.795  -6.171   4.421  0.00  0.00    +0.041 A 
ATOM     24  C   UNL     1      -1.941  -7.196   4.787  0.00  0.00    +0.020 A 
ATOM     25  C   UNL     1      -0.630  -7.193   4.348  0.00  0.00    +0.008 A 
ATOM     26 CL   UNL     1      -4.443  -6.178   4.966  0.00  0.00    -0.084 Cl
ENDBRANCH  19  20
ENDBRANCH  18  19
ENDBRANCH  17  18
ENDBRANCH   9  12
BRANCH   1  28
ATOM     27  N   UNL     1       1.388  -4.811  -2.097  0.00  0.00    -0.281 N 
ATOM     28  C   UNL     1       0.629  -5.907  -1.903  0.00  0.00    +0.248 C 
ATOM     29  O   UNL     1      -0.551  -5.790  -1.626  0.00  0.00    -0.270 OA
ATOM     30  H   UNL     1       2.301  -4.902  -2.411  0.00  0.00    +0.155 HD
BRANCH  27  35
ATOM     31  C   UNL     1      -0.758   0.339  -1.071  0.00  0.00    +0.044 C 
ATOM     32  C   UNL     1      -0.188  -1.029  -1.343  0.00  0.00    -0.050 A 
ATOM     33  C   UNL     1      -1.020  -2.054  -1.753  0.00  0.00    +0.005 A 
ATOM     34  C   UNL     1      -0.501  -3.309  -2.004  0.00  0.00    +0.024 A 
ATOM     35  C   UNL     1       0.859  -3.541  -1.844  0.00  0.00    +0.037 A 
ATOM     36  C   UNL     1       1.692  -2.509  -1.433  0.00  0.00    -0.029 A 
ATOM     37  C   UNL     1       1.168  -1.255  -1.189  0.00  0.00    +0.008 A 
ATOM     38  C   UNL     1       3.169  -2.756  -1.258  0.00  0.00    +0.045 C 
ENDBRANCH  27  35
ENDBRANCH   1  28
TORSDOF 6
