REMARK  Name = ZINC63374051
REMARK  6 active torsions:
REMARK  status: ('A' for Active; 'I' for Inactive)
REMARK    1  A    between atoms: C_1  and  C_2
REMARK    2  A    between atoms: C_2  and  C_3
REMARK    3  A    between atoms: C_3  and  C_4
REMARK    4  A    between atoms: C_4  and  N_5
REMARK    5  A    between atoms: C_8  and  C_15
REMARK    6  A    between atoms: C_22  and  C_27
REMARK                            x       y       z     vdW  Elec       q    Type
REMARK                         _______ _______ _______ _____ _____    ______ ____
ROOT
ATOM      1  C   UNL     1      -5.436  -3.557   2.496  0.00  0.00    -0.003 C 
ATOM      2  C   UNL     1      -5.625  -2.244   3.259  0.00  0.00    +0.097 C 
ATOM      3  C   UNL     1      -6.209  -2.623   4.616  0.00  0.00    -0.041 C 
ATOM      4  C   UNL     1      -7.311  -1.902   4.764  0.00  0.00    -0.001 A 
ATOM      5  C   UNL     1      -8.249  -1.762   5.889  0.00  0.00    +0.013 A 
ATOM      6  C   UNL     1      -9.305  -0.929   5.690  0.00  0.00    -0.050 A 
ATOM      7  C   UNL     1      -9.520  -0.231   4.498  0.00  0.00    +0.005 A 
ATOM      8  C   UNL     1      -8.705  -0.295   3.414  0.00  0.00    +0.026 A 
ATOM      9  C   UNL     1      -7.557  -1.134   3.505  0.00  0.00    +0.043 A 
ATOM     10  N   UNL     1      -6.599  -1.357   2.627  0.00  0.00    -0.379 N 
ATOM     11  C   UNL     1     -10.296  -0.750   6.811  0.00  0.00    +0.044 C 
ATOM     12  C   UNL     1      -5.591  -3.708   5.465  0.00  0.00    +0.014 C 
ATOM     13  C   UNL     1      -5.348  -4.901   4.522  0.00  0.00    -0.077 C 
ATOM     14  N   UNL     1      -4.627  -4.464   3.325  0.00  0.00    +0.386 N 
ATOM     15  H   UNL     1      -4.377  -5.274   2.778  0.00  0.00    -0.085 HD
ATOM     16  H   UNL     1      -6.544  -1.005   1.724  0.00  0.00    +0.160 HD
ATOM     17  H   UNL     1      -3.783  -3.987   3.606  0.00  0.00    -0.085 HD
ENDROOT
BRANCH   1  21
ATOM     18  N   UNL     1      -2.787  -2.571   0.015  0.00  0.00    -0.261 N 
ATOM     19  C   UNL     1      -3.405  -2.803   1.190  0.00  0.00    +0.262 A 
ATOM     20  O   UNL     1      -2.825  -2.593   2.241  0.00  0.00    -0.267 OA
ATOM     21  C   UNL     1      -4.725  -3.289   1.194  0.00  0.00    +0.070 A 
ATOM     22  H   UNL     1      -5.127  -3.425  -2.016  0.00  0.00    +0.173 HD
ATOM     23  C   UNL     1      -5.352  -3.516   0.005  0.00  0.00    +0.259 A 
ATOM     24  N   UNL     1      -4.685  -3.265  -1.168  0.00  0.00    -0.275 N 
ATOM     25  C   UNL     1      -3.425  -2.795  -1.149  0.00  0.00    +0.332 A 
ATOM     26  O   UNL     1      -2.852  -2.575  -2.198  0.00  0.00    -0.246 OA
ATOM     27  O   UNL     1      -6.618  -3.983  -0.018  0.00  0.00    -0.267 OA
BRANCH  18  28
ATOM     28  C   UNL     1      -1.413  -2.063   0.004  0.00  0.00    +0.130 C 
BRANCH  28  29
ATOM     29  C   UNL     1      -1.433  -0.534   0.013  0.00  0.00    +0.022 C 
BRANCH  29  31
ATOM     30  C   UNL     1      -0.019   1.526   0.010  0.00  0.00    +0.004 C 
ATOM     31  C   UNL     1       0.002  -0.004   0.002  0.00  0.00    -0.002 C 
ENDBRANCH  29  31
ENDBRANCH  28  29
ENDBRANCH  18  28
ENDBRANCH   1  21
TORSDOF 4
