REMARK  Name = ZINC35894615
REMARK  6 active torsions:
REMARK  status: ('A' for Active; 'I' for Inactive)
REMARK    1  A    between atoms: C_5  and  N_7
REMARK    2  A    between atoms: C_14  and  N_33
REMARK    3  A    between atoms: C_18  and  C_23
REMARK    4  A    between atoms: N_25  and  C_26
REMARK    5  A    between atoms: C_26  and  C_27
REMARK    6  A    between atoms: C_27  and  C_28
REMARK                            x       y       z     vdW  Elec       q    Type
REMARK                         _______ _______ _______ _____ _____    ______ ____
ROOT
ATOM      1  N   UNL     1       2.133  -0.902  -4.072  0.00  0.00    -0.325 N 
ATOM      2  C   UNL     1       1.270  -0.176  -3.150  0.00  0.00    +0.124 C 
ATOM      3  C   UNL     1       1.387  -0.740  -1.747  0.00  0.00    +0.124 C 
ATOM      4  N   UNL     1       1.526  -2.185  -1.711  0.00  0.00    -0.323 N 
ATOM      5  C   UNL     1       1.334  -2.840  -0.476  0.00  0.00    +0.033 A 
ATOM      6  C   UNL     1       0.598  -2.206   0.516  0.00  0.00    +0.025 A 
ATOM      7  C   UNL     1       0.410  -2.827   1.735  0.00  0.00    +0.034 A 
ATOM      8  C   UNL     1       0.957  -4.077   1.960  0.00  0.00    +0.127 A 
ATOM      9  C   UNL     1       1.685  -4.708   0.972  0.00  0.00    +0.038 A 
ATOM     10  C   UNL     1       1.875  -4.096  -0.258  0.00  0.00    -0.023 A 
ATOM     11  C   UNL     1       2.654  -4.833  -1.315  0.00  0.00    +0.051 C 
ATOM     12  C   UNL     1       3.103  -3.883  -2.428  0.00  0.00    +0.101 C 
ATOM     13  C   UNL     1       1.907  -3.022  -2.832  0.00  0.00    +0.103 C 
ATOM     14  C   UNL     1       2.079  -2.352  -4.167  0.00  0.00    +0.128 C 
ENDROOT
BRANCH   1  19
ATOM     15  C   UNL     1       5.163   0.840  -5.212  0.00  0.00    +0.002 A 
ATOM     16  C   UNL     1       4.786   1.213  -6.489  0.00  0.00    +0.002 A 
ATOM     17  C   UNL     1       3.530   0.885  -6.967  0.00  0.00    +0.022 A 
ATOM     18  C   UNL     1       2.647   0.183  -6.168  0.00  0.00    +0.062 A 
ATOM     19  C   UNL     1       3.023  -0.193  -4.884  0.00  0.00    +0.048 A 
ATOM     20  C   UNL     1       4.285   0.139  -4.408  0.00  0.00    +0.024 A 
ATOM     21 CL   UNL     1       1.071  -0.228  -6.767  0.00  0.00    -0.082 Cl
ENDBRANCH   1  19
BRANCH  12  22
ATOM     22  C   UNL     1       4.218  -3.002  -1.926  0.00  0.00    +0.218 C 
ATOM     23  O   UNL     1       4.184  -2.567  -0.795  0.00  0.00    -0.275 OA
ATOM     24  N   UNL     1       5.253  -2.698  -2.734  0.00  0.00    -0.315 N 
ATOM     25  H   UNL     1       5.280  -3.046  -3.639  0.00  0.00    +0.149 HD
BRANCH  24  26
ATOM     26  C   UNL     1       6.337  -1.843  -2.246  0.00  0.00    +0.109 C 
BRANCH  26  27
ATOM     27  C   UNL     1       7.377  -1.656  -3.353  0.00  0.00    +0.061 C 
BRANCH  27  28
ATOM     28  C   UNL     1       8.492  -0.775  -2.850  0.00  0.00    -0.009 A 
ATOM     29  C   UNL     1       9.643  -1.128  -2.228  0.00  0.00    +0.011 A 
ATOM     30  C   UNL     1      10.532  -0.138  -1.852  0.00  0.00    +0.008 A 
ATOM     31  C   UNL     1      10.226   1.156  -2.117  0.00  0.00    +0.045 A 
ATOM     32  S   UNL     1       8.643   1.002  -2.927  0.00  0.00    -0.102 S 
ENDBRANCH  27  28
ENDBRANCH  26  27
ENDBRANCH  24  26
ENDBRANCH  12  22
BRANCH   8  33
ATOM     33  N   UNL     1       0.760  -4.741   3.268  0.00  0.00    +0.056 N 
ATOM     34  O   UNL     1       0.124  -4.191   4.136  0.00  0.00    -0.126 OA
ATOM     35  O   UNL     1       1.237  -5.834   3.469  0.00  0.00    -0.126 OA
ENDBRANCH   8  33
TORSDOF 6
