REMARK  Name = ZINC04027521
REMARK  4 active torsions:
REMARK  status: ('A' for Active; 'I' for Inactive)
REMARK    1  A    between atoms: C_1  and  N_45
REMARK    2  A    between atoms: C_3  and  O_25
REMARK    3  A    between atoms: C_8  and  O_12
REMARK    4  A    between atoms: O_12  and  C_13
REMARK                            x       y       z     vdW  Elec       q    Type
REMARK                         _______ _______ _______ _____ _____    ______ ____
ROOT
ATOM      1  C   UNL     1       1.560   4.393   3.638  0.00  0.00    -0.095 C 
ATOM      2  C   UNL     1       2.933   3.963   1.672  0.00  0.00    -0.012 C 
ATOM      3  C   UNL     1       2.575   4.147   0.174  0.00  0.00    +0.165 C 
ATOM      4  C   UNL     1       1.163   3.563   0.082  0.00  0.00    +0.054 C 
ATOM      5  C   UNL     1       0.612   4.035   1.449  0.00  0.00    -0.046 C 
ATOM      6  C   UNL     1      -0.794   3.544   1.654  0.00  0.00    +0.022 C 
ATOM      7  C   UNL     1      -1.675   4.210   0.586  0.00  0.00    +0.139 C 
ATOM      8  C   UNL     1      -0.972   4.388  -0.722  0.00  0.00    +0.001 C 
ATOM      9  C   UNL     1       0.277   4.114  -0.980  0.00  0.00    -0.014 C 
ATOM     10  C   UNL     1       1.202   2.061   0.002  0.00  0.00    -0.025 A 
ATOM     11  C   UNL     1      -0.017   1.379   0.010  0.00  0.00    +0.054 A 
ATOM     12  C   UNL     1       0.002  -0.004   0.002  0.00  0.00    +0.167 A 
ATOM     13  C   UNL     1       1.216  -0.710  -0.035  0.00  0.00    +0.167 A 
ATOM     14  C   UNL     1       2.421  -0.034  -0.092  0.00  0.00    +0.055 A 
ATOM     15  C   UNL     1       2.385   1.361  -0.090  0.00  0.00    -0.014 A 
ATOM     16  C   UNL     1       3.706   2.072  -0.255  0.00  0.00    +0.199 C 
ATOM     17  O   UNL     1       3.486   3.423  -0.638  0.00  0.00    -0.345 OA
ATOM     18  O   UNL     1       0.943  -2.036  -0.017  0.00  0.00    -0.453 OA
ATOM     19  C   UNL     1      -0.428  -2.127  -0.468  0.00  0.00    +0.466 C 
ATOM     20  O   UNL     1      -1.014  -0.900   0.027  0.00  0.00    -0.453 OA
ATOM     21  N   UNL     1       1.672   3.643   2.346  0.00  0.00    +0.384 N 
ATOM     22  H   UNL     1       1.621   2.635   2.533  0.00  0.00    -0.082 HD
ENDROOT
BRANCH   7  23
ATOM     23  O   UNL     1      -2.845   3.415   0.383  0.00  0.00    -0.376 OA
ATOM     24  C   UNL     1      -3.996   4.165  -0.011  0.00  0.00    +0.194 C 
ENDBRANCH   7  23
BRANCH   3  25
ATOM     25  O   UNL     1       2.569   5.535  -0.182  0.00  0.00    -0.365 OA
ATOM     26  H   UNL     1       3.438   5.956  -0.141  0.00  0.00    +0.213 HD
ENDBRANCH   3  25
TORSDOF 2
