REMARK  Name = ZINC29576154
REMARK  15 active torsions:
REMARK  status: ('A' for Active; 'I' for Inactive)
REMARK    1  A    between atoms: C_1  and  C_2
REMARK    2  A    between atoms: C_5  and  N_9
REMARK    3  A    between atoms: C_6  and  C_8
REMARK    4  A    between atoms: C_13  and  C_15
REMARK    5  A    between atoms: C_15  and  C_17
REMARK    6  A    between atoms: C_15  and  S_18
REMARK    7  A    between atoms: S_18  and  C_19
REMARK    8  A    between atoms: C_22  and  C_29
REMARK    9  A    between atoms: N_23  and  C_24
REMARK   10  A    between atoms: C_24  and  C_25
REMARK   11  A    between atoms: C_25  and  C_26
REMARK   12  A    between atoms: C_26  and  C_27
REMARK   13  A    between atoms: C_26  and  C_28
REMARK   14  A    between atoms: C_29  and  O_30
REMARK   15  A    between atoms: O_30  and  C_31
REMARK                            x       y       z     vdW  Elec       q    Type
REMARK                         _______ _______ _______ _____ _____    ______ ____
ROOT
ATOM      1  S   UNL     1       8.875  -2.846   1.496  0.00  0.00    -0.074 S 
ENDROOT
BRANCH   1   2
ATOM      2  C   UNL     1       7.686  -1.943   0.561  0.00  0.00    +0.192 A 
ATOM      3  N   UNL     1       7.609  -1.879  -0.748  0.00  0.00    -0.122 NA
ATOM      4  N   UNL     1       6.621  -1.131  -1.091  0.00  0.00    -0.130 NA
ATOM      5  C   UNL     1       6.015  -0.677  -0.030  0.00  0.00    +0.172 A 
ATOM      6  N   UNL     1       6.674  -1.174   1.060  0.00  0.00    -0.303 N 
BRANCH   6   7
ATOM      7  C   UNL     1       6.359  -0.934   2.470  0.00  0.00    +0.126 C 
BRANCH   7   8
ATOM      8  C   UNL     1       5.379  -2.001   2.962  0.00  0.00    +0.024 C 
BRANCH   8   9
ATOM      9  C   UNL     1       5.050  -1.750   4.435  0.00  0.00    -0.016 C 
ATOM     10  C   UNL     1       3.977  -2.740   4.894  0.00  0.00    +0.007 C 
ATOM     11  C   UNL     1       6.312  -1.939   5.280  0.00  0.00    +0.007 C 
ENDBRANCH   8   9
ENDBRANCH   7   8
ENDBRANCH   6   7
BRANCH   5  12
ATOM     12  C   UNL     1       4.813   0.232  -0.009  0.00  0.00    +0.305 C 
BRANCH  12  13
ATOM     13  O   UNL     1       3.620  -0.555  -0.007  0.00  0.00    -0.484 OA
BRANCH  13  14
ATOM     14  C   UNL     1       2.438   0.116   0.012  0.00  0.00    +0.121 A 
ATOM     15  C   UNL     1       1.241  -0.586   0.015  0.00  0.00    +0.045 A 
ATOM     16  C   UNL     1       0.042   0.099   0.034  0.00  0.00    +0.004 A 
ATOM     17  C   UNL     1       0.033   1.481   0.050  0.00  0.00    +0.000 A 
ATOM     18  C   UNL     1       1.224   2.182   0.047  0.00  0.00    +0.004 A 
ATOM     19  C   UNL     1       2.427   1.503   0.028  0.00  0.00    +0.045 A 
ENDBRANCH  13  14
ENDBRANCH  12  13
ENDBRANCH   5  12
ENDBRANCH   1   2
BRANCH   1  20
ATOM     20  C   UNL     1       9.845  -3.574   0.153  0.00  0.00    +0.137 C 
ATOM     21  C   UNL     1       8.970  -4.548  -0.638  0.00  0.00    +0.029 C 
BRANCH  20  26
ATOM     22  N   UNL     1      14.295  -5.350  -0.247  0.00  0.00    -0.269 N 
ATOM     23  C   UNL     1      13.188  -5.162   0.499  0.00  0.00    +0.310 C 
ATOM     24  O   UNL     1      13.141  -5.590   1.635  0.00  0.00    -0.252 OA
ATOM     25  N   UNL     1      12.132  -4.501  -0.017  0.00  0.00    -0.239 N 
ATOM     26  C   UNL     1      11.025  -4.314   0.729  0.00  0.00    +0.234 C 
ATOM     27  O   UNL     1      10.979  -4.740   1.863  0.00  0.00    -0.274 OA
ATOM     28  H   UNL     1      14.304  -5.045  -1.304  0.00  0.00    +0.156 HD
ATOM     29  H   UNL     1      12.175  -4.114  -1.045  0.00  0.00    +0.159 HD
BRANCH  22  34
ATOM     30  C   UNL     1      18.907  -7.708   2.067  0.00  0.00    +0.044 C 
ATOM     31  C   UNL     1      17.682  -7.081   1.453  0.00  0.00    -0.050 A 
ATOM     32  C   UNL     1      16.766  -6.424   2.255  0.00  0.00    +0.005 A 
ATOM     33  C   UNL     1      15.643  -5.850   1.694  0.00  0.00    +0.024 A 
ATOM     34  C   UNL     1      15.433  -5.931   0.324  0.00  0.00    +0.038 A 
ATOM     35  C   UNL     1      16.351  -6.595  -0.478  0.00  0.00    -0.029 A 
ATOM     36  C   UNL     1      17.476  -7.163   0.088  0.00  0.00    +0.008 A 
ATOM     37  C   UNL     1      16.124  -6.691  -1.964  0.00  0.00    +0.045 C 
ENDBRANCH  22  34
ENDBRANCH  20  26
ENDBRANCH   1  20
TORSDOF 10
