REMARK  Name = ZINC37515039
REMARK  2 active torsions:
REMARK  status: ('A' for Active; 'I' for Inactive)
REMARK    1  A    between atoms: C_3  and  N_8
REMARK    2  A    between atoms: C_6  and  N_7
REMARK                            x       y       z     vdW  Elec       q    Type
REMARK                         _______ _______ _______ _____ _____    ______ ____
ROOT
ATOM      1  N   UNL     1       3.587   2.132  -0.022  0.00  0.00    -0.193 N 
ATOM      2  C   UNL     1       4.812   1.564   0.055  0.00  0.00    +0.248 C 
ATOM      3  O   UNL     1       5.077   0.382   0.051  0.00  0.00    -0.273 OA
ATOM      4  C   UNL     1       5.775   2.718   0.146  0.00  0.00    +0.165 C 
ATOM      5  C   UNL     1       6.860   2.675  -0.949  0.00  0.00    +0.037 C 
ATOM      6  C   UNL     1       7.175   4.195  -1.129  0.00  0.00    +0.012 C 
ATOM      7  C   UNL     1       8.392   4.502  -0.279  0.00  0.00    +0.005 C 
ATOM      8  C   UNL     1       8.403   5.931   0.246  0.00  0.00    +0.000 C 
ATOM      9  C   UNL     1       7.130   6.144   1.076  0.00  0.00    +0.002 C 
ATOM     10  C   UNL     1       5.945   6.120   0.115  0.00  0.00    +0.023 C 
ATOM     11  C   UNL     1       5.889   4.886  -0.726  0.00  0.00    +0.082 C 
ATOM     12  N   UNL     1       4.934   3.881  -0.253  0.00  0.00    -0.270 N 
ATOM     13  C   UNL     1       3.670   3.469  -0.113  0.00  0.00    +0.316 C 
ATOM     14  O   UNL     1       2.711   4.215  -0.071  0.00  0.00    -0.252 OA
ENDROOT
BRANCH   1  17
ATOM     15  C   UNL     1      -0.007   1.366  -0.225  0.00  0.00    +0.024 A 
ATOM     16  C   UNL     1       1.179   2.072  -0.232  0.00  0.00    +0.026 A 
ATOM     17  C   UNL     1       2.381   1.413  -0.013  0.00  0.00    +0.046 A 
ATOM     18  C   UNL     1       2.391   0.044   0.213  0.00  0.00    +0.026 A 
ATOM     19  C   UNL     1       1.205  -0.663   0.221  0.00  0.00    +0.024 A 
ATOM     20  C   UNL     1       0.002  -0.004   0.002  0.00  0.00    +0.025 A 
BRANCH  20  21
ATOM     21  N   UNL     1      -1.199  -0.720   0.010  0.00  0.00    -0.358 N 
ATOM     22  H   UNL     1      -2.039  -0.260  -0.143  0.00  0.00    +0.142 HD
ATOM     23  H   UNL     1      -1.192  -1.677   0.168  0.00  0.00    +0.142 HD
ENDBRANCH  20  21
ENDBRANCH   1  17
TORSDOF 2
