REMARK  Name = ZINC05904760
REMARK  5 active torsions:
REMARK  status: ('A' for Active; 'I' for Inactive)
REMARK    1  A    between atoms: C_1  and  C_2
REMARK    2  A    between atoms: C_2  and  O_3
REMARK    3  A    between atoms: O_3  and  C_4
REMARK    4  A    between atoms: C_7  and  C_10
REMARK    5  A    between atoms: C_13  and  C_25
REMARK                            x       y       z     vdW  Elec       q    Type
REMARK                         _______ _______ _______ _____ _____    ______ ____
ROOT
ATOM      1  C   UNL     1       0.011  -4.286   0.001  0.00  0.00    +0.100 C 
ATOM      2  N   UNL     1       0.813  -5.030   0.687  0.00  0.00    -0.172 NA
ATOM      3  N   UNL     1       1.896  -4.468   1.377  0.00  0.00    -0.263 N 
ATOM      4  C   UNL     1       2.840  -3.777   0.636  0.00  0.00    +0.124 C 
ATOM      5  N   UNL     1       2.523  -2.725  -0.057  0.00  0.00    -0.298 N 
ATOM      6  C   UNL     1       1.305  -2.118  -0.048  0.00  0.00    +0.050 A 
ATOM      7  C   UNL     1       0.096  -2.806  -0.029  0.00  0.00    +0.024 A 
ATOM      8  C   UNL     1      -1.115  -2.093  -0.036  0.00  0.00    +0.012 A 
ATOM      9  C   UNL     1      -1.147  -0.734  -0.054  0.00  0.00    +0.009 A 
ATOM     10  C   UNL     1       0.053  -0.005  -0.065  0.00  0.00    -0.016 A 
ATOM     11  C   UNL     1       1.288  -0.697  -0.060  0.00  0.00    +0.004 A 
ATOM     12  C   UNL     1       2.488   0.031  -0.067  0.00  0.00    +0.010 A 
ATOM     13  C   UNL     1       2.449   1.392  -0.080  0.00  0.00    +0.001 A 
ATOM     14  C   UNL     1       1.233   2.075  -0.086  0.00  0.00    +0.001 A 
ATOM     15  C   UNL     1       0.051   1.401  -0.080  0.00  0.00    +0.008 A 
ATOM     16  H   UNL     1       2.013  -4.561   2.467  0.00  0.00    +0.190 HD
ATOM     17  H   UNL     1       3.269  -2.256  -0.716  0.00  0.00    +0.154 HD
ENDROOT
BRANCH   4  18
ATOM     18  C   UNL     1       4.238  -4.246   0.633  0.00  0.00    +0.015 A 
ATOM     19  C   UNL     1       5.205  -3.566  -0.113  0.00  0.00    +0.014 A 
ATOM     20  C   UNL     1       6.510  -4.008  -0.108  0.00  0.00    +0.039 A 
ATOM     21  C   UNL     1       6.864  -5.129   0.627  0.00  0.00    +0.123 A 
ATOM     22  C   UNL     1       5.908  -5.811   1.365  0.00  0.00    +0.039 A 
ATOM     23  C   UNL     1       4.600  -5.376   1.372  0.00  0.00    +0.014 A 
ATOM     24  F   UNL     1       8.144  -5.560   0.624  0.00  0.00    -0.205 F 
ENDBRANCH   4  18
BRANCH   1  28
ATOM     25  C   UNL     1      -3.031  -6.176  -2.287  0.00  0.00    +0.121 A 
ATOM     26  C   UNL     1      -2.587  -4.908  -2.639  0.00  0.00    +0.046 A 
ATOM     27  C   UNL     1      -1.601  -4.291  -1.899  0.00  0.00    +0.013 A 
ATOM     28  C   UNL     1      -1.048  -4.944  -0.795  0.00  0.00    +0.003 A 
ATOM     29  C   UNL     1      -1.492  -6.221  -0.449  0.00  0.00    +0.013 A 
ATOM     30  C   UNL     1      -2.483  -6.829  -1.190  0.00  0.00    +0.046 A 
BRANCH  25  31
ATOM     31  O   UNL     1      -4.003  -6.781  -3.019  0.00  0.00    -0.492 OA
BRANCH  31  33
ATOM     32  C   UNL     1      -5.506  -8.600  -3.539  0.00  0.00    +0.048 C 
ATOM     33  C   UNL     1      -4.412  -8.085  -2.602  0.00  0.00    +0.225 C 
ENDBRANCH  31  33
ENDBRANCH  25  31
ENDBRANCH   1  28
TORSDOF 4
