REMARK  Name = ZINC59168556
REMARK  4 active torsions:
REMARK  status: ('A' for Active; 'I' for Inactive)
REMARK    1  A    between atoms: C_4  and  C_7
REMARK    2  A    between atoms: C_7  and  C_8
REMARK    3  A    between atoms: C_14  and  C_17
REMARK    4  A    between atoms: C_26  and  O_27
REMARK                            x       y       z     vdW  Elec       q    Type
REMARK                         _______ _______ _______ _____ _____    ______ ____
ROOT
ATOM      1  C   UNL     1       4.165  -0.959   1.378  0.00  0.00    +0.156 A 
ATOM      2  N   UNL     1       4.904  -0.167   2.097  0.00  0.00    -0.132 NA
ATOM      3  N   UNL     1       5.114  -0.689   3.254  0.00  0.00    -0.121 NA
ATOM      4  C   UNL     1       4.533  -1.846   3.318  0.00  0.00    +0.211 A 
ATOM      5  N   UNL     1       3.863  -2.072   2.142  0.00  0.00    -0.224 N 
ATOM      6  N   UNL     1       3.117  -3.205   2.010  0.00  0.00    -0.263 N 
ATOM      7  C   UNL     1       3.485  -4.311   2.933  0.00  0.00    +0.187 C 
ATOM      8  S   UNL     1       4.217  -3.302   4.292  0.00  0.00    -0.056 S 
ATOM      9  H   UNL     1       2.131  -2.998   2.068  0.00  0.00    +0.168 HD
ENDROOT
BRANCH   7  10
ATOM     10  C   UNL     1       4.511  -5.229   2.319  0.00  0.00    +0.034 A 
ATOM     11  C   UNL     1       4.259  -6.607   2.223  0.00  0.00    -0.009 A 
ATOM     12  C   UNL     1       3.056  -7.162   2.693  0.00  0.00    +0.009 A 
ATOM     13  C   UNL     1       2.845  -8.502   2.584  0.00  0.00    +0.001 A 
ATOM     14  C   UNL     1       3.805  -9.336   2.013  0.00  0.00    +0.001 A 
ATOM     15  C   UNL     1       4.981  -8.834   1.547  0.00  0.00    +0.008 A 
ATOM     16  C   UNL     1       5.235  -7.455   1.642  0.00  0.00    -0.017 A 
ATOM     17  C   UNL     1       6.438  -6.901   1.171  0.00  0.00    +0.012 A 
ATOM     18  C   UNL     1       6.652  -5.563   1.278  0.00  0.00    +0.046 A 
ATOM     19  C   UNL     1       5.689  -4.724   1.847  0.00  0.00    +0.123 A 
BRANCH  19  20
ATOM     20  O   UNL     1       5.929  -3.389   1.935  0.00  0.00    -0.506 OA
ATOM     21  H   UNL     1       6.368  -3.122   2.754  0.00  0.00    +0.292 HD
ENDBRANCH  19  20
ENDBRANCH   7  10
BRANCH   1  22
ATOM     22  C   UNL     1       3.712  -0.707  -0.037  0.00  0.00    +0.113 C 
BRANCH  22  26
ATOM     23  C   UNL     1      -0.016   1.379   0.010  0.00  0.00    +0.000 A 
ATOM     24  C   UNL     1       1.172   2.086   0.003  0.00  0.00    +0.000 A 
ATOM     25  C   UNL     1       2.378   1.411  -0.012  0.00  0.00    +0.004 A 
ATOM     26  C   UNL     1       2.397   0.029  -0.019  0.00  0.00    -0.040 A 
ATOM     27  C   UNL     1       1.209  -0.678  -0.011  0.00  0.00    +0.004 A 
ATOM     28  C   UNL     1       0.003  -0.003   0.002  0.00  0.00    +0.000 A 
ENDBRANCH  22  26
ENDBRANCH   1  22
TORSDOF 4
