REMARK  Name = ZINC41006197
REMARK  11 active torsions:
REMARK  status: ('A' for Active; 'I' for Inactive)
REMARK    1  A    between atoms: C_1  and  C_2
REMARK    2  A    between atoms: C_2  and  O_39
REMARK    3  A    between atoms: C_6  and  C_28
REMARK    4  A    between atoms: C_8  and  C_23
REMARK    5  A    between atoms: C_10  and  C_12
REMARK    6  A    between atoms: N_14  and  C_15
REMARK    7  A    between atoms: C_20  and  O_21
REMARK    8  A    between atoms: O_21  and  C_22
REMARK    9  A    between atoms: N_30  and  C_31
REMARK   10  A    between atoms: C_36  and  O_37
REMARK   11  A    between atoms: O_37  and  C_38
REMARK                            x       y       z     vdW  Elec       q    Type
REMARK                         _______ _______ _______ _____ _____    ______ ____
ROOT
ATOM      1  C   UNL     1      -0.413   0.044   1.594  0.00  0.00    +0.042 C 
ATOM      2  C   UNL     1       0.268  -1.178   0.975  0.00  0.00    +0.082 C 
ATOM      3  C   UNL     1      -0.787  -2.240   0.648  0.00  0.00    +0.110 C 
ATOM      4  C   UNL     1      -0.081  -3.486   0.163  0.00  0.00    +0.149 C 
ATOM      5  O   UNL     1      -0.403  -4.017  -0.873  0.00  0.00    -0.296 OA
ATOM      6  C   UNL     1       1.040  -4.051   1.007  0.00  0.00    +0.150 C 
ATOM      7  C   UNL     1       2.029  -2.923   1.320  0.00  0.00    +0.059 C 
ATOM      8  C   UNL     1       1.281  -1.755   1.965  0.00  0.00    +0.116 C 
ENDROOT
BRANCH   7   9
ATOM      9  C   UNL     1       3.084  -3.429   2.269  0.00  0.00    -0.005 A 
ATOM     10  C   UNL     1       4.268  -4.028   1.990  0.00  0.00    +0.011 A 
ATOM     11  C   UNL     1       5.088  -4.413   3.034  0.00  0.00    +0.008 A 
ATOM     12  C   UNL     1       4.684  -4.181   4.306  0.00  0.00    +0.045 A 
ATOM     13  S   UNL     1       3.104  -3.389   4.054  0.00  0.00    -0.101 S 
ENDBRANCH   7   9
BRANCH   8  14
ATOM     14  C   UNL     1       0.557  -2.241   3.195  0.00  0.00    +0.224 C 
ATOM     15  O   UNL     1      -0.504  -2.818   3.085  0.00  0.00    -0.275 OA
ATOM     16  N   UNL     1       1.090  -2.036   4.415  0.00  0.00    -0.282 N 
ATOM     17  H   UNL     1       1.914  -1.532   4.506  0.00  0.00    +0.155 HD
BRANCH  16  18
ATOM     18  C   UNL     1       0.454  -2.551   5.553  0.00  0.00    +0.076 A 
ATOM     19  C   UNL     1      -0.911  -2.794   5.536  0.00  0.00    +0.027 A 
ATOM     20  C   UNL     1      -1.536  -3.302   6.659  0.00  0.00    +0.002 A 
ATOM     21  C   UNL     1      -0.803  -3.569   7.801  0.00  0.00    +0.004 A 
ATOM     22  C   UNL     1       0.558  -3.329   7.825  0.00  0.00    +0.047 A 
ATOM     23  C   UNL     1       1.193  -2.825   6.702  0.00  0.00    +0.141 A 
BRANCH  23  24
ATOM     24  O   UNL     1       2.533  -2.595   6.722  0.00  0.00    -0.493 OA
ATOM     25  C   UNL     1       3.225  -2.900   7.934  0.00  0.00    +0.277 C 
ENDBRANCH  23  24
ENDBRANCH  16  18
ENDBRANCH   8  14
BRANCH   6  26
ATOM     26  C   UNL     1       0.477  -4.606   2.290  0.00  0.00    +0.228 C 
ATOM     27  O   UNL     1       1.177  -4.678   3.278  0.00  0.00    -0.275 OA
ATOM     28  N   UNL     1      -0.803  -5.023   2.339  0.00  0.00    -0.282 N 
ATOM     29  H   UNL     1      -1.342  -5.031   1.532  0.00  0.00    +0.155 HD
BRANCH  28  30
ATOM     30  C   UNL     1      -1.357  -5.446   3.555  0.00  0.00    +0.076 A 
ATOM     31  C   UNL     1      -0.637  -5.304   4.732  0.00  0.00    +0.027 A 
ATOM     32  C   UNL     1      -1.185  -5.721   5.931  0.00  0.00    +0.002 A 
ATOM     33  C   UNL     1      -2.450  -6.280   5.959  0.00  0.00    +0.004 A 
ATOM     34  C   UNL     1      -3.173  -6.424   4.790  0.00  0.00    +0.047 A 
ATOM     35  C   UNL     1      -2.633  -6.004   3.585  0.00  0.00    +0.141 A 
BRANCH  35  36
ATOM     36  O   UNL     1      -3.345  -6.139   2.435  0.00  0.00    -0.493 OA
ATOM     37  C   UNL     1      -4.646  -6.720   2.542  0.00  0.00    +0.277 C 
ENDBRANCH  35  36
ENDBRANCH  28  30
ENDBRANCH   6  26
BRANCH   2  38
ATOM     38  O   UNL     1       0.942  -0.791  -0.225  0.00  0.00    -0.388 OA
ATOM     39  H   UNL     1       0.360  -0.416  -0.899  0.00  0.00    +0.210 HD
ENDBRANCH   2  38
TORSDOF 8
