REMARK  Name = ZINC01438097
REMARK  6 active torsions:
REMARK  status: ('A' for Active; 'I' for Inactive)
REMARK    1  A    between atoms: C_1  and  C_2
REMARK    2  A    between atoms: C_2  and  O_3
REMARK    3  A    between atoms: O_3  and  C_4
REMARK    4  A    between atoms: C_6  and  C_12
REMARK    5  A    between atoms: C_9  and  O_10
REMARK    6  A    between atoms: C_17  and  C_22
REMARK                            x       y       z     vdW  Elec       q    Type
REMARK                         _______ _______ _______ _____ _____    ______ ____
ROOT
ATOM      1  C   UNL     1       3.672   2.193  -0.021  0.00  0.00    +0.136 C 
ATOM      2  C   UNL     1       3.935   2.698   1.377  0.00  0.00    +0.036 C 
ATOM      3  C   UNL     1       3.869   3.976   1.782  0.00  0.00    +0.017 C 
ATOM      4  C   UNL     1       4.175   4.347   3.223  0.00  0.00    +0.059 C 
ATOM      5  C   UNL     1       3.766   3.207   4.154  0.00  0.00    +0.032 C 
ATOM      6  C   UNL     1       4.558   1.960   3.742  0.00  0.00    +0.088 C 
ATOM      7  C   UNL     1       4.280   1.676   2.297  0.00  0.00    +0.163 C 
ATOM      8  O   UNL     1       4.351   0.529   1.901  0.00  0.00    -0.292 OA
ATOM      9  N   UNL     1       3.553   5.023   0.978  0.00  0.00    -0.316 N 
ATOM     10  C   UNL     1       2.491   5.047   0.081  0.00  0.00    +0.052 A 
ATOM     11  C   UNL     1       1.449   5.949   0.194  0.00  0.00    +0.025 A 
ATOM     12  C   UNL     1       0.483   5.998  -0.797  0.00  0.00    +0.002 A 
ATOM     13  C   UNL     1       0.561   5.152  -1.889  0.00  0.00    +0.002 A 
ATOM     14  C   UNL     1       1.591   4.234  -1.991  0.00  0.00    +0.025 A 
ATOM     15  C   UNL     1       2.549   4.170  -0.992  0.00  0.00    +0.049 A 
ATOM     16  N   UNL     1       3.578   3.230  -1.026  0.00  0.00    -0.331 N 
ATOM     17  H   UNL     1       4.111   5.814   1.033  0.00  0.00    +0.152 HD
ATOM     18  H   UNL     1       4.240   3.272  -1.733  0.00  0.00    +0.147 HD
ENDROOT
BRANCH   1  21
ATOM     19  C   UNL     1       1.201  -0.654  -0.273  0.00  0.00    +0.163 A 
ATOM     20  C   UNL     1       2.388   0.061  -0.280  0.00  0.00    +0.055 A 
ATOM     21  C   UNL     1       2.380   1.417  -0.013  0.00  0.00    -0.018 A 
ATOM     22  C   UNL     1       1.189   2.064   0.262  0.00  0.00    +0.029 A 
ATOM     23  C   UNL     1       0.001   1.357   0.270  0.00  0.00    +0.086 A 
ATOM     24  C   UNL     1       0.002  -0.004   0.003  0.00  0.00    +0.177 A 
ATOM     25 CL   UNL     1      -1.494   2.173   0.609  0.00  0.00    -0.080 Cl
BRANCH  24  26
ATOM     26  O   UNL     1      -1.165  -0.702   0.011  0.00  0.00    -0.502 OA
ATOM     27  H   UNL     1      -1.610  -0.735  -0.847  0.00  0.00    +0.292 HD
ENDBRANCH  24  26
BRANCH  19  28
ATOM     28  O   UNL     1       1.208  -1.988  -0.536  0.00  0.00    -0.489 OA
BRANCH  28  30
ATOM     29  C   UNL     1       2.283  -4.083  -1.080  0.00  0.00    +0.048 C 
ATOM     30  C   UNL     1       2.475  -2.589  -0.811  0.00  0.00    +0.226 C 
ENDBRANCH  28  30
ENDBRANCH  19  28
ENDBRANCH   1  21
BRANCH   5  31
ATOM     31  C   UNL     1       4.092   3.571   5.580  0.00  0.00    -0.044 A 
ATOM     32  C   UNL     1       5.399   3.835   5.945  0.00  0.00    +0.004 A 
ATOM     33  C   UNL     1       5.697   4.173   7.251  0.00  0.00    +0.000 A 
ATOM     34  C   UNL     1       4.689   4.238   8.195  0.00  0.00    +0.000 A 
ATOM     35  C   UNL     1       3.383   3.970   7.832  0.00  0.00    +0.000 A 
ATOM     36  C   UNL     1       3.084   3.636   6.524  0.00  0.00    +0.004 A 
ENDBRANCH   5  31
TORSDOF 5
