REMARK  Name = ZINC09312501
REMARK  7 active torsions:
REMARK  status: ('A' for Active; 'I' for Inactive)
REMARK    1  A    between atoms: C_1  and  C_2
REMARK    2  A    between atoms: C_5  and  N_33
REMARK    3  A    between atoms: C_7  and  N_8
REMARK    4  A    between atoms: C_13  and  C_29
REMARK    5  A    between atoms: C_29  and  C_30
REMARK    6  A    between atoms: C_30  and  S_31
REMARK    7  A    between atoms: S_31  and  C_32
REMARK                            x       y       z     vdW  Elec       q    Type
REMARK                         _______ _______ _______ _____ _____    ______ ____
ROOT
ATOM      1  N   UNL     1      -2.283  -1.329  -2.584  0.00  0.00    -0.210 N 
ATOM      2  C   UNL     1      -2.961  -1.403  -1.393  0.00  0.00    +0.228 C 
ATOM      3  O   UNL     1      -3.905  -2.114  -1.125  0.00  0.00    -0.275 OA
ATOM      4  C   UNL     1      -2.281  -0.415  -0.498  0.00  0.00    +0.073 C 
ATOM      5  C   UNL     1      -2.089  -0.658   0.984  0.00  0.00    -0.057 C 
ATOM      6  C   UNL     1       0.002  -0.004   0.002  0.00  0.00    +0.050 C 
ATOM      7  C   UNL     1      -0.815  -0.649  -1.025  0.00  0.00    +0.088 C 
ATOM      8  C   UNL     1      -1.043  -0.751  -2.449  0.00  0.00    +0.229 C 
ATOM      9  O   UNL     1      -0.299  -0.387  -3.334  0.00  0.00    -0.275 OA
ATOM     10  C   UNL     1      -0.018   1.498   0.010  0.00  0.00    -0.028 A 
ATOM     11  C   UNL     1      -1.028   2.435   0.020  0.00  0.00    +0.004 A 
ATOM     12  C   UNL     1      -0.724   3.784   0.031  0.00  0.00    +0.000 A 
ATOM     13  C   UNL     1       0.597   4.192   0.022  0.00  0.00    +0.002 A 
ATOM     14  C   UNL     1       1.613   3.259   0.006  0.00  0.00    +0.023 A 
ATOM     15  C   UNL     1       1.315   1.898  -0.000  0.00  0.00    +0.036 A 
ATOM     16  N   UNL     1       2.154   0.782  -0.016  0.00  0.00    -0.286 N 
ATOM     17  C   UNL     1       1.463  -0.373  -0.016  0.00  0.00    +0.211 C 
ATOM     18  O   UNL     1       1.927  -1.493  -0.029  0.00  0.00    -0.277 OA
ATOM     19  H   UNL     1       3.123   0.834  -0.026  0.00  0.00    +0.155 HD
ATOM     20  N   UNL     1      -0.635  -0.525   1.243  0.00  0.00    +0.394 N 
ATOM     21  H   UNL     1      -0.238  -1.442   1.481  0.00  0.00    -0.083 HD
ATOM     22  H   UNL     1      -0.477   0.129   2.018  0.00  0.00    -0.083 HD
ENDROOT
BRANCH   1  29
ATOM     23  C   UNL     1      -1.774  -4.029  -3.323  0.00  0.00    +0.045 C 
ATOM     24  C   UNL     1      -2.573  -3.102  -4.201  0.00  0.00    -0.028 A 
ATOM     25  C   UNL     1      -3.082  -3.554  -5.403  0.00  0.00    +0.007 A 
ATOM     26  C   UNL     1      -3.816  -2.704  -6.209  0.00  0.00    +0.033 A 
ATOM     27  C   UNL     1      -4.042  -1.397  -5.815  0.00  0.00    +0.128 A 
ATOM     28  C   UNL     1      -3.540  -0.941  -4.613  0.00  0.00    +0.057 A 
ATOM     29  C   UNL     1      -2.799  -1.791  -3.804  0.00  0.00    +0.049 A 
BRANCH  27  30
ATOM     30  N   UNL     1      -4.829  -0.490  -6.681  0.00  0.00    +0.056 N 
ATOM     31  O   UNL     1      -5.276  -0.894  -7.739  0.00  0.00    -0.126 OA
ATOM     32  O   UNL     1      -5.028   0.660  -6.335  0.00  0.00    -0.126 OA
ENDBRANCH  27  30
ENDBRANCH   1  29
BRANCH   5  33
ATOM     33  C   UNL     1      -2.866   0.385   1.789  0.00  0.00    -0.004 C 
BRANCH  33  34
ATOM     34  C   UNL     1      -2.746   0.070   3.282  0.00  0.00    +0.067 C 
BRANCH  34  35
ATOM     35  S   UNL     1      -3.667   1.306   4.237  0.00  0.00    -0.164 S 
ATOM     36  C   UNL     1      -3.427   0.796   5.962  0.00  0.00    +0.084 C 
ENDBRANCH  34  35
ENDBRANCH  33  34
ENDBRANCH   5  33
TORSDOF 5
