REMARK  Name = ZINC14224161
REMARK  11 active torsions:
REMARK  status: ('A' for Active; 'I' for Inactive)
REMARK    1  A    between atoms: C_1  and  C_2
REMARK    2  A    between atoms: C_2  and  C_3
REMARK    3  A    between atoms: C_2  and  C_4
REMARK    4  A    between atoms: C_7  and  S_10
REMARK    5  A    between atoms: S_10  and  N_13
REMARK    6  A    between atoms: N_13  and  C_14
REMARK    7  A    between atoms: C_17  and  S_20
REMARK    8  A    between atoms: S_20  and  N_23
REMARK    9  A    between atoms: N_23  and  C_24
REMARK   10  A    between atoms: C_27  and  O_30
REMARK   11  A    between atoms: O_30  and  C_31
REMARK                            x       y       z     vdW  Elec       q    Type
REMARK                         _______ _______ _______ _____ _____    ______ ____
ROOT
ATOM      1  C   UNL     1       3.975   3.179   0.101  0.00  0.00    +0.048 A 
ATOM      2  C   UNL     1       3.279   3.070  -1.097  0.00  0.00    +0.026 A 
ATOM      3  C   UNL     1       1.994   2.564  -1.103  0.00  0.00    +0.030 A 
ATOM      4  C   UNL     1       1.400   2.166   0.080  0.00  0.00    +0.109 A 
ATOM      5  C   UNL     1       2.088   2.279   1.275  0.00  0.00    +0.030 A 
ATOM      6  C   UNL     1       3.375   2.778   1.288  0.00  0.00    +0.026 A 
ENDROOT
BRANCH   4   7
ATOM      7  S   UNL     1      -0.240   1.522   0.067  0.00  0.00    +0.072 S 
ATOM      8  O   UNL     1      -0.833   1.946  -1.153  0.00  0.00    -0.150 OA
ATOM      9  O   UNL     1      -0.805   1.824   1.335  0.00  0.00    -0.150 OA
BRANCH   7  10
ATOM     10  N   UNL     1      -0.117  -0.128  -0.015  0.00  0.00    -0.216 N 
ATOM     11  H   UNL     1      -0.458  -0.602  -0.789  0.00  0.00    +0.174 HD
BRANCH  10  12
ATOM     12  C   UNL     1       0.480  -0.838   1.033  0.00  0.00    +0.048 A 
ATOM     13  C   UNL     1       1.746  -1.385   0.870  0.00  0.00    +0.028 A 
ATOM     14  C   UNL     1       2.336  -2.080   1.906  0.00  0.00    +0.047 A 
ATOM     15  C   UNL     1       1.661  -2.243   3.107  0.00  0.00    +0.120 A 
ATOM     16  C   UNL     1       0.394  -1.701   3.269  0.00  0.00    +0.047 A 
ATOM     17  C   UNL     1      -0.196  -1.000   2.236  0.00  0.00    +0.028 A 
BRANCH  15  18
ATOM     18  O   UNL     1       2.240  -2.933   4.125  0.00  0.00    -0.495 OA
ATOM     19  C   UNL     1       3.546  -3.463   3.889  0.00  0.00    +0.277 C 
ENDBRANCH  15  18
ENDBRANCH  10  12
ENDBRANCH   7  10
ENDBRANCH   4   7
BRANCH   1  20
ATOM     20  N   UNL     1       5.275   3.690   0.111  0.00  0.00    -0.216 N 
ATOM     21  H   UNL     1       5.923   3.379  -0.540  0.00  0.00    +0.174 HD
BRANCH  20  22
ATOM     22  S   UNL     1       5.708   4.828   1.234  0.00  0.00    +0.072 S 
ATOM     23  O   UNL     1       5.347   4.303   2.504  0.00  0.00    -0.150 OA
ATOM     24  O   UNL     1       7.038   5.220   0.922  0.00  0.00    -0.150 OA
BRANCH  22  28
ATOM     25  C   UNL     1       3.092   8.456   0.542  0.00  0.00    -0.045 A 
ATOM     26  C   UNL     1       2.733   7.516   1.489  0.00  0.00    +0.006 A 
ATOM     27  C   UNL     1       3.532   6.408   1.700  0.00  0.00    +0.029 A 
ATOM     28  C   UNL     1       4.689   6.240   0.964  0.00  0.00    +0.109 A 
ATOM     29  C   UNL     1       5.051   7.183   0.021  0.00  0.00    +0.029 A 
ATOM     30  C   UNL     1       4.250   8.289  -0.194  0.00  0.00    +0.006 A 
BRANCH  25  32
ATOM     31  C   UNL     1       3.024  10.935   0.593  0.00  0.00    +0.012 C 
ATOM     32  C   UNL     1       2.220   9.664   0.310  0.00  0.00    +0.013 C 
ATOM     33  C   UNL     1       1.741   9.676  -1.142  0.00  0.00    +0.012 C 
ENDBRANCH  25  32
ENDBRANCH  22  28
ENDBRANCH  20  22
ENDBRANCH   1  20
TORSDOF 8
