REMARK  Name = ZINC05557705
REMARK  8 active torsions:
REMARK  status: ('A' for Active; 'I' for Inactive)
REMARK    1  A    between atoms: C_1  and  C_2
REMARK    2  A    between atoms: C_4  and  C_27
REMARK    3  A    between atoms: C_6  and  N_8
REMARK    4  A    between atoms: N_8  and  S_9
REMARK    5  A    between atoms: S_9  and  C_12
REMARK    6  A    between atoms: C_15  and  N_18
REMARK    7  A    between atoms: C_19  and  C_20
REMARK    8  A    between atoms: C_25  and  O_26
REMARK                            x       y       z     vdW  Elec       q    Type
REMARK                         _______ _______ _______ _____ _____    ______ ____
ROOT
ATOM      1  C   UNL     1      -0.470   4.628   0.677  0.00  0.00    +0.109 A 
ATOM      2  C   UNL     1       0.843   4.669   1.112  0.00  0.00    +0.031 A 
ATOM      3  C   UNL     1       1.657   5.725   0.761  0.00  0.00    +0.029 A 
ATOM      4  C   UNL     1       1.151   6.761  -0.027  0.00  0.00    +0.064 A 
ATOM      5  C   UNL     1      -0.177   6.717  -0.458  0.00  0.00    +0.029 A 
ATOM      6  C   UNL     1      -0.979   5.651  -0.103  0.00  0.00    +0.031 A 
ENDROOT
BRANCH   1   7
ATOM      7  S   UNL     1      -1.501   3.271   1.126  0.00  0.00    +0.072 S 
ATOM      8  O   UNL     1      -2.842   3.720   0.994  0.00  0.00    -0.150 OA
ATOM      9  O   UNL     1      -0.986   2.756   2.346  0.00  0.00    -0.150 OA
BRANCH   7  10
ATOM     10  N   UNL     1      -1.281   2.092  -0.016  0.00  0.00    -0.216 N 
ATOM     11  H   UNL     1      -2.021   1.820  -0.581  0.00  0.00    +0.174 HD
BRANCH  10  17
ATOM     12  C   UNL     1       2.876   1.551  -2.581  0.00  0.00    +0.044 C 
ATOM     13  C   UNL     1       2.005   1.205  -1.401  0.00  0.00    -0.048 A 
ATOM     14  C   UNL     1       2.442   0.284  -0.467  0.00  0.00    +0.006 A 
ATOM     15  C   UNL     1       1.647  -0.036   0.618  0.00  0.00    -0.048 A 
ATOM     16  C   UNL     1       0.412   0.563   0.771  0.00  0.00    +0.028 A 
ATOM     17  C   UNL     1      -0.031   1.488  -0.165  0.00  0.00    +0.049 A 
ATOM     18  C   UNL     1       0.771   1.808  -1.254  0.00  0.00    +0.028 A 
ATOM     19  C   UNL     1       2.128  -1.040   1.634  0.00  0.00    +0.044 C 
ENDBRANCH  10  17
ENDBRANCH   7  10
ENDBRANCH   1   7
BRANCH   4  20
ATOM     20  N   UNL     1       1.951   7.815  -0.374  0.00  0.00    -0.255 NA
ATOM     21  C   UNL     1       2.712   8.379   0.521  0.00  0.00    +0.123 C 
BRANCH  21  22
ATOM     22  C   UNL     1       3.572   9.512   0.148  0.00  0.00    +0.034 A 
ATOM     23  C   UNL     1       4.386  10.123   1.107  0.00  0.00    +0.013 A 
ATOM     24  C   UNL     1       5.194  11.180   0.748  0.00  0.00    +0.001 A 
ATOM     25  C   UNL     1       5.195  11.649  -0.556  0.00  0.00    +0.004 A 
ATOM     26  C   UNL     1       4.392  11.057  -1.512  0.00  0.00    +0.046 A 
ATOM     27  C   UNL     1       3.577   9.989  -1.172  0.00  0.00    +0.125 A 
BRANCH  27  28
ATOM     28  O   UNL     1       2.788   9.408  -2.110  0.00  0.00    -0.506 OA
ATOM     29  H   UNL     1       1.907   9.800  -2.182  0.00  0.00    +0.292 HD
ENDBRANCH  27  28
ENDBRANCH  21  22
ENDBRANCH   4  20
TORSDOF 6
