REMARK  Name = ZINC06650731
REMARK  8 active torsions:
REMARK  status: ('A' for Active; 'I' for Inactive)
REMARK    1  A    between atoms: C_4  and  C_7
REMARK    2  A    between atoms: C_7  and  C_8
REMARK    3  A    between atoms: C_8  and  C_10
REMARK    4  A    between atoms: C_8  and  N_20
REMARK    5  A    between atoms: C_21  and  C_23
REMARK    6  A    between atoms: C_23  and  C_24
REMARK    7  A    between atoms: C_24  and  C_25
REMARK    8  A    between atoms: C_25  and  C_26
REMARK                            x       y       z     vdW  Elec       q    Type
REMARK                         _______ _______ _______ _____ _____    ______ ____
ROOT
ATOM      1  C   UNL     1      -1.295   2.059   0.019  0.00  0.00    +0.143 C 
ENDROOT
BRANCH   1   2
ATOM      2  C   UNL     1      -1.107   3.431  -0.575  0.00  0.00    +0.129 A 
ATOM      3  N   UNL     1       0.046   3.888  -1.133  0.00  0.00    -0.340 N 
ATOM      4  H   UNL     1       0.904   3.381  -1.219  0.00  0.00    +0.167 HD
ATOM      5  C   UNL     1      -0.187   5.181  -1.557  0.00  0.00    +0.066 A 
ATOM      6  C   UNL     1       0.587   6.146  -2.188  0.00  0.00    +0.028 A 
ATOM      7  C   UNL     1       0.038   7.375  -2.484  0.00  0.00    +0.002 A 
ATOM      8  C   UNL     1      -1.282   7.653  -2.156  0.00  0.00    +0.002 A 
ATOM      9  C   UNL     1      -2.058   6.716  -1.536  0.00  0.00    +0.030 A 
ATOM     10  C   UNL     1      -1.523   5.463  -1.226  0.00  0.00    +0.089 A 
ATOM     11  N   UNL     1      -2.027   4.350  -0.633  0.00  0.00    -0.231 NA
ENDBRANCH   1   2
BRANCH   1  12
ATOM     12  N   UNL     1      -0.016   1.344   0.009  0.00  0.00    -0.305 N 
ATOM     13  C   UNL     1       0.002  -0.004   0.002  0.00  0.00    +0.214 C 
ATOM     14  O   UNL     1      -1.040  -0.625   0.009  0.00  0.00    -0.276 OA
ATOM     15  H   UNL     1       0.817   1.840   0.004  0.00  0.00    +0.149 HD
BRANCH  13  16
ATOM     16  C   UNL     1       1.317  -0.740  -0.015  0.00  0.00    +0.096 C 
BRANCH  16  17
ATOM     17  C   UNL     1       1.058  -2.248  -0.020  0.00  0.00    +0.014 C 
BRANCH  17  18
ATOM     18  C   UNL     1       2.393  -2.994  -0.037  0.00  0.00    +0.038 C 
BRANCH  18  19
ATOM     19  C   UNL     1       2.138  -4.480  -0.042  0.00  0.00    -0.022 A 
ATOM     20  C   UNL     1       2.111  -5.289   1.028  0.00  0.00    +0.087 A 
ATOM     21  N   UNL     1       1.848  -6.573   0.635  0.00  0.00    -0.360 N 
ATOM     22  H   UNL     1       1.778  -7.335   1.232  0.00  0.00    +0.165 HD
ATOM     23  C   UNL     1       1.703  -6.624  -0.733  0.00  0.00    +0.047 A 
ATOM     24  C   UNL     1       1.878  -5.315  -1.218  0.00  0.00    +0.003 A 
ATOM     25  C   UNL     1       1.784  -5.061  -2.587  0.00  0.00    +0.010 A 
ATOM     26  C   UNL     1       1.522  -6.086  -3.451  0.00  0.00    +0.001 A 
ATOM     27  C   UNL     1       1.349  -7.380  -2.978  0.00  0.00    +0.002 A 
ATOM     28  C   UNL     1       1.437  -7.653  -1.630  0.00  0.00    +0.026 A 
ENDBRANCH  18  19
ENDBRANCH  17  18
ENDBRANCH  16  17
ENDBRANCH  13  16
ENDBRANCH   1  12
BRANCH   1  29
ATOM     29  C   UNL     1      -1.794   2.190   1.460  0.00  0.00    +0.065 C 
BRANCH  29  33
ATOM     30  C   UNL     1      -2.657  -1.688   3.028  0.00  0.00    +0.000 A 
ATOM     31  C   UNL     1      -1.392  -1.150   3.172  0.00  0.00    +0.000 A 
ATOM     32  C   UNL     1      -1.113   0.105   2.665  0.00  0.00    +0.004 A 
ATOM     33  C   UNL     1      -2.099   0.822   2.013  0.00  0.00    -0.045 A 
ATOM     34  C   UNL     1      -3.365   0.286   1.873  0.00  0.00    +0.004 A 
ATOM     35  C   UNL     1      -3.643  -0.972   2.376  0.00  0.00    +0.000 A 
ENDBRANCH  29  33
ENDBRANCH   1  29
TORSDOF 8
