REMARK  Name = ZINC11662260
REMARK  9 active torsions:
REMARK  status: ('A' for Active; 'I' for Inactive)
REMARK    1  A    between atoms: C_1  and  C_2
REMARK    2  A    between atoms: C_2  and  C_3
REMARK    3  A    between atoms: C_2  and  C_4
REMARK    4  A    between atoms: C_2  and  C_5
REMARK    5  A    between atoms: C_5  and  N_6
REMARK    6  A    between atoms: C_10  and  C_13
REMARK    7  A    between atoms: C_10  and  O_21
REMARK    8  A    between atoms: C_13  and  N_55
REMARK    9  A    between atoms: C_14  and  N_55
REMARK                            x       y       z     vdW  Elec       q    Type
REMARK                         _______ _______ _______ _____ _____    ______ ____
ROOT
ATOM      1  N   UNL     1       0.711  -0.489   1.189  0.00  0.00    -0.299 N 
ATOM      2  C   UNL     1      -0.068  -0.734   2.397  0.00  0.00    +0.108 C 
ATOM      3  C   UNL     1       0.845  -0.770   3.623  0.00  0.00    +0.022 C 
ATOM      4  C   UNL     1       2.005  -1.732   3.345  0.00  0.00    +0.044 C 
ATOM      5  C   UNL     1       2.883  -1.126   2.247  0.00  0.00    +0.127 C 
ATOM      6  C   UNL     1       2.026  -0.684   1.095  0.00  0.00    +0.245 C 
ATOM      7  O   UNL     1       2.561  -0.490   0.024  0.00  0.00    -0.273 OA
ENDROOT
BRANCH   5   8
ATOM      8  O   UNL     1       3.593  -0.003   2.773  0.00  0.00    -0.381 OA
ATOM      9  H   UNL     1       4.171   0.432   2.131  0.00  0.00    +0.211 HD
ENDBRANCH   5   8
BRANCH   1  10
ATOM     10  C   UNL     1       0.002  -0.004   0.002  0.00  0.00    +0.114 C 
BRANCH  10  12
ATOM     11  C   UNL     1       1.417   2.055  -0.000  0.00  0.00    +0.012 C 
ATOM     12  C   UNL     1      -0.019   1.526   0.010  0.00  0.00    -0.022 C 
ATOM     13  C   UNL     1      -0.759   2.033  -1.229  0.00  0.00    +0.012 C 
ATOM     14  C   UNL     1      -0.735   2.019   1.269  0.00  0.00    +0.012 C 
ENDBRANCH  10  12
ENDBRANCH   1  10
BRANCH   5  15
ATOM     15  C   UNL     1       3.883  -2.176   1.758  0.00  0.00    -0.037 C 
BRANCH  15  16
ATOM     16  N   UNL     1       4.726  -1.586   0.701  0.00  0.00    +0.383 N 
ATOM     17  H   UNL     1       5.229  -0.776   1.082  0.00  0.00    -0.085 HD
ATOM     18  H   UNL     1       4.129  -1.284  -0.078  0.00  0.00    -0.085 HD
BRANCH  16  19
ATOM     19  C   UNL     1       5.701  -2.578   0.210  0.00  0.00    -0.072 C 
ATOM     20  C   UNL     1       6.925  -2.583   1.149  0.00  0.00    -0.016 C 
ATOM     21  C   UNL     1       7.658  -3.886   0.971  0.00  0.00    -0.002 C 
ATOM     22  C   UNL     1       8.805  -3.779  -0.053  0.00  0.00    -0.000 C 
ATOM     23  C   UNL     1       8.421  -2.955  -1.297  0.00  0.00    -0.000 C 
ATOM     24  C   UNL     1       7.030  -3.262  -1.783  0.00  0.00    -0.002 C 
ATOM     25  C   UNL     1       6.057  -2.241  -1.160  0.00  0.00    -0.016 C 
ENDBRANCH  16  19
ENDBRANCH  15  16
ENDBRANCH   5  15
TORSDOF 6
