REMARK  Name = ZINC03500079
REMARK  8 active torsions:
REMARK  status: ('A' for Active; 'I' for Inactive)
REMARK    1  A    between atoms: C_1  and  C_2
REMARK    2  A    between atoms: C_5  and  C_8
REMARK    3  A    between atoms: C_11  and  S_14
REMARK    4  A    between atoms: N_12  and  N_13
REMARK    5  A    between atoms: S_14  and  C_15
REMARK    6  A    between atoms: C_15  and  C_17
REMARK    7  A    between atoms: C_15  and  C_18
REMARK    8  A    between atoms: N_20  and  C_21
REMARK                            x       y       z     vdW  Elec       q    Type
REMARK                         _______ _______ _______ _____ _____    ______ ____
ROOT
ATOM      1  C   UNL     1       3.567   0.189  -3.077  0.00  0.00    +0.182 A 
ATOM      2  N   UNL     1       2.369  -0.334  -3.187  0.00  0.00    -0.127 NA
ATOM      3  N   UNL     1       1.619   0.081  -2.229  0.00  0.00    -0.121 NA
ATOM      4  C   UNL     1       2.294   0.895  -1.449  0.00  0.00    +0.209 A 
ATOM      5  N   UNL     1       3.555   0.997  -1.964  0.00  0.00    -0.224 N 
ENDROOT
BRANCH   1  10
ATOM      6  C   UNL     1       8.027  -0.707  -6.601  0.00  0.00    +0.044 C 
ATOM      7  C   UNL     1       6.860  -0.473  -5.678  0.00  0.00    -0.050 A 
ATOM      8  C   UNL     1       5.584  -0.833  -6.076  0.00  0.00    +0.004 A 
ATOM      9  C   UNL     1       4.511  -0.621  -5.236  0.00  0.00    +0.012 A 
ATOM     10  C   UNL     1       4.713  -0.042  -3.982  0.00  0.00    +0.021 A 
ATOM     11  C   UNL     1       6.002   0.325  -3.589  0.00  0.00    +0.012 A 
ATOM     12  C   UNL     1       7.067   0.102  -4.437  0.00  0.00    +0.004 A 
ENDBRANCH   1  10
BRANCH   5  13
ATOM     13  N   UNL     1       4.588   1.744  -1.474  0.00  0.00    -0.295 N 
ATOM     14  H   UNL     1       5.137   1.213  -0.815  0.00  0.00    +0.163 HD
ATOM     15  H   UNL     1       5.165   2.098  -2.222  0.00  0.00    +0.163 HD
ENDBRANCH   5  13
BRANCH   4  16
ATOM     16  S   UNL     1       1.683   1.710  -0.010  0.00  0.00    -0.072 S 
BRANCH  16  17
ATOM     17  C   UNL     1      -0.017   1.089   0.004  0.00  0.00    +0.137 C 
ATOM     18  C   UNL     1      -0.759   1.606  -1.230  0.00  0.00    +0.029 C 
BRANCH  17  19
ATOM     19  C   UNL     1      -0.717   1.571   1.249  0.00  0.00    +0.230 C 
ATOM     20  O   UNL     1      -0.341   2.582   1.804  0.00  0.00    -0.274 OA
ATOM     21  N   UNL     1      -1.761   0.878   1.746  0.00  0.00    -0.285 N 
ATOM     22  H   UNL     1      -2.104   0.108   1.266  0.00  0.00    +0.155 HD
BRANCH  21  23
ATOM     23  C   UNL     1      -2.349   1.270   2.954  0.00  0.00    +0.034 A 
ATOM     24  C   UNL     1      -2.852   0.312   3.825  0.00  0.00    +0.025 A 
ATOM     25  C   UNL     1      -3.427   0.702   5.019  0.00  0.00    +0.022 A 
ATOM     26  C   UNL     1      -3.514   2.044   5.342  0.00  0.00    +0.041 A 
ATOM     27  C   UNL     1      -3.019   3.001   4.472  0.00  0.00    +0.022 A 
ATOM     28  C   UNL     1      -2.437   2.617   3.280  0.00  0.00    +0.025 A 
ATOM     29 CL   UNL     1      -4.244   2.530   6.840  0.00  0.00    -0.084 Cl
ENDBRANCH  21  23
ENDBRANCH  17  19
ENDBRANCH  16  17
ENDBRANCH   4  16
TORSDOF 6
