REMARK  Name = ZINC39456389
REMARK  9 active torsions:
REMARK  status: ('A' for Active; 'I' for Inactive)
REMARK    1  A    between atoms: C_1  and  C_2
REMARK    2  A    between atoms: C_2  and  O_3
REMARK    3  A    between atoms: O_3  and  N_4
REMARK    4  A    between atoms: C_13  and  C_19
REMARK    5  A    between atoms: C_24  and  O_25
REMARK    6  A    between atoms: C_27  and  S_32
REMARK    7  A    between atoms: S_32  and  C_35
REMARK    8  A    between atoms: C_35  and  C_36
REMARK    9  A    between atoms: C_35  and  C_37
REMARK                            x       y       z     vdW  Elec       q    Type
REMARK                         _______ _______ _______ _____ _____    ______ ____
ROOT
ATOM      1  N   UNL     1      -1.581  -1.303  -0.532  0.00  0.00    -0.138 N 
ATOM      2  C   UNL     1      -1.575  -2.171  -1.619  0.00  0.00    +0.150 A 
ATOM      3  C   UNL     1      -1.694  -3.535  -1.441  0.00  0.00    +0.086 A 
ATOM      4  C   UNL     1      -1.837  -4.086  -0.084  0.00  0.00    +0.100 A 
ATOM      5  C   UNL     1      -1.841  -3.177   1.008  0.00  0.00    +0.070 A 
ATOM      6  C   UNL     1      -1.701  -1.739   0.734  0.00  0.00    +0.293 A 
ATOM      7  O   UNL     1      -1.698  -0.943   1.654  0.00  0.00    -0.264 OA
ATOM      8  C   UNL     1      -1.971  -3.658   2.303  0.00  0.00    +0.026 A 
ATOM      9  C   UNL     1      -2.095  -5.043   2.478  0.00  0.00    +0.009 A 
ATOM     10  C   UNL     1      -2.229  -5.605   3.771  0.00  0.00    -0.005 A 
ATOM     11  C   UNL     1      -2.349  -6.978   3.903  0.00  0.00    +0.009 A 
ATOM     12  C   UNL     1      -2.340  -7.800   2.781  0.00  0.00    +0.003 A 
ATOM     13  C   UNL     1      -2.211  -7.285   1.528  0.00  0.00    +0.028 A 
ATOM     14  C   UNL     1      -2.085  -5.894   1.342  0.00  0.00    +0.072 A 
ATOM     15  N   UNL     1      -1.957  -5.385   0.115  0.00  0.00    -0.245 NA
ATOM     16  N   UNL     1      -1.672  -4.377  -2.536  0.00  0.00    -0.319 N 
ATOM     17  C   UNL     1      -0.962  -3.932  -3.745  0.00  0.00    +0.222 C 
ATOM     18  C   UNL     1      -1.491  -2.545  -4.128  0.00  0.00    +0.127 C 
ATOM     19  C   UNL     1      -1.441  -1.641  -2.924  0.00  0.00    +0.188 C 
ATOM     20  O   UNL     1      -1.285  -0.446  -3.075  0.00  0.00    -0.290 OA
ATOM     21  H   UNL     1      -2.114  -5.240  -2.508  0.00  0.00    +0.148 HD
ENDROOT
BRANCH  10  22
ATOM     22  C   UNL     1      -2.240  -4.735   4.968  0.00  0.00    +0.024 A 
ATOM     23  C   UNL     1      -1.210  -4.817   5.904  0.00  0.00    +0.012 A 
ATOM     24  C   UNL     1      -1.225  -4.003   7.017  0.00  0.00    +0.001 A 
ATOM     25  C   UNL     1      -2.260  -3.104   7.210  0.00  0.00    +0.004 A 
ATOM     26  C   UNL     1      -3.287  -3.014   6.290  0.00  0.00    +0.046 A 
ATOM     27  C   UNL     1      -3.283  -3.821   5.163  0.00  0.00    +0.125 A 
BRANCH  27  28
ATOM     28  O   UNL     1      -4.288  -3.730   4.255  0.00  0.00    -0.506 OA
ATOM     29  H   UNL     1      -5.035  -4.318   4.435  0.00  0.00    +0.292 HD
ENDBRANCH  27  28
ENDBRANCH  10  22
BRANCH  17  30
ATOM     30  S   UNL     1       0.818  -3.837  -3.409  0.00  0.00    -0.010 S 
ATOM     31  O   UNL     1       1.474  -3.386  -4.586  0.00  0.00    -0.172 OA
ATOM     32  O   UNL     1       1.009  -3.124  -2.195  0.00  0.00    -0.172 OA
BRANCH  30  33
ATOM     33  C   UNL     1       1.266  -5.573  -3.131  0.00  0.00    +0.126 C 
ATOM     34  C   UNL     1       0.986  -6.381  -4.399  0.00  0.00    +0.031 C 
ATOM     35  C   UNL     1       2.753  -5.667  -2.784  0.00  0.00    +0.031 C 
ENDBRANCH  30  33
ENDBRANCH  17  30
BRANCH   1  36
ATOM     36  O   UNL     1      -1.450   0.087  -0.767  0.00  0.00    -0.408 OA
BRANCH  36  38
ATOM     37  C   UNL     1      -0.078   2.058  -1.037  0.00  0.00    +0.051 C 
ATOM     38  C   UNL     1      -0.099   0.550  -0.777  0.00  0.00    +0.257 C 
ENDBRANCH  36  38
ENDBRANCH   1  36
TORSDOF 6
