REMARK  Name = ZINC03308985
REMARK  5 active torsions:
REMARK  status: ('A' for Active; 'I' for Inactive)
REMARK    1  A    between atoms: C_3  and  C_21
REMARK    2  A    between atoms: C_5  and  C_11
REMARK    3  A    between atoms: C_14  and  O_17
REMARK    4  A    between atoms: O_17  and  C_18
REMARK    5  A    between atoms: N_23  and  C_24
REMARK                            x       y       z     vdW  Elec       q    Type
REMARK                         _______ _______ _______ _____ _____    ______ ____
ROOT
ATOM      1  C   UNL     1      -1.311   4.252  -0.996  0.00  0.00    +0.029 C 
ATOM      2  C   UNL     1      -1.363   2.959  -1.253  0.00  0.00    +0.019 C 
ATOM      3  C   UNL     1      -1.326   1.929  -0.142  0.00  0.00    +0.143 C 
ATOM      4  C   UNL     1      -2.465   0.933  -0.395  0.00  0.00    +0.122 C 
ATOM      5  N   UNL     1      -2.414   0.476  -1.783  0.00  0.00    -0.291 N 
ATOM      6  C   UNL     1      -1.963   1.251  -2.779  0.00  0.00    +0.304 C 
ATOM      7  O   UNL     1      -2.015   0.830  -3.918  0.00  0.00    -0.253 OA
ATOM      8  N   UNL     1      -1.456   2.479  -2.565  0.00  0.00    -0.273 N 
ATOM      9  H   UNL     1      -2.717  -0.421  -1.990  0.00  0.00    +0.151 HD
ATOM     10  H   UNL     1      -1.157   3.024  -3.310  0.00  0.00    +0.156 HD
ENDROOT
BRANCH   4  11
ATOM     11  C   UNL     1      -3.788   1.607  -0.137  0.00  0.00    -0.026 A 
ATOM     12  C   UNL     1      -4.339   2.437  -1.096  0.00  0.00    +0.009 A 
ATOM     13  C   UNL     1      -5.554   3.051  -0.864  0.00  0.00    +0.046 A 
ATOM     14  C   UNL     1      -6.216   2.844   0.337  0.00  0.00    +0.127 A 
ATOM     15  C   UNL     1      -5.659   2.016   1.300  0.00  0.00    +0.046 A 
ATOM     16  C   UNL     1      -4.446   1.399   1.061  0.00  0.00    +0.009 A 
BRANCH  14  17
ATOM     17  O   UNL     1      -7.410   3.451   0.570  0.00  0.00    -0.434 OA
BRANCH  17  18
ATOM     18  C   UNL     1      -7.923   4.291  -0.467  0.00  0.00    +0.541 C 
ATOM     19  F   UNL     1      -7.018   5.326  -0.720  0.00  0.00    -0.166 F 
ATOM     20  F   UNL     1      -8.106   3.536  -1.630  0.00  0.00    -0.166 F 
ENDBRANCH  17  18
ENDBRANCH  14  17
ENDBRANCH   4  11
BRANCH   3  21
ATOM     21  C   UNL     1      -0.003   1.208  -0.157  0.00  0.00    +0.228 C 
ATOM     22  O   UNL     1       0.031   0.006  -0.318  0.00  0.00    -0.275 OA
ATOM     23  N   UNL     1       1.143   1.898   0.001  0.00  0.00    -0.285 N 
ATOM     24  H   UNL     1       1.123   2.867   0.053  0.00  0.00    +0.155 HD
BRANCH  23  25
ATOM     25  C   UNL     1       2.363   1.219   0.092  0.00  0.00    +0.033 A 
ATOM     26  C   UNL     1       2.421  -0.031   0.696  0.00  0.00    +0.023 A 
ATOM     27  C   UNL     1       3.625  -0.701   0.778  0.00  0.00    +0.002 A 
ATOM     28  C   UNL     1       4.775  -0.126   0.270  0.00  0.00    +0.000 A 
ATOM     29  C   UNL     1       4.722   1.121  -0.327  0.00  0.00    +0.002 A 
ATOM     30  C   UNL     1       3.520   1.794  -0.417  0.00  0.00    +0.023 A 
ENDBRANCH  23  25
ENDBRANCH   3  21
TORSDOF 5
