REMARK  Name = ZINC65319245
REMARK  8 active torsions:
REMARK  status: ('A' for Active; 'I' for Inactive)
REMARK    1  A    between atoms: C_1  and  C_2
REMARK    2  A    between atoms: C_2  and  C_4
REMARK    3  A    between atoms: C_2  and  C_29
REMARK    4  A    between atoms: C_4  and  N_5
REMARK    5  A    between atoms: C_6  and  C_8
REMARK    6  A    between atoms: C_10  and  C_13
REMARK    7  A    between atoms: C_16  and  S_19
REMARK    8  A    between atoms: S_19  and  N_22
REMARK                            x       y       z     vdW  Elec       q    Type
REMARK                         _______ _______ _______ _____ _____    ______ ____
ROOT
ATOM      1  C   UNL     1       4.420  -0.029   2.091  0.00  0.00    +0.314 A 
ATOM      2  N   UNL     1       5.341  -0.298   2.982  0.00  0.00    -0.183 NA
ATOM      3  C   UNL     1       6.515   0.227   2.600  0.00  0.00    +0.203 A 
ATOM      4  N   UNL     1       6.351   0.840   1.453  0.00  0.00    -0.055 NA
ATOM      5  O   UNL     1       4.986   0.679   1.099  0.00  0.00    -0.328 OA
ENDROOT
BRANCH   3   6
ATOM      6  C   UNL     1       7.790   0.130   3.354  0.00  0.00    +0.023 A 
ATOM      7  C   UNL     1       7.836  -0.557   4.565  0.00  0.00    +0.013 A 
ATOM      8  C   UNL     1       9.024  -0.645   5.262  0.00  0.00    +0.029 A 
ATOM      9  C   UNL     1      10.169  -0.052   4.759  0.00  0.00    +0.106 A 
ATOM     10  C   UNL     1      10.129   0.631   3.557  0.00  0.00    +0.029 A 
ATOM     11  C   UNL     1       8.947   0.720   2.850  0.00  0.00    +0.013 A 
BRANCH   9  12
ATOM     12  S   UNL     1      11.683  -0.168   5.653  0.00  0.00    +0.061 S 
ATOM     13  O   UNL     1      12.482   0.932   5.242  0.00  0.00    -0.153 OA
ATOM     14  O   UNL     1      11.335  -0.392   7.013  0.00  0.00    -0.153 OA
BRANCH  12  15
ATOM     15  N   UNL     1      12.456  -1.536   5.131  0.00  0.00    -0.177 NA
ATOM     16  C   UNL     1      12.191  -2.784   5.811  0.00  0.00    +0.109 C 
ATOM     17  C   UNL     1      13.182  -2.955   6.988  0.00  0.00    +0.017 C 
ATOM     18  C   UNL     1      14.535  -3.233   6.481  0.00  0.00    +0.001 C 
ATOM     19  C   UNL     1      15.135  -2.109   5.643  0.00  0.00    +0.001 C 
ATOM     20  C   UNL     1      14.672  -2.249   4.214  0.00  0.00    +0.017 C 
ATOM     21  C   UNL     1      13.383  -1.432   3.987  0.00  0.00    +0.109 C 
ENDBRANCH  12  15
ENDBRANCH   9  12
ENDBRANCH   3   6
BRANCH   1  23
ATOM     22  N   UNL     1       2.148  -0.104   1.172  0.00  0.00    -0.307 N 
ATOM     23  C   UNL     1       2.997  -0.441   2.162  0.00  0.00    +0.302 C 
ATOM     24  O   UNL     1       2.597  -1.083   3.113  0.00  0.00    -0.265 OA
ATOM     25  H   UNL     1       2.467   0.409   0.412  0.00  0.00    +0.149 HD
BRANCH  22  26
ATOM     26  C   UNL     1       0.742  -0.511   1.242  0.00  0.00    +0.112 C 
BRANCH  26  28
ATOM     27  C   UNL     1      -0.019   1.526   0.010  0.00  0.00    +0.014 C 
ATOM     28  C   UNL     1       0.002  -0.004   0.002  0.00  0.00    +0.033 C 
BRANCH  28  29
ATOM     29  C   UNL     1      -1.412  -0.526   0.013  0.00  0.00    -0.043 A 
ATOM     30  C   UNL     1      -2.259  -0.204   1.056  0.00  0.00    +0.004 A 
ATOM     31  C   UNL     1      -3.556  -0.683   1.066  0.00  0.00    +0.000 A 
ATOM     32  C   UNL     1      -4.006  -1.482   0.032  0.00  0.00    +0.000 A 
ATOM     33  C   UNL     1      -3.159  -1.803  -1.012  0.00  0.00    +0.000 A 
ATOM     34  C   UNL     1      -1.863  -1.321  -1.024  0.00  0.00    +0.004 A 
ENDBRANCH  28  29
ENDBRANCH  26  28
ENDBRANCH  22  26
ENDBRANCH   1  23
TORSDOF 7
