REMARK  Name = ZINC10748257
REMARK  6 active torsions:
REMARK  status: ('A' for Active; 'I' for Inactive)
REMARK    1  A    between atoms: C_1  and  C_2
REMARK    2  A    between atoms: C_4  and  N_14
REMARK    3  A    between atoms: C_7  and  N_8
REMARK    4  A    between atoms: N_14  and  C_15
REMARK    5  A    between atoms: C_15  and  C_17
REMARK    6  A    between atoms: C_15  and  C_18
REMARK                            x       y       z     vdW  Elec       q    Type
REMARK                         _______ _______ _______ _____ _____    ______ ____
ROOT
ATOM      1  C   UNL     1      -3.380   2.947   1.808  0.00  0.00    +0.154 C 
ATOM      2  C   UNL     1      -3.084   1.587   2.442  0.00  0.00    +0.038 C 
ENDROOT
BRANCH   1   3
ATOM      3  C   UNL     1      -2.086   3.684   1.574  0.00  0.00    +0.240 C 
ATOM      4  O   UNL     1      -1.682   4.476   2.399  0.00  0.00    -0.273 OA
ATOM      5  N   UNL     1      -1.379   3.463   0.448  0.00  0.00    -0.259 N 
ATOM      6  C   UNL     1      -1.786   2.427  -0.517  0.00  0.00    +0.209 C 
ATOM      7  C   UNL     1      -0.558   1.689  -0.987  0.00  0.00    +0.235 C 
ATOM      8  O   UNL     1      -0.651   0.529  -1.328  0.00  0.00    -0.274 OA
ATOM      9  N   UNL     1       0.638   2.304  -1.038  0.00  0.00    -0.283 N 
ATOM     10  C   UNL     1       0.782   3.627  -0.604  0.00  0.00    +0.055 A 
ATOM     11  C   UNL     1      -0.231   4.216   0.154  0.00  0.00    +0.058 A 
ATOM     12  C   UNL     1      -0.101   5.521   0.596  0.00  0.00    +0.025 A 
ATOM     13  C   UNL     1       1.038   6.241   0.279  0.00  0.00    +0.002 A 
ATOM     14  C   UNL     1       2.041   5.661  -0.475  0.00  0.00    +0.002 A 
ATOM     15  C   UNL     1       1.917   4.356  -0.918  0.00  0.00    +0.025 A 
ATOM     16  H   UNL     1       1.409   1.825  -1.380  0.00  0.00    +0.155 HD
ENDBRANCH   1   3
BRANCH   1  17
ATOM     17  N   UNL     1      -4.232   3.730   2.707  0.00  0.00    -0.333 N 
ATOM     18  H   UNL     1      -3.833   4.364   3.323  0.00  0.00    +0.147 HD
BRANCH  17  22
ATOM     19  C   UNL     1      -8.676   4.944   4.421  0.00  0.00    +0.046 C 
ATOM     20  C   UNL     1      -7.799   4.140   3.496  0.00  0.00    -0.027 A 
ATOM     21  C   UNL     1      -6.428   4.301   3.530  0.00  0.00    +0.028 A 
ATOM     22  C   UNL     1      -5.621   3.563   2.675  0.00  0.00    +0.028 A 
ATOM     23  C   UNL     1      -6.191   2.656   1.791  0.00  0.00    +0.025 A 
ATOM     24  C   UNL     1      -7.562   2.492   1.760  0.00  0.00    +0.025 A 
ATOM     25  C   UNL     1      -8.370   3.233   2.613  0.00  0.00    +0.039 A 
BRANCH  25  26
ATOM     26  N   UNL     1      -9.761   3.066   2.581  0.00  0.00    -0.271 N 
ATOM     27  C   UNL     1     -10.669   3.842   1.729  0.00  0.00    +0.114 C 
ATOM     28  C   UNL     1     -11.990   3.038   1.699  0.00  0.00    +0.029 C 
ATOM     29  C   UNL     1     -11.916   2.264   3.035  0.00  0.00    +0.098 C 
ATOM     30  C   UNL     1     -10.435   2.178   3.333  0.00  0.00    +0.220 C 
ATOM     31  O   UNL     1      -9.930   1.419   4.132  0.00  0.00    -0.275 OA
ENDBRANCH  25  26
ENDBRANCH  17  22
ENDBRANCH   1  17
TORSDOF 4
