REMARK  Name = ZINC16042529
REMARK  7 active torsions:
REMARK  status: ('A' for Active; 'I' for Inactive)
REMARK    1  A    between atoms: C_1  and  C_2
REMARK    2  A    between atoms: C_2  and  C_3
REMARK    3  A    between atoms: C_2  and  C_4
REMARK    4  A    between atoms: C_2  and  O_5
REMARK    5  A    between atoms: O_5  and  C_6
REMARK    6  A    between atoms: N_8  and  N_9
REMARK    7  A    between atoms: C_29  and  C_31
REMARK                            x       y       z     vdW  Elec       q    Type
REMARK                         _______ _______ _______ _____ _____    ______ ____
ROOT
ATOM      1  N   UNL     1      -5.416  -2.983   0.544  0.00  0.00    -0.207 N 
ATOM      2  C   UNL     1      -4.772  -4.033   1.317  0.00  0.00    +0.226 C 
ATOM      3  C   UNL     1      -3.303  -4.102   1.054  0.00  0.00    +0.236 C 
ATOM      4  O   UNL     1      -2.665  -4.956   1.632  0.00  0.00    -0.274 OA
ATOM      5  N   UNL     1      -2.645  -3.286   0.228  0.00  0.00    -0.276 N 
ATOM      6  C   UNL     1      -3.282  -2.167  -0.465  0.00  0.00    +0.169 C 
ATOM      7  C   UNL     1      -4.761  -2.144  -0.256  0.00  0.00    +0.253 C 
ATOM      8  O   UNL     1      -5.407  -1.309  -0.853  0.00  0.00    -0.272 OA
ATOM      9  C   UNL     1      -2.669  -0.851   0.035  0.00  0.00    +0.069 C 
ATOM     10  C   UNL     1      -1.169  -0.997   0.072  0.00  0.00    -0.015 A 
ATOM     11  C   UNL     1      -0.166   0.046   0.134  0.00  0.00    +0.003 A 
ATOM     12  C   UNL     1      -0.251   1.441   0.174  0.00  0.00    +0.010 A 
ATOM     13  C   UNL     1       0.933   2.134   0.231  0.00  0.00    +0.001 A 
ATOM     14  C   UNL     1       2.161   1.492   0.247  0.00  0.00    +0.002 A 
ATOM     15  C   UNL     1       2.274   0.113   0.209  0.00  0.00    +0.026 A 
ATOM     16  C   UNL     1       1.088  -0.616   0.152  0.00  0.00    +0.047 A 
ATOM     17  N   UNL     1       0.839  -1.958   0.105  0.00  0.00    -0.356 N 
ATOM     18  H   UNL     1       1.517  -2.651   0.106  0.00  0.00    +0.166 HD
ATOM     19  C   UNL     1      -0.512  -2.177   0.055  0.00  0.00    +0.046 A 
ATOM     20  C   UNL     1      -1.205  -3.518  -0.014  0.00  0.00    +0.154 C 
ENDROOT
BRANCH  20  21
ATOM     21  C   UNL     1      -0.650  -4.437   1.044  0.00  0.00    -0.021 A 
ATOM     22  C   UNL     1      -0.221  -5.706   0.701  0.00  0.00    +0.006 A 
ATOM     23  C   UNL     1       0.293  -6.547   1.671  0.00  0.00    +0.000 A 
ATOM     24  C   UNL     1       0.368  -6.123   2.984  0.00  0.00    +0.000 A 
ATOM     25  C   UNL     1      -0.066  -4.856   3.328  0.00  0.00    +0.000 A 
ATOM     26  C   UNL     1      -0.575  -4.013   2.357  0.00  0.00    +0.006 A 
ENDBRANCH  20  21
BRANCH   1  29
ATOM     27  C   UNL     1      -7.350  -2.297   1.752  0.00  0.00    +0.417 C 
ATOM     28  O   UNL     1      -8.556  -2.178   1.842  0.00  0.00    -0.225 OA
ATOM     29  N   UNL     1      -6.807  -2.847   0.648  0.00  0.00    -0.197 N 
ATOM     30  H   UNL     1      -7.379  -3.148  -0.075  0.00  0.00    +0.176 HD
BRANCH  27  31
ATOM     31  O   UNL     1      -6.556  -1.879   2.756  0.00  0.00    -0.444 OA
BRANCH  31  33
ATOM     32  C   UNL     1      -8.153  -2.326   4.539  0.00  0.00    +0.055 C 
ATOM     33  C   UNL     1      -7.209  -1.296   3.914  0.00  0.00    +0.107 C 
ATOM     34  C   UNL     1      -6.153  -0.883   4.942  0.00  0.00    +0.055 C 
ATOM     35  C   UNL     1      -8.009  -0.066   3.483  0.00  0.00    +0.055 C 
ENDBRANCH  31  33
ENDBRANCH  27  31
ENDBRANCH   1  29
TORSDOF 4
