REMARK  Name = ZINC63625970
REMARK  6 active torsions:
REMARK  status: ('A' for Active; 'I' for Inactive)
REMARK    1  A    between atoms: C_1  and  C_2
REMARK    2  A    between atoms: C_9  and  N_12
REMARK    3  A    between atoms: C_13  and  C_15
REMARK    4  A    between atoms: C_15  and  S_16
REMARK    5  A    between atoms: S_16  and  C_17
REMARK    6  A    between atoms: C_23  and  N_27
REMARK                            x       y       z     vdW  Elec       q    Type
REMARK                         _______ _______ _______ _____ _____    ______ ____
ROOT
ATOM      1  C   UNL     1       2.668  -7.165   2.945  0.00  0.00    +0.168 C 
ENDROOT
BRANCH   1   3
ATOM      2  N   UNL     1       1.291  -5.596   1.619  0.00  0.00    -0.288 N 
ATOM      3  C   UNL     1       1.415  -6.358   2.724  0.00  0.00    +0.225 C 
ATOM      4  O   UNL     1       0.518  -6.394   3.539  0.00  0.00    -0.275 OA
ATOM      5  H   UNL     1       2.008  -5.567   0.967  0.00  0.00    +0.151 HD
BRANCH   2  14
ATOM      6  C   UNL     1      -0.018   1.503   0.010  0.00  0.00    +0.044 C 
ATOM      7  C   UNL     1       0.002  -0.004   0.002  0.00  0.00    -0.049 A 
ATOM      8  C   UNL     1       0.006  -0.700  -1.193  0.00  0.00    +0.005 A 
ATOM      9  C   UNL     1       0.025  -2.075  -1.215  0.00  0.00    +0.024 A 
ATOM     10  C   UNL     1       0.040  -2.822  -0.023  0.00  0.00    +0.043 A 
ATOM     11  C   UNL     1       0.035  -2.090   1.168  0.00  0.00    +0.032 A 
ATOM     12  C   UNL     1       0.023  -0.714   1.191  0.00  0.00    +0.020 A 
ATOM     13  S   UNL     1       0.057  -3.310   2.462  0.00  0.00    -0.082 S 
ATOM     14  C   UNL     1       0.072  -4.811   1.404  0.00  0.00    +0.224 C 
ATOM     15  N   UNL     1       0.059  -4.213   0.062  0.00  0.00    -0.316 N 
ATOM     16  H   UNL     1       0.062  -4.766  -0.735  0.00  0.00    +0.149 HD
ENDBRANCH   2  14
ENDBRANCH   1   3
BRANCH   1  17
ATOM     17  S   UNL     1       2.531  -8.077   4.508  0.00  0.00    -0.106 S 
BRANCH  17  18
ATOM     18  C   UNL     1       4.098  -8.985   4.624  0.00  0.00    +0.236 C 
ATOM     19  N   UNL     1       4.269  -9.848   3.449  0.00  0.00    -0.355 N 
ATOM     20  C   UNL     1       5.351  -9.464   2.837  0.00  0.00    +0.061 A 
ATOM     21  C   UNL     1       6.032  -9.934   1.622  0.00  0.00    +0.029 A 
ATOM     22  C   UNL     1       7.166  -9.328   1.219  0.00  0.00    +0.035 A 
ATOM     23  C   UNL     1       7.739  -8.250   1.917  0.00  0.00    +0.128 A 
ATOM     24  C   UNL     1       7.197  -7.742   3.042  0.00  0.00    +0.060 A 
ATOM     25  C   UNL     1       5.958  -8.323   3.575  0.00  0.00    +0.063 A 
ATOM     26  N   UNL     1       5.226  -8.045   4.617  0.00  0.00    -0.355 N 
ATOM     27  H   UNL     1       5.395  -7.346   5.268  0.00  0.00    +0.162 HD
ATOM     28  H   UNL     1       3.682 -10.572   3.179  0.00  0.00    +0.162 HD
BRANCH  23  29
ATOM     29  N   UNL     1       8.988  -7.649   1.396  0.00  0.00    +0.056 N 
ATOM     30  O   UNL     1       9.495  -8.086   0.389  0.00  0.00    -0.126 OA
ATOM     31  O   UNL     1       9.500  -6.721   1.977  0.00  0.00    -0.126 OA
ENDBRANCH  23  29
ENDBRANCH  17  18
ENDBRANCH   1  17
TORSDOF 5
