REMARK  Name = ZINC07790296
REMARK  15 active torsions:
REMARK  status: ('A' for Active; 'I' for Inactive)
REMARK    1  A    between atoms: C_1  and  C_2
REMARK    2  A    between atoms: C_2  and  N_62
REMARK    3  A    between atoms: C_3  and  C_4
REMARK    4  A    between atoms: C_3  and  N_62
REMARK    5  A    between atoms: N_6  and  C_7
REMARK    6  A    between atoms: C_8  and  C_18
REMARK    7  A    between atoms: C_13  and  C_17
REMARK    8  A    between atoms: C_18  and  O_20
REMARK    9  A    between atoms: O_20  and  C_21
REMARK   10  A    between atoms: C_21  and  C_22
REMARK   11  A    between atoms: C_23  and  C_24
REMARK   12  A    between atoms: C_23  and  N_62
REMARK   13  A    between atoms: N_26  and  C_27
REMARK   14  A    between atoms: C_27  and  C_28
REMARK   15  A    between atoms: C_27  and  C_29
REMARK                            x       y       z     vdW  Elec       q    Type
REMARK                         _______ _______ _______ _____ _____    ______ ____
ROOT
ATOM      1  C   UNL     1       0.680   4.835  -3.712  0.00  0.00    +0.201 C 
ATOM      2  O   UNL     1       0.894   6.014  -3.531  0.00  0.00    -0.278 OA
ATOM      3  N   UNL     1       0.289   4.055  -2.684  0.00  0.00    -0.281 N 
ATOM      4  H   UNL     1       0.117   3.112  -2.829  0.00  0.00    +0.155 HD
ENDROOT
BRANCH   3   5
ATOM      5  C   UNL     1       0.132   4.603  -1.421  0.00  0.00    +0.086 A 
ATOM      6  C   UNL     1      -0.259   3.969  -0.248  0.00  0.00    +0.091 A 
ATOM      7  C   UNL     1      -0.352   4.780   0.954  0.00  0.00    -0.021 A 
ATOM      8  C   UNL     1      -0.031   6.082   0.796  0.00  0.00    -0.004 A 
ATOM      9  S   UNL     1       0.376   6.243  -0.920  0.00  0.00    -0.077 S 
ATOM     10  C   UNL     1      -0.030   7.147   1.849  0.00  0.00    +0.046 C 
ATOM     11  C   UNL     1      -0.095   6.470   3.223  0.00  0.00    -0.009 C 
ATOM     12  C   UNL     1      -1.196   5.405   3.203  0.00  0.00    +0.008 C 
ATOM     13  C   UNL     1      -0.773   4.235   2.314  0.00  0.00    +0.037 C 
ATOM     14  C   UNL     1      -0.409   7.513   4.298  0.00  0.00    +0.008 C 
BRANCH   6  15
ATOM     15  C   UNL     1      -0.573   2.539  -0.226  0.00  0.00    +0.342 C 
ATOM     16  O   UNL     1       0.305   1.728   0.003  0.00  0.00    -0.245 OA
BRANCH  15  17
ATOM     17  O   UNL     1      -1.834   2.121  -0.458  0.00  0.00    -0.461 OA
BRANCH  17  18
ATOM     18  C   UNL     1      -2.071   0.689  -0.420  0.00  0.00    +0.229 C 
ATOM     19  C   UNL     1      -3.548   0.409  -0.705  0.00  0.00    +0.048 C 
ENDBRANCH  17  18
ENDBRANCH  15  17
ENDBRANCH   6  15
ENDBRANCH   3   5
BRANCH   1  20
ATOM     20  C   UNL     1       0.850   4.240  -5.086  0.00  0.00    +0.020 C 
BRANCH  20  21
ATOM     21  N   UNL     1       1.261   5.308  -6.021  0.00  0.00    +0.391 N 
ATOM     22  H   UNL     1       0.607   6.095  -5.936  0.00  0.00    -0.080 HD
BRANCH  21  24
ATOM     23  C   UNL     1       3.616   4.615  -5.732  0.00  0.00    -0.017 C 
ATOM     24  C   UNL     1       2.622   5.777  -5.686  0.00  0.00    -0.081 C 
ENDBRANCH  21  24
BRANCH  21  25
ATOM     25  C   UNL     1       1.228   4.805  -7.410  0.00  0.00    +0.019 C 
BRANCH  25  26
ATOM     26  C   UNL     1       1.293   5.979  -8.352  0.00  0.00    +0.197 C 
ATOM     27  O   UNL     1       1.270   7.110  -7.915  0.00  0.00    -0.278 OA
ATOM     28  N   UNL     1       1.377   5.772  -9.682  0.00  0.00    -0.315 N 
ATOM     29  H   UNL     1       1.395   4.868 -10.032  0.00  0.00    +0.149 HD
BRANCH  28  30
ATOM     30  C   UNL     1       1.440   6.914 -10.598  0.00  0.00    +0.067 C 
ATOM     31  C   UNL     1       2.132   6.489 -11.895  0.00  0.00    +0.027 C 
ATOM     32  C   UNL     1       0.023   7.397 -10.910  0.00  0.00    +0.027 C 
ENDBRANCH  28  30
ENDBRANCH  25  26
ENDBRANCH  21  25
ENDBRANCH  20  21
ENDBRANCH   1  20
TORSDOF 10
