REMARK  Name = ZINC35157160
REMARK  9 active torsions:
REMARK  status: ('A' for Active; 'I' for Inactive)
REMARK    1  A    between atoms: C_1  and  C_2
REMARK    2  A    between atoms: C_4  and  C_25
REMARK    3  A    between atoms: C_9  and  C_16
REMARK    4  A    between atoms: C_10  and  N_11
REMARK    5  A    between atoms: N_11  and  C_12
REMARK    6  A    between atoms: C_12  and  C_13
REMARK    7  A    between atoms: C_12  and  C_14
REMARK    8  A    between atoms: C_12  and  C_15
REMARK    9  A    between atoms: C_21  and  N_22
REMARK                            x       y       z     vdW  Elec       q    Type
REMARK                         _______ _______ _______ _____ _____    ______ ____
ROOT
ATOM      1  C   UNL     1      -5.479  -1.084  -1.593  0.00  0.00    +0.044 C 
ATOM      2  C   UNL     1      -4.156  -1.493  -0.999  0.00  0.00    -0.045 A 
ATOM      3  C   UNL     1      -4.035  -1.696   0.370  0.00  0.00    +0.025 A 
ATOM      4  C   UNL     1      -2.820  -2.069   0.898  0.00  0.00    +0.024 A 
ATOM      5  N   UNL     1      -1.737  -2.240   0.092  0.00  0.00    -0.285 N 
ATOM      6  C   UNL     1      -1.826  -2.048  -1.259  0.00  0.00    +0.140 A 
ATOM      7  C   UNL     1      -3.042  -1.677  -1.821  0.00  0.00    +0.050 A 
ATOM      8  N   UNL     1      -0.623  -2.278  -1.842  0.00  0.00    -0.226 NA
ATOM      9  C   UNL     1       0.265  -2.616  -0.940  0.00  0.00    +0.114 A 
ATOM     10  C   UNL     1      -0.433  -2.605   0.375  0.00  0.00    +0.132 A 
ATOM     11  C   UNL     1      -2.687  -2.289   2.383  0.00  0.00    +0.064 C 
ENDROOT
BRANCH   9  12
ATOM     12  C   UNL     1       1.682  -2.944  -1.180  0.00  0.00    +0.034 A 
ATOM     13  C   UNL     1       2.025  -4.052  -1.964  0.00  0.00    +0.012 A 
ATOM     14  C   UNL     1       3.352  -4.351  -2.184  0.00  0.00    +0.001 A 
ATOM     15  C   UNL     1       4.346  -3.559  -1.633  0.00  0.00    +0.002 A 
ATOM     16  C   UNL     1       4.015  -2.462  -0.856  0.00  0.00    +0.033 A 
ATOM     17  C   UNL     1       2.692  -2.145  -0.630  0.00  0.00    +0.135 A 
BRANCH  17  18
ATOM     18  N   UNL     1       2.341  -0.968   0.195  0.00  0.00    +0.057 N 
ATOM     19  O   UNL     1       3.291  -0.187   0.667  0.00  0.00    -0.126 OA
ATOM     20  O   UNL     1       1.079  -0.701   0.458  0.00  0.00    -0.126 OA
ENDBRANCH  17  18
ENDBRANCH   9  12
BRANCH  10  21
ATOM     21  N   UNL     1       0.086  -2.886   1.567  0.00  0.00    -0.324 N 
ATOM     22  H   UNL     1       0.147  -2.195   2.244  0.00  0.00    +0.148 HD
BRANCH  21  23
ATOM     23  C   UNL     1       0.566  -4.239   1.856  0.00  0.00    +0.025 C 
ATOM     24  C   UNL     1       2.031  -4.362   1.432  0.00  0.00    +0.031 C 
ATOM     25  C   UNL     1       0.444  -4.514   3.356  0.00  0.00    +0.031 C 
ATOM     26  C   UNL     1      -0.275  -5.256   1.081  0.00  0.00    +0.031 C 
ENDBRANCH  21  23
ENDBRANCH  10  21
TORSDOF 4
