REMARK  Name = ZINC02255802
REMARK  7 active torsions:
REMARK  status: ('A' for Active; 'I' for Inactive)
REMARK    1  A    between atoms: C_1  and  C_2
REMARK    2  A    between atoms: C_2  and  O_3
REMARK    3  A    between atoms: O_3  and  C_4
REMARK    4  A    between atoms: C_7  and  N_10
REMARK    5  A    between atoms: C_11  and  N_33
REMARK    6  A    between atoms: C_12  and  S_23
REMARK    7  A    between atoms: S_23  and  C_26
REMARK                            x       y       z     vdW  Elec       q    Type
REMARK                         _______ _______ _______ _____ _____    ______ ____
ROOT
ATOM      1  N   UNL     1      -0.017   1.370   0.010  0.00  0.00    -0.279 N 
ATOM      2  C   UNL     1       0.002  -0.004   0.002  0.00  0.00    +0.130 A 
ATOM      3  C   UNL     1       1.275  -0.465  -0.013  0.00  0.00    +0.160 A 
ATOM      4  C   UNL     1       2.146   0.651  -0.015  0.00  0.00    +0.136 A 
ATOM      5  C   UNL     1       1.282   1.838  -0.000  0.00  0.00    +0.168 A 
ATOM      6  N   UNL     1       1.821   3.036   0.003  0.00  0.00    -0.225 NA
ATOM      7  C   UNL     1       3.154   3.167  -0.009  0.00  0.00    +0.092 A 
ATOM      8  C   UNL     1       3.740   4.447  -0.008  0.00  0.00    +0.030 A 
ATOM      9  C   UNL     1       5.094   4.572  -0.019  0.00  0.00    +0.002 A 
ATOM     10  C   UNL     1       5.918   3.447  -0.033  0.00  0.00    +0.002 A 
ATOM     11  C   UNL     1       5.389   2.194  -0.035  0.00  0.00    +0.030 A 
ATOM     12  C   UNL     1       3.991   2.024  -0.024  0.00  0.00    +0.090 A 
ATOM     13  N   UNL     1       3.462   0.795  -0.026  0.00  0.00    -0.240 NA
ENDROOT
BRANCH   1  17
ATOM     14  C   UNL     1      -3.446   3.745   0.039  0.00  0.00    +0.121 A 
ATOM     15  C   UNL     1      -2.582   3.762   1.124  0.00  0.00    +0.047 A 
ATOM     16  C   UNL     1      -1.446   2.975   1.115  0.00  0.00    +0.030 A 
ATOM     17  C   UNL     1      -1.170   2.168   0.020  0.00  0.00    +0.050 A 
ATOM     18  C   UNL     1      -2.032   2.156  -1.068  0.00  0.00    +0.030 A 
ATOM     19  C   UNL     1      -3.170   2.939  -1.056  0.00  0.00    +0.047 A 
BRANCH  14  20
ATOM     20  O   UNL     1      -4.564   4.519   0.049  0.00  0.00    -0.492 OA
BRANCH  20  22
ATOM     21  C   UNL     1      -6.606   5.385  -0.909  0.00  0.00    +0.048 C 
ATOM     22  C   UNL     1      -5.409   4.452  -1.102  0.00  0.00    +0.225 C 
ENDBRANCH  20  22
ENDBRANCH  14  20
ENDBRANCH   1  17
BRANCH   3  23
ATOM     23  S   UNL     1       1.762  -2.158  -0.027  0.00  0.00    +0.030 S 
ATOM     24  O   UNL     1       3.077  -2.207   0.511  0.00  0.00    -0.164 OA
ATOM     25  O   UNL     1       0.683  -2.896   0.530  0.00  0.00    -0.164 OA
BRANCH  23  26
ATOM     26  C   UNL     1       1.890  -2.649  -1.714  0.00  0.00    +0.094 A 
ATOM     27  C   UNL     1       0.791  -3.178  -2.365  0.00  0.00    +0.030 A 
ATOM     28  C   UNL     1       0.888  -3.559  -3.689  0.00  0.00    +0.040 A 
ATOM     29  C   UNL     1       2.090  -3.421  -4.362  0.00  0.00    +0.124 A 
ATOM     30  C   UNL     1       3.192  -2.896  -3.708  0.00  0.00    +0.040 A 
ATOM     31  C   UNL     1       3.091  -2.510  -2.385  0.00  0.00    +0.030 A 
ATOM     32  F   UNL     1       2.188  -3.797  -5.656  0.00  0.00    -0.205 F 
ENDBRANCH  23  26
ENDBRANCH   3  23
BRANCH   2  33
ATOM     33  N   UNL     1      -1.125  -0.806   0.009  0.00  0.00    -0.343 N 
ATOM     34  H   UNL     1      -2.007  -0.403   0.019  0.00  0.00    +0.144 HD
ATOM     35  H   UNL     1      -1.033  -1.772   0.003  0.00  0.00    +0.144 HD
ENDBRANCH   2  33
TORSDOF 6
