REMARK  Name = ZINC38152056
REMARK  7 active torsions:
REMARK  status: ('A' for Active; 'I' for Inactive)
REMARK    1  A    between atoms: C_1  and  C_2
REMARK    2  A    between atoms: C_5  and  O_35
REMARK    3  A    between atoms: C_18  and  C_34
REMARK    4  A    between atoms: C_23  and  C_25
REMARK    5  A    between atoms: C_25  and  C_26
REMARK    6  A    between atoms: C_25  and  C_27
REMARK    7  A    between atoms: C_25  and  O_33
REMARK                            x       y       z     vdW  Elec       q    Type
REMARK                         _______ _______ _______ _____ _____    ______ ____
ROOT
ATOM      1  C   UNL     1       1.185  -0.284   1.356  0.00  0.00    +0.012 C 
ATOM      2  C   UNL     1       1.286  -1.780   1.043  0.00  0.00    -0.026 C 
ATOM      3  C   UNL     1      -0.105  -2.412   1.072  0.00  0.00    +0.010 C 
ATOM      4  C   UNL     1      -0.714  -2.284   2.468  0.00  0.00    +0.032 C 
ATOM      5  C   UNL     1       0.192  -2.936   3.512  0.00  0.00    +0.115 C 
ATOM      6  C   UNL     1       1.586  -2.308   3.475  0.00  0.00    +0.035 C 
ATOM      7  C   UNL     1       2.169  -2.484   2.073  0.00  0.00    -0.002 C 
ATOM      8  C   UNL     1       3.611  -1.991   2.007  0.00  0.00    +0.004 C 
ATOM      9  C   UNL     1       4.197  -2.291   0.618  0.00  0.00    +0.004 C 
ATOM     10  C   UNL     1       3.098  -2.906  -0.238  0.00  0.00    -0.004 C 
ATOM     11  C   UNL     1       1.923  -1.931  -0.337  0.00  0.00    -0.001 C 
ATOM     12  C   UNL     1       0.948  -2.402  -1.408  0.00  0.00    +0.005 C 
ATOM     13  C   UNL     1       1.588  -2.282  -2.801  0.00  0.00    +0.007 C 
ATOM     14  C   UNL     1       3.087  -2.400  -2.722  0.00  0.00    -0.023 C 
ATOM     15  C   UNL     1       3.522  -3.361  -1.599  0.00  0.00    -0.001 C 
ATOM     16  C   UNL     1       5.030  -3.492  -1.854  0.00  0.00    +0.005 C 
ATOM     17  C   UNL     1       5.112  -3.572  -3.402  0.00  0.00    +0.007 C 
ATOM     18  C   UNL     1       3.743  -3.086  -3.942  0.00  0.00    +0.031 C 
ATOM     19  C   UNL     1       3.744  -1.023  -2.595  0.00  0.00    +0.012 C 
ENDROOT
BRANCH  18  20
ATOM     20  C   UNL     1       3.943  -2.070  -5.062  0.00  0.00    +0.092 C 
ATOM     21  C   UNL     1       4.311  -2.801  -6.355  0.00  0.00    +0.047 C 
BRANCH  20  22
ATOM     22  C   UNL     1       2.667  -1.294  -5.270  0.00  0.00    -0.013 A 
ATOM     23  C   UNL     1       1.467  -1.950  -5.495  0.00  0.00    +0.024 A 
ATOM     24  C   UNL     1       0.317  -1.205  -5.681  0.00  0.00    +0.083 A 
ATOM     25  N   UNL     1       0.354   0.113  -5.647  0.00  0.00    -0.367 N 
ATOM     26  C   UNL     1       1.478   0.770  -5.435  0.00  0.00    +0.083 A 
ATOM     27  C   UNL     1       2.666   0.092  -5.235  0.00  0.00    +0.024 A 
ATOM     28  H   UNL     1      -0.466   0.612  -5.781  0.00  0.00    +0.165 HD
ENDBRANCH  20  22
BRANCH  20  29
ATOM     29  O   UNL     1       4.995  -1.170  -4.708  0.00  0.00    -0.384 OA
ATOM     30  H   UNL     1       4.691  -0.357  -4.282  0.00  0.00    +0.211 HD
ENDBRANCH  20  29
ENDBRANCH  18  20
BRANCH   5  31
ATOM     31  O   UNL     1      -0.372  -2.754   4.812  0.00  0.00    -0.392 OA
ATOM     32  H   UNL     1      -1.252  -3.141   4.916  0.00  0.00    +0.210 HD
ENDBRANCH   5  31
TORSDOF 4
