REMARK  Name = ZINC13617748
REMARK  5 active torsions:
REMARK  status: ('A' for Active; 'I' for Inactive)
REMARK    1  A    between atoms: C_1  and  C_2
REMARK    2  A    between atoms: C_6  and  N_8
REMARK    3  A    between atoms: C_13  and  C_27
REMARK    4  A    between atoms: N_15  and  C_21
REMARK    5  A    between atoms: C_32  and  O_33
REMARK                            x       y       z     vdW  Elec       q    Type
REMARK                         _______ _______ _______ _____ _____    ______ ____
ROOT
ATOM      1  N   UNL     1       0.050  -2.798   2.395  0.00  0.00    -0.208 N 
ATOM      2  C   UNL     1      -0.025  -4.133   2.452  0.00  0.00    +0.235 C 
ATOM      3  O   UNL     1      -0.123  -4.871   1.495  0.00  0.00    -0.274 OA
ATOM      4  C   UNL     1       0.030  -4.577   3.895  0.00  0.00    +0.146 C 
ATOM      5  C   UNL     1      -1.339  -5.168   4.302  0.00  0.00    +0.160 C 
ATOM      6  N   UNL     1      -1.619  -4.486   5.590  0.00  0.00    -0.244 N 
ATOM      7  O   UNL     1      -1.150  -3.150   5.397  0.00  0.00    -0.257 OA
ATOM      8  C   UNL     1       0.117  -3.241   4.681  0.00  0.00    +0.249 C 
ATOM      9  C   UNL     1       0.147  -2.196   3.586  0.00  0.00    +0.259 C 
ATOM     10  O   UNL     1       0.241  -1.001   3.761  0.00  0.00    -0.272 OA
ENDROOT
BRANCH   1  16
ATOM     11  C   UNL     1      -2.219   0.321  -0.657  0.00  0.00    +0.044 C 
ATOM     12  C   UNL     1      -1.052  -0.570  -0.317  0.00  0.00    -0.049 A 
ATOM     13  C   UNL     1       0.006  -0.689  -1.200  0.00  0.00    +0.003 A 
ATOM     14  C   UNL     1       1.078  -1.505  -0.893  0.00  0.00    +0.002 A 
ATOM     15  C   UNL     1       1.096  -2.206   0.298  0.00  0.00    +0.024 A 
ATOM     16  C   UNL     1       0.035  -2.089   1.186  0.00  0.00    +0.044 A 
ATOM     17  C   UNL     1      -1.037  -1.263   0.877  0.00  0.00    +0.027 A 
ENDBRANCH   1  16
BRANCH   6  18
ATOM     18  C   UNL     1      -2.209  -5.028   6.733  0.00  0.00    +0.065 A 
ATOM     19  C   UNL     1      -2.605  -6.360   6.748  0.00  0.00    +0.028 A 
ATOM     20  C   UNL     1      -3.188  -6.893   7.880  0.00  0.00    +0.002 A 
ATOM     21  C   UNL     1      -3.379  -6.103   8.999  0.00  0.00    +0.000 A 
ATOM     22  C   UNL     1      -2.986  -4.777   8.988  0.00  0.00    +0.002 A 
ATOM     23  C   UNL     1      -2.397  -4.239   7.861  0.00  0.00    +0.028 A 
ENDBRANCH   6  18
BRANCH   5  24
ATOM     24  C   UNL     1      -2.391  -4.834   3.276  0.00  0.00    +0.020 A 
ATOM     25  C   UNL     1      -3.198  -3.725   3.449  0.00  0.00    +0.009 A 
ATOM     26  C   UNL     1      -4.164  -3.419   2.509  0.00  0.00    +0.001 A 
ATOM     27  C   UNL     1      -4.324  -4.219   1.393  0.00  0.00    +0.004 A 
ATOM     28  C   UNL     1      -3.520  -5.328   1.215  0.00  0.00    +0.046 A 
ATOM     29  C   UNL     1      -2.546  -5.635   2.155  0.00  0.00    +0.122 A 
BRANCH  29  30
ATOM     30  O   UNL     1      -1.750  -6.722   1.980  0.00  0.00    -0.506 OA
ATOM     31  H   UNL     1      -2.103  -7.535   2.366  0.00  0.00    +0.292 HD
ENDBRANCH  29  30
ENDBRANCH   5  24
TORSDOF 4
