REMARK  Name = ZINC54616619
REMARK  14 active torsions:
REMARK  status: ('A' for Active; 'I' for Inactive)
REMARK    1  A    between atoms: C_1  and  C_2
REMARK    2  A    between atoms: C_2  and  C_3
REMARK    3  A    between atoms: C_3  and  C_4
REMARK    4  A    between atoms: C_4  and  S_5
REMARK    5  A    between atoms: S_5  and  C_6
REMARK    6  A    between atoms: C_11  and  C_29
REMARK    7  A    between atoms: C_13  and  C_17
REMARK    8  A    between atoms: C_14  and  C_16
REMARK    9  A    between atoms: N_19  and  C_20
REMARK   10  A    between atoms: C_25  and  O_26
REMARK   11  A    between atoms: O_26  and  C_27
REMARK   12  A    between atoms: C_27  and  C_28
REMARK   13  A    between atoms: C_34  and  O_35
REMARK   14  A    between atoms: O_35  and  C_36
REMARK                            x       y       z     vdW  Elec       q    Type
REMARK                         _______ _______ _______ _____ _____    ______ ____
ROOT
ATOM      1  C   UNL     1      -1.325  -5.093   0.621  0.00  0.00    +0.210 A 
ATOM      2  N   UNL     1      -0.383  -6.047   0.590  0.00  0.00    -0.187 NA
ATOM      3  C   UNL     1      -0.953  -7.221   0.551  0.00  0.00    +0.219 A 
ATOM      4  N   UNL     1      -2.297  -7.037   0.551  0.00  0.00    -0.220 N 
ATOM      5  N   UNL     1      -2.512  -5.661   0.605  0.00  0.00    -0.141 NA
ATOM      6  C   UNL     1      -3.262  -8.132   0.502  0.00  0.00    +0.181 C 
ATOM      7  C   UNL     1      -2.554  -9.437   0.754  0.00  0.00    +0.060 C 
ATOM      8  C   UNL     1      -1.218  -9.558   0.747  0.00  0.00    +0.018 C 
ATOM      9  N   UNL     1      -0.388  -8.488   0.516  0.00  0.00    -0.287 N 
ATOM     10  C   UNL     1      -0.609 -10.913   0.999  0.00  0.00    +0.061 C 
ATOM     11  H   UNL     1       0.557  -8.614   0.336  0.00  0.00    +0.155 HD
ENDROOT
BRANCH   6  12
ATOM     12  C   UNL     1      -3.913  -8.168  -0.856  0.00  0.00    +0.023 A 
ATOM     13  C   UNL     1      -3.134  -8.230  -1.995  0.00  0.00    +0.009 A 
ATOM     14  C   UNL     1      -3.731  -8.263  -3.242  0.00  0.00    +0.001 A 
ATOM     15  C   UNL     1      -5.109  -8.233  -3.352  0.00  0.00    +0.004 A 
ATOM     16  C   UNL     1      -5.893  -8.172  -2.217  0.00  0.00    +0.046 A 
ATOM     17  C   UNL     1      -5.296  -8.144  -0.964  0.00  0.00    +0.126 A 
BRANCH  17  18
ATOM     18  O   UNL     1      -6.065  -8.089   0.155  0.00  0.00    -0.495 OA
ATOM     19  C   UNL     1      -7.481  -8.143  -0.028  0.00  0.00    +0.277 C 
ENDBRANCH  17  18
ENDBRANCH   6  12
BRANCH   7  20
ATOM     20  C   UNL     1      -3.334 -10.588   1.011  0.00  0.00    +0.248 C 
ATOM     21  O   UNL     1      -3.749 -10.805   2.136  0.00  0.00    -0.270 OA
ATOM     22  N   UNL     1      -3.618 -11.447   0.012  0.00  0.00    -0.279 N 
ATOM     23  H   UNL     1      -3.357 -11.236  -0.898  0.00  0.00    +0.155 HD
BRANCH  22  24
ATOM     24  C   UNL     1      -4.292 -12.644   0.287  0.00  0.00    +0.076 A 
ATOM     25  C   UNL     1      -5.192 -12.709   1.341  0.00  0.00    +0.027 A 
ATOM     26  C   UNL     1      -5.855 -13.891   1.609  0.00  0.00    +0.002 A 
ATOM     27  C   UNL     1      -5.624 -15.010   0.831  0.00  0.00    +0.004 A 
ATOM     28  C   UNL     1      -4.729 -14.953  -0.221  0.00  0.00    +0.047 A 
ATOM     29  C   UNL     1      -4.064 -13.770  -0.501  0.00  0.00    +0.142 A 
BRANCH  29  30
ATOM     30  O   UNL     1      -3.187 -13.710  -1.538  0.00  0.00    -0.490 OA
BRANCH  30  31
ATOM     31  C   UNL     1      -3.045 -14.887  -2.336  0.00  0.00    +0.226 C 
ATOM     32  C   UNL     1      -2.046 -14.621  -3.465  0.00  0.00    +0.048 C 
ENDBRANCH  30  31
ENDBRANCH  29  30
ENDBRANCH  22  24
ENDBRANCH   7  20
BRANCH   1  33
ATOM     33  S   UNL     1      -1.022  -3.358   0.680  0.00  0.00    -0.084 S 
BRANCH  33  34
ATOM     34  C   UNL     1       0.788  -3.229   0.679  0.00  0.00    +0.077 C 
BRANCH  34  35
ATOM     35  C   UNL     1       1.194  -1.754   0.729  0.00  0.00    +0.011 C 
BRANCH  35  37
ATOM     36  C   UNL     1       3.125  -0.171   0.778  0.00  0.00    +0.004 C 
ATOM     37  C   UNL     1       2.720  -1.645   0.728  0.00  0.00    -0.003 C 
ENDBRANCH  35  37
ENDBRANCH  34  35
ENDBRANCH  33  34
ENDBRANCH   1  33
TORSDOF 10
