REMARK  Name = ZINC35400978
REMARK  4 active torsions:
REMARK  status: ('A' for Active; 'I' for Inactive)
REMARK    1  A    between atoms: C_8  and  C_26
REMARK    2  A    between atoms: N_12  and  C_13
REMARK    3  A    between atoms: C_13  and  C_14
REMARK    4  A    between atoms: N_16  and  C_17
REMARK                            x       y       z     vdW  Elec       q    Type
REMARK                         _______ _______ _______ _____ _____    ______ ____
ROOT
ATOM      1  C   UNL     1      -0.006   1.256   0.209  0.00  0.00    +0.002 A 
ATOM      2  C   UNL     1       1.163   1.992   0.186  0.00  0.00    +0.002 A 
ATOM      3  C   UNL     1       2.388   1.353   0.103  0.00  0.00    +0.025 A 
ATOM      4  C   UNL     1       2.442  -0.030   0.043  0.00  0.00    +0.058 A 
ATOM      5  C   UNL     1       1.262  -0.772   0.066  0.00  0.00    +0.053 A 
ATOM      6  C   UNL     1       0.041  -0.126   0.149  0.00  0.00    +0.025 A 
ATOM      7  N   UNL     1       1.110  -2.167   0.015  0.00  0.00    -0.312 N 
ATOM      8  C   UNL     1       2.097  -3.131  -0.070  0.00  0.00    +0.050 C 
ATOM      9  C   UNL     1       3.464  -2.958  -0.126  0.00  0.00    +0.092 C 
ATOM     10  C   UNL     1       4.206  -1.765  -0.111  0.00  0.00    +0.246 C 
ATOM     11  O   UNL     1       5.415  -1.898  -0.173  0.00  0.00    -0.270 OA
ATOM     12  N   UNL     1       3.765  -0.494  -0.037  0.00  0.00    -0.257 N 
ATOM     13  H   UNL     1       0.198  -2.495   0.044  0.00  0.00    +0.152 HD
ENDROOT
BRANCH   8  14
ATOM     14  C   UNL     1       1.630  -4.519  -0.105  0.00  0.00    +0.033 A 
ATOM     15  C   UNL     1       2.371  -5.689  -0.182  0.00  0.00    +0.017 A 
ATOM     16  C   UNL     1       1.643  -6.856  -0.197  0.00  0.00    +0.008 A 
ATOM     17  C   UNL     1       0.291  -6.789  -0.139  0.00  0.00    +0.046 A 
ATOM     18  S   UNL     1      -0.038  -5.144  -0.052  0.00  0.00    -0.095 S 
ENDBRANCH   8  14
BRANCH  12  19
ATOM     19  C   UNL     1       4.802   0.540  -0.042  0.00  0.00    +0.210 C 
BRANCH  19  20
ATOM     20  C   UNL     1       5.091   0.968   1.374  0.00  0.00    +0.235 C 
ATOM     21  O   UNL     1       4.489   0.460   2.296  0.00  0.00    -0.274 OA
ATOM     22  N   UNL     1       6.017   1.917   1.616  0.00  0.00    -0.284 N 
ATOM     23  H   UNL     1       6.446   2.376   0.876  0.00  0.00    +0.155 HD
BRANCH  22  24
ATOM     24  C   UNL     1       6.362   2.240   2.935  0.00  0.00    +0.037 A 
ATOM     25  C   UNL     1       6.700   3.545   3.264  0.00  0.00    +0.027 A 
ATOM     26  C   UNL     1       7.040   3.865   4.565  0.00  0.00    +0.051 A 
ATOM     27  C   UNL     1       7.044   2.885   5.544  0.00  0.00    +0.166 A 
ATOM     28  C   UNL     1       6.704   1.574   5.216  0.00  0.00    +0.168 A 
ATOM     29  C   UNL     1       6.359   1.255   3.914  0.00  0.00    +0.072 A 
ATOM     30  O   UNL     1       6.784   0.808   6.343  0.00  0.00    -0.453 OA
ATOM     31  C   UNL     1       7.569   1.575   7.275  0.00  0.00    +0.466 C 
ATOM     32  O   UNL     1       7.336   2.939   6.877  0.00  0.00    -0.453 OA
ENDBRANCH  22  24
ENDBRANCH  19  20
ENDBRANCH  12  19
TORSDOF 4
