REMARK  Name = ZINC38926223
REMARK  7 active torsions:
REMARK  status: ('A' for Active; 'I' for Inactive)
REMARK    1  A    between atoms: C_1  and  C_2
REMARK    2  A    between atoms: C_5  and  N_8
REMARK    3  A    between atoms: C_9  and  N_11
REMARK    4  A    between atoms: C_15  and  C_18
REMARK    5  A    between atoms: C_23  and  S_24
REMARK    6  A    between atoms: S_24  and  C_25
REMARK    7  A    between atoms: C_25  and  C_26
REMARK                            x       y       z     vdW  Elec       q    Type
REMARK                         _______ _______ _______ _____ _____    ______ ____
ROOT
ATOM      1  N   UNL     1       0.296  -6.186   1.123  0.00  0.00    -0.136 NA
ATOM      2  C   UNL     1       0.410  -6.851   2.258  0.00  0.00    +0.203 C 
ATOM      3  N   UNL     1       0.423  -6.372   3.550  0.00  0.00    -0.153 NA
ATOM      4  N   UNL     1       0.533  -7.062   4.538  0.00  0.00    -0.289 N 
ATOM      5  C   UNL     1       0.664  -8.527   4.364  0.00  0.00    +0.194 C 
ATOM      6  S   UNL     1       0.581  -8.615   2.524  0.00  0.00    -0.056 S 
ATOM      7  H   UNL     1       0.536  -6.665   5.423  0.00  0.00    +0.184 HD
ENDROOT
BRANCH   5   8
ATOM      8  C   UNL     1       1.986  -9.029   4.887  0.00  0.00    -0.000 A 
ATOM      9  C   UNL     1       2.751  -8.229   5.713  0.00  0.00    +0.007 A 
ATOM     10  C   UNL     1       3.963  -8.688   6.194  0.00  0.00    +0.000 A 
ATOM     11  C   UNL     1       4.415  -9.949   5.849  0.00  0.00    +0.001 A 
ATOM     12  C   UNL     1       3.656 -10.754   5.023  0.00  0.00    +0.015 A 
ATOM     13  C   UNL     1       2.434 -10.298   4.543  0.00  0.00    +0.014 A 
BRANCH  13  14
ATOM     14  S   UNL     1       1.458 -11.325   3.495  0.00  0.00    -0.120 S 
BRANCH  14  15
ATOM     15  C   UNL     1       2.435 -12.845   3.337  0.00  0.00    +0.112 C 
BRANCH  15  16
ATOM     16  C   UNL     1       1.704 -13.822   2.453  0.00  0.00    -0.002 A 
ATOM     17  C   UNL     1       0.812 -14.722   3.006  0.00  0.00    +0.007 A 
ATOM     18  C   UNL     1       0.141 -15.618   2.195  0.00  0.00    +0.000 A 
ATOM     19  C   UNL     1       0.362 -15.617   0.830  0.00  0.00    +0.003 A 
ATOM     20  C   UNL     1       1.253 -14.718   0.275  0.00  0.00    +0.038 A 
ATOM     21  C   UNL     1       1.922 -13.816   1.086  0.00  0.00    +0.127 A 
ATOM     22  F   UNL     1       2.789 -12.934   0.543  0.00  0.00    -0.205 F 
ENDBRANCH  15  16
ENDBRANCH  14  15
ENDBRANCH  13  14
ENDBRANCH   5   8
BRANCH   1  24
ATOM     23  N   UNL     1       0.059  -4.169  -0.021  0.00  0.00    -0.268 N 
ATOM     24  C   UNL     1       0.176  -4.848   1.138  0.00  0.00    +0.330 C 
ATOM     25  O   UNL     1       0.174  -4.248   2.197  0.00  0.00    -0.250 OA
ATOM     26  H   UNL     1      -0.016  -4.651  -0.860  0.00  0.00    +0.156 HD
BRANCH  23  31
ATOM     27  C   UNL     1       0.009   1.503   0.008  0.00  0.00    +0.044 C 
ATOM     28  C   UNL     1       0.022  -0.004   0.001  0.00  0.00    -0.050 A 
ATOM     29  C   UNL     1      -0.722  -0.696  -0.938  0.00  0.00    +0.005 A 
ATOM     30  C   UNL     1      -0.711  -2.077  -0.948  0.00  0.00    +0.023 A 
ATOM     31  C   UNL     1       0.047  -2.771  -0.014  0.00  0.00    +0.035 A 
ATOM     32  C   UNL     1       0.793  -2.073   0.927  0.00  0.00    +0.023 A 
ATOM     33  C   UNL     1       0.782  -0.692   0.928  0.00  0.00    +0.005 A 
ENDBRANCH  23  31
ENDBRANCH   1  24
TORSDOF 6
