REMARK  Name = ZINC39687682
REMARK  9 active torsions:
REMARK  status: ('A' for Active; 'I' for Inactive)
REMARK    1  A    between atoms: C_1  and  C_2
REMARK    2  A    between atoms: C_2  and  C_3
REMARK    3  A    between atoms: C_3  and  C_4
REMARK    4  A    between atoms: C_4  and  C_5
REMARK    5  A    between atoms: C_5  and  C_7
REMARK    6  A    between atoms: C_5  and  C_8
REMARK    7  A    between atoms: C_12  and  C_21
REMARK    8  A    between atoms: N_23  and  C_24
REMARK    9  A    between atoms: C_31  and  C_36
REMARK                            x       y       z     vdW  Elec       q    Type
REMARK                         _______ _______ _______ _____ _____    ______ ____
ROOT
ATOM      1  C   UNL     1      -2.896  -4.181   0.191  0.00  0.00    +0.218 C 
ATOM      2  O   UNL     1      -1.877  -4.814   0.374  0.00  0.00    -0.275 OA
ATOM      3  N   UNL     1      -4.076  -4.821   0.076  0.00  0.00    -0.300 N 
ATOM      4  C   UNL     1      -5.399  -4.236  -0.244  0.00  0.00    +0.121 C 
ATOM      5  C   UNL     1      -6.065  -5.267  -1.183  0.00  0.00    +0.100 C 
ATOM      6  C   UNL     1      -5.369  -6.600  -0.859  0.00  0.00    -0.004 C 
ATOM      7  C   UNL     1      -4.342  -6.271   0.234  0.00  0.00    +0.115 C 
ATOM      8  C   UNL     1      -6.385  -7.614  -0.343  0.00  0.00    -0.010 C 
ATOM      9  C   UNL     1      -5.680  -8.948  -0.083  0.00  0.00    -0.082 C 
ATOM     10  N   UNL     1      -5.066  -9.430  -1.325  0.00  0.00    +0.379 N 
ATOM     11  C   UNL     1      -4.024  -8.493  -1.765  0.00  0.00    -0.082 C 
ATOM     12  C   UNL     1      -4.660  -7.140  -2.096  0.00  0.00    -0.010 C 
ATOM     13  H   UNL     1      -4.654 -10.338  -1.166  0.00  0.00    -0.086 HD
ATOM     14  H   UNL     1      -5.772  -9.505  -2.042  0.00  0.00    -0.086 HD
ENDROOT
BRANCH   5  15
ATOM     15  C   UNL     1      -7.542  -5.360  -0.897  0.00  0.00    +0.218 C 
ATOM     16  O   UNL     1      -7.956  -5.158   0.224  0.00  0.00    -0.275 OA
ATOM     17  N   UNL     1      -8.402  -5.668  -1.888  0.00  0.00    -0.312 N 
ATOM     18  H   UNL     1      -8.070  -5.830  -2.785  0.00  0.00    +0.149 HD
BRANCH  17  19
ATOM     19  C   UNL     1      -9.837  -5.759  -1.610  0.00  0.00    +0.076 C 
ATOM     20  C   UNL     1     -10.168  -7.158  -1.085  0.00  0.00    +0.041 C 
ATOM     21  C   UNL     1     -11.663  -7.238  -0.763  0.00  0.00    +0.108 C 
ATOM     22  N   UNL     1     -12.426  -6.846  -1.956  0.00  0.00    -0.316 N 
ATOM     23  C   UNL     1     -12.124  -5.558  -2.596  0.00  0.00    +0.108 C 
ATOM     24  C   UNL     1     -10.623  -5.497  -2.897  0.00  0.00    +0.041 C 
ATOM     25  C   UNL     1     -13.413  -7.678  -2.471  0.00  0.00    +0.102 A 
ATOM     26  C   UNL     1     -14.740  -7.486  -2.097  0.00  0.00    -0.012 A 
ATOM     27  C   UNL     1     -15.712  -8.321  -2.617  0.00  0.00    +0.008 A 
ATOM     28  C   UNL     1     -15.324  -9.324  -3.496  0.00  0.00    +0.018 A 
ATOM     29  C   UNL     1     -13.990  -9.457  -3.823  0.00  0.00    +0.084 A 
ATOM     30  N   UNL     1     -13.084  -8.642  -3.316  0.00  0.00    -0.349 N 
ATOM     31  C   UNL     1     -15.112  -6.384  -1.139  0.00  0.00    +0.047 C 
ATOM     32  H   UNL     1     -12.153  -8.755  -3.566  0.00  0.00    +0.167 HD
ENDBRANCH  17  19
ENDBRANCH   5  15
BRANCH   1  33
ATOM     33  C   UNL     1      -2.841  -2.678   0.093  0.00  0.00    +0.072 C 
ATOM     34  C   UNL     1      -2.638  -2.269  -1.368  0.00  0.00    +0.017 C 
BRANCH  33  35
ATOM     35  C   UNL     1      -1.677  -2.153   0.936  0.00  0.00    +0.012 C 
BRANCH  35  36
ATOM     36  C   UNL     1      -1.697  -0.624   0.937  0.00  0.00    +0.000 C 
BRANCH  36  38
ATOM     37  C   UNL     1      -0.553   1.431   1.782  0.00  0.00    +0.004 C 
ATOM     38  C   UNL     1      -0.533  -0.099   1.780  0.00  0.00    -0.003 C 
ENDBRANCH  36  38
ENDBRANCH  35  36
ENDBRANCH  33  35
ENDBRANCH   1  33
TORSDOF 6
