REMARK  Name = ZINC39665824
REMARK  13 active torsions:
REMARK  status: ('A' for Active; 'I' for Inactive)
REMARK    1  A    between atoms: C_1  and  C_2
REMARK    2  A    between atoms: C_2  and  C_4
REMARK    3  A    between atoms: C_2  and  O_31
REMARK    4  A    between atoms: C_4  and  N_5
REMARK    5  A    between atoms: C_6  and  C_8
REMARK    6  A    between atoms: C_19  and  C_21
REMARK    7  A    between atoms: C_21  and  C_22
REMARK    8  A    between atoms: C_22  and  C_23
REMARK    9  A    between atoms: C_26  and  O_29
REMARK   10  A    between atoms: O_29  and  C_30
REMARK   11  A    between atoms: O_31  and  C_32
REMARK   12  A    between atoms: C_35  and  O_38
REMARK   13  A    between atoms: O_38  and  C_39
REMARK                            x       y       z     vdW  Elec       q    Type
REMARK                         _______ _______ _______ _____ _____    ______ ____
ROOT
ATOM      1  C   UNL     1       0.691  -4.273  -1.916  0.00  0.00    +0.100 C 
ATOM      2  C   UNL     1       1.232  -4.814  -0.574  0.00  0.00    +0.121 C 
ATOM      3  N   UNL     1       1.787  -6.148  -0.904  0.00  0.00    -0.300 N 
ATOM      4  C   UNL     1       2.439  -5.960  -2.223  0.00  0.00    +0.115 C 
ATOM      5  C   UNL     1       1.485  -5.027  -2.995  0.00  0.00    -0.004 C 
ATOM      6  C   UNL     1       2.284  -4.044  -3.846  0.00  0.00    -0.010 C 
ATOM      7  C   UNL     1       3.020  -4.811  -4.949  0.00  0.00    -0.082 C 
ATOM      8  N   UNL     1       2.047  -5.530  -5.780  0.00  0.00    +0.379 N 
ATOM      9  C   UNL     1       1.348  -6.538  -4.974  0.00  0.00    -0.082 C 
ATOM     10  C   UNL     1       0.542  -5.844  -3.872  0.00  0.00    -0.010 C 
ATOM     11  C   UNL     1       1.715  -7.278  -0.172  0.00  0.00    +0.216 C 
ATOM     12  O   UNL     1       2.224  -8.299  -0.582  0.00  0.00    -0.276 OA
ATOM     13  H   UNL     1       1.376  -4.875  -6.152  0.00  0.00    -0.086 HD
ATOM     14  H   UNL     1       2.528  -5.984  -6.541  0.00  0.00    -0.086 HD
ENDROOT
BRANCH   1  16
ATOM     15  N   UNL     1       0.124  -2.024  -2.774  0.00  0.00    -0.312 N 
ATOM     16  C   UNL     1       0.937  -2.790  -2.021  0.00  0.00    +0.218 C 
ATOM     17  O   UNL     1       1.868  -2.287  -1.429  0.00  0.00    -0.275 OA
ATOM     18  H   UNL     1      -0.621  -2.426  -3.248  0.00  0.00    +0.149 HD
BRANCH  15  19
ATOM     19  C   UNL     1       0.364  -0.582  -2.877  0.00  0.00    +0.148 C 
BRANCH  19  21
ATOM     20  C   UNL     1      -0.372   1.529  -3.993  0.00  0.00    +0.053 C 
ATOM     21  C   UNL     1      -0.695   0.048  -3.785  0.00  0.00    +0.187 C 
BRANCH  21  22
ATOM     22  O   UNL     1      -1.981  -0.079  -3.176  0.00  0.00    -0.488 OA
BRANCH  22  23
ATOM     23  C   UNL     1      -3.061  -0.055  -4.002  0.00  0.00    +0.121 A 
ATOM     24  C   UNL     1      -4.330  -0.280  -3.492  0.00  0.00    +0.049 A 
ATOM     25  C   UNL     1      -5.427  -0.255  -4.331  0.00  0.00    +0.049 A 
ATOM     26  C   UNL     1      -5.258  -0.004  -5.685  0.00  0.00    +0.120 A 
ATOM     27  C   UNL     1      -3.989   0.222  -6.196  0.00  0.00    +0.049 A 
ATOM     28  C   UNL     1      -2.893   0.201  -5.355  0.00  0.00    +0.049 A 
BRANCH  26  29
ATOM     29  O   UNL     1      -6.338   0.019  -6.512  0.00  0.00    -0.495 OA
ATOM     30  C   UNL     1      -6.090   0.283  -7.894  0.00  0.00    +0.277 C 
ENDBRANCH  26  29
ENDBRANCH  22  23
ENDBRANCH  21  22
ENDBRANCH  19  21
ENDBRANCH  15  19
ENDBRANCH   1  16
BRANCH  11  31
ATOM     31  C   UNL     1       1.002  -7.271   1.155  0.00  0.00    +0.100 C 
BRANCH  31  32
ATOM     32  C   UNL     1       1.065  -8.668   1.775  0.00  0.00    +0.044 C 
BRANCH  32  33
ATOM     33  C   UNL     1       0.352  -8.661   3.103  0.00  0.00    -0.047 A 
ATOM     34  C   UNL     1       1.049  -8.362   4.259  0.00  0.00    +0.007 A 
ATOM     35  C   UNL     1       0.397  -8.356   5.477  0.00  0.00    +0.046 A 
ATOM     36  C   UNL     1      -0.957  -8.649   5.540  0.00  0.00    +0.120 A 
ATOM     37  C   UNL     1      -1.654  -8.948   4.378  0.00  0.00    +0.046 A 
ATOM     38  C   UNL     1      -0.999  -8.948   3.162  0.00  0.00    +0.007 A 
BRANCH  36  39
ATOM     39  O   UNL     1      -1.600  -8.644   6.737  0.00  0.00    -0.495 OA
ATOM     40  C   UNL     1      -2.995  -8.955   6.726  0.00  0.00    +0.277 C 
ENDBRANCH  36  39
ENDBRANCH  32  33
ENDBRANCH  31  32
ENDBRANCH  11  31
TORSDOF 10
