REMARK  Name = ZINC33858627
REMARK  6 active torsions:
REMARK  status: ('A' for Active; 'I' for Inactive)
REMARK    1  A    between atoms: C_9  and  O_30
REMARK    2  A    between atoms: C_10  and  C_11
REMARK    3  A    between atoms: C_20  and  C_28
REMARK    4  A    between atoms: C_21  and  N_27
REMARK    5  A    between atoms: C_22  and  C_23
REMARK    6  A    between atoms: C_22  and  C_25
REMARK                            x       y       z     vdW  Elec       q    Type
REMARK                         _______ _______ _______ _____ _____    ______ ____
ROOT
ATOM      1  C   UNL     1       4.947   0.183   0.025  0.00  0.00    +0.070 C 
ATOM      2  C   UNL     1       5.814  -0.294   1.192  0.00  0.00    +0.030 C 
ATOM      3  C   UNL     1       5.045  -0.320   2.492  0.00  0.00    +0.009 C 
ATOM      4  C   UNL     1       5.321   0.918   3.341  0.00  0.00    +0.005 C 
ATOM      5  C   UNL     1       6.826   0.979   3.633  0.00  0.00    +0.027 C 
ATOM      6  C   UNL     1       7.545   1.097   2.314  0.00  0.00    -0.022 C 
ATOM      7  C   UNL     1       7.051   0.554   1.237  0.00  0.00    -0.029 C 
ATOM      8  C   UNL     1       7.739   0.810  -0.056  0.00  0.00    +0.074 C 
ATOM      9  C   UNL     1       7.093   0.539  -1.218  0.00  0.00    +0.054 C 
ATOM     10  C   UNL     1       5.708  -0.033  -1.283  0.00  0.00    +0.188 C 
ENDROOT
BRANCH   1  20
ATOM     11  C   UNL     1       0.068   1.199  -1.141  0.00  0.00    +0.001 A 
ATOM     12  C   UNL     1       1.247   1.943  -1.120  0.00  0.00    +0.001 A 
ATOM     13  C   UNL     1       2.428   1.374  -0.753  0.00  0.00    +0.009 A 
ATOM     14  C   UNL     1       2.462   0.017  -0.388  0.00  0.00    -0.011 A 
ATOM     15  C   UNL     1       1.263  -0.739  -0.409  0.00  0.00    -0.017 A 
ATOM     16  C   UNL     1       0.063  -0.117  -0.794  0.00  0.00    +0.008 A 
ATOM     17  C   UNL     1       1.295  -2.096  -0.044  0.00  0.00    +0.012 A 
ATOM     18  C   UNL     1       2.473  -2.668   0.324  0.00  0.00    +0.046 A 
ATOM     19  C   UNL     1       3.657  -1.924   0.346  0.00  0.00    +0.121 A 
ATOM     20  C   UNL     1       3.662  -0.604  -0.003  0.00  0.00    +0.008 A 
BRANCH  19  21
ATOM     21  O   UNL     1       4.818  -2.523   0.719  0.00  0.00    -0.506 OA
ATOM     22  H   UNL     1       5.258  -3.007   0.007  0.00  0.00    +0.292 HD
ENDBRANCH  19  21
ENDBRANCH   1  20
BRANCH   9  23
ATOM     23  N   UNL     1       7.737   0.805  -2.393  0.00  0.00    -0.358 N 
ATOM     24  H   UNL     1       8.633   1.177  -2.382  0.00  0.00    +0.142 HD
ATOM     25  H   UNL     1       7.299   0.621  -3.239  0.00  0.00    +0.142 HD
ENDBRANCH   9  23
BRANCH  10  26
ATOM     26  C   UNL     1       5.800  -1.478  -1.552  0.00  0.00    +0.091 C 
ATOM     27  N   UNL     1       5.870  -2.592  -1.760  0.00  0.00    -0.194 NA
ENDBRANCH  10  26
BRANCH  10  28
ATOM     28  C   UNL     1       4.970   0.612  -2.381  0.00  0.00    +0.091 C 
ATOM     29  N   UNL     1       4.400   1.110  -3.228  0.00  0.00    -0.194 NA
ENDBRANCH  10  28
BRANCH   8  30
ATOM     30  C   UNL     1       9.070   1.337  -0.075  0.00  0.00    +0.101 C 
ATOM     31  N   UNL     1      10.126   1.756  -0.090  0.00  0.00    -0.191 NA
ENDBRANCH   8  30
TORSDOF 6
