REMARK  Name = ZINC03327515
REMARK  8 active torsions:
REMARK  status: ('A' for Active; 'I' for Inactive)
REMARK    1  A    between atoms: C_7  and  C_11
REMARK    2  A    between atoms: C_11  and  C_13
REMARK    3  A    between atoms: C_11  and  C_29
REMARK    4  A    between atoms: C_13  and  N_14
REMARK    5  A    between atoms: C_15  and  C_17
REMARK    6  A    between atoms: C_18  and  C_19
REMARK    7  A    between atoms: C_22  and  O_25
REMARK    8  A    between atoms: O_25  and  C_26
REMARK                            x       y       z     vdW  Elec       q    Type
REMARK                         _______ _______ _______ _____ _____    ______ ____
ROOT
ATOM      1  C   UNL     1       3.675   3.969  -0.012  0.00  0.00    +0.069 C 
ENDROOT
BRANCH   1   8
ATOM      2  C   UNL     1      -0.013   1.076   0.008  0.00  0.00    +0.001 A 
ATOM      3  C   UNL     1      -1.227   1.748   0.017  0.00  0.00    +0.002 A 
ATOM      4  C   UNL     1      -1.268   3.125   0.031  0.00  0.00    +0.026 A 
ATOM      5  C   UNL     1      -0.082   3.852   0.024  0.00  0.00    +0.047 A 
ATOM      6  C   UNL     1       1.146   3.166   0.008  0.00  0.00    +0.003 A 
ATOM      7  C   UNL     1       1.164   1.770   0.000  0.00  0.00    +0.010 A 
ATOM      8  C   UNL     1       2.186   4.198   0.004  0.00  0.00    -0.013 A 
ATOM      9  C   UNL     1       1.560   5.385   0.017  0.00  0.00    +0.088 A 
ATOM     10  N   UNL     1       0.205   5.198   0.029  0.00  0.00    -0.360 N 
ATOM     11  H   UNL     1      -0.456   5.909   0.038  0.00  0.00    +0.165 HD
ENDBRANCH   1   8
BRANCH   1  12
ATOM     12  C   UNL     1       4.292   4.588   1.216  0.00  0.00    -0.020 A 
ATOM     13  C   UNL     1       4.165   5.945   1.445  0.00  0.00    +0.006 A 
ATOM     14  C   UNL     1       4.730   6.513   2.571  0.00  0.00    +0.000 A 
ATOM     15  C   UNL     1       5.423   5.723   3.470  0.00  0.00    +0.001 A 
ATOM     16  C   UNL     1       5.550   4.366   3.243  0.00  0.00    +0.020 A 
ATOM     17  C   UNL     1       4.980   3.796   2.118  0.00  0.00    +0.045 A 
ATOM     18 CL   UNL     1       5.134   2.090   1.836  0.00  0.00    -0.083 Cl
ENDBRANCH   1  12
BRANCH   1  19
ATOM     19  C   UNL     1       4.277   4.612  -1.263  0.00  0.00    +0.117 C 
BRANCH  19  20
ATOM     20  N   UNL     1       5.703   4.289  -1.341  0.00  0.00    -0.311 N 
ATOM     21  C   UNL     1       6.444   4.752  -2.367  0.00  0.00    +0.237 C 
ATOM     22  O   UNL     1       5.928   5.439  -3.230  0.00  0.00    -0.271 OA
ATOM     23  H   UNL     1       6.115   3.742  -0.654  0.00  0.00    +0.149 HD
BRANCH  21  24
ATOM     24  C   UNL     1       7.869   4.430  -2.445  0.00  0.00    +0.068 C 
ATOM     25  C   UNL     1       8.611   4.893  -3.473  0.00  0.00    +0.013 C 
BRANCH  25  26
ATOM     26  C   UNL     1      10.042   4.569  -3.551  0.00  0.00    -0.025 A 
ATOM     27  C   UNL     1      10.640   3.785  -2.557  0.00  0.00    +0.011 A 
ATOM     28  C   UNL     1      11.980   3.480  -2.638  0.00  0.00    +0.046 A 
ATOM     29  C   UNL     1      12.742   3.958  -3.697  0.00  0.00    +0.127 A 
ATOM     30  C   UNL     1      12.154   4.743  -4.684  0.00  0.00    +0.046 A 
ATOM     31  C   UNL     1      10.814   5.049  -4.616  0.00  0.00    +0.011 A 
BRANCH  29  32
ATOM     32  O   UNL     1      14.064   3.659  -3.769  0.00  0.00    -0.434 OA
BRANCH  32  33
ATOM     33  C   UNL     1      14.603   2.849  -2.723  0.00  0.00    +0.541 C 
ATOM     34  F   UNL     1      14.431   3.497  -1.496  0.00  0.00    -0.166 F 
ATOM     35  F   UNL     1      13.940   1.617  -2.698  0.00  0.00    -0.166 F 
ENDBRANCH  32  33
ENDBRANCH  29  32
ENDBRANCH  25  26
ENDBRANCH  21  24
ENDBRANCH  19  20
ENDBRANCH   1  19
TORSDOF 8
