REMARK  Name = ZINC39623735
REMARK  6 active torsions:
REMARK  status: ('A' for Active; 'I' for Inactive)
REMARK    1  A    between atoms: C_4  and  C_7
REMARK    2  A    between atoms: C_7  and  C_8
REMARK    3  A    between atoms: C_8  and  C_9
REMARK    4  A    between atoms: C_9  and  N_10
REMARK    5  A    between atoms: C_11  and  C_13
REMARK    6  A    between atoms: C_24  and  C_26
REMARK                            x       y       z     vdW  Elec       q    Type
REMARK                         _______ _______ _______ _____ _____    ______ ____
ROOT
ATOM      1  C   UNL     1       7.564  -2.848   4.483  0.00  0.00    +0.100 C 
ATOM      2  C   UNL     1       6.482  -3.670   5.219  0.00  0.00    +0.121 C 
ATOM      3  N   UNL     1       6.923  -5.078   5.079  0.00  0.00    -0.297 N 
ATOM      4  C   UNL     1       8.395  -5.022   5.243  0.00  0.00    +0.115 C 
ATOM      5  C   UNL     1       8.819  -3.736   4.504  0.00  0.00    -0.004 C 
ATOM      6  C   UNL     1       9.947  -3.040   5.260  0.00  0.00    -0.010 C 
ATOM      7  C   UNL     1      11.201  -3.917   5.217  0.00  0.00    -0.082 C 
ATOM      8  N   UNL     1      11.590  -4.150   3.821  0.00  0.00    +0.379 N 
ATOM      9  C   UNL     1      10.538  -4.903   3.127  0.00  0.00    -0.082 C 
ATOM     10  C   UNL     1       9.256  -4.067   3.081  0.00  0.00    -0.010 C 
ATOM     11  C   UNL     1       6.158  -6.164   4.854  0.00  0.00    +0.260 C 
ATOM     12  O   UNL     1       4.970  -6.037   4.644  0.00  0.00    -0.271 OA
ATOM     13  H   UNL     1      11.729  -3.264   3.359  0.00  0.00    -0.086 HD
ATOM     14  H   UNL     1      12.451  -4.677   3.796  0.00  0.00    -0.086 HD
ENDROOT
BRANCH  11  15
ATOM     15  C   UNL     1       6.778  -7.538   4.862  0.00  0.00    +0.296 C 
ATOM     16  C   UNL     1       7.211  -7.902   6.289  0.00  0.00    +0.283 C 
ATOM     17  O   UNL     1       7.782  -9.214   6.263  0.00  0.00    -0.484 OA
ATOM     18  C   UNL     1       7.094 -10.167   5.576  0.00  0.00    +0.162 A 
ATOM     19  C   UNL     1       7.376 -11.506   5.801  0.00  0.00    +0.049 A 
ATOM     20  C   UNL     1       6.689 -12.485   5.108  0.00  0.00    +0.004 A 
ATOM     21  C   UNL     1       5.718 -12.132   4.189  0.00  0.00    +0.004 A 
ATOM     22  C   UNL     1       5.431 -10.799   3.961  0.00  0.00    +0.049 A 
ATOM     23  C   UNL     1       6.117  -9.812   4.654  0.00  0.00    +0.163 A 
ATOM     24  O   UNL     1       5.817  -8.504   4.423  0.00  0.00    -0.473 OA
ENDBRANCH  11  15
BRANCH   1  26
ATOM     25  N   UNL     1       7.551  -1.452   2.441  0.00  0.00    -0.315 N 
ATOM     26  C   UNL     1       7.139  -2.574   3.063  0.00  0.00    +0.218 C 
ATOM     27  O   UNL     1       6.426  -3.363   2.481  0.00  0.00    -0.275 OA
ATOM     28  H   UNL     1       8.122  -0.821   2.907  0.00  0.00    +0.149 HD
BRANCH  25  29
ATOM     29  C   UNL     1       7.139  -1.185   1.061  0.00  0.00    +0.104 C 
BRANCH  29  30
ATOM     30  C   UNL     1       7.740   0.143   0.596  0.00  0.00    +0.023 C 
BRANCH  30  31
ATOM     31  C   UNL     1       7.308   0.421  -0.845  0.00  0.00    +0.036 C 
BRANCH  31  35
ATOM     32  C   UNL     1       8.986   4.128  -2.146  0.00  0.00    +0.000 A 
ATOM     33  C   UNL     1       9.683   2.950  -2.336  0.00  0.00    +0.000 A 
ATOM     34  C   UNL     1       9.140   1.750  -1.915  0.00  0.00    +0.003 A 
ATOM     35  C   UNL     1       7.900   1.729  -1.303  0.00  0.00    -0.047 A 
ATOM     36  C   UNL     1       7.204   2.908  -1.112  0.00  0.00    +0.003 A 
ATOM     37  C   UNL     1       7.746   4.107  -1.534  0.00  0.00    +0.000 A 
ENDBRANCH  31  35
ENDBRANCH  30  31
ENDBRANCH  29  30
ENDBRANCH  25  29
ENDBRANCH   1  26
TORSDOF 6
