REMARK  Name = ZINC04231484
REMARK  4 active torsions:
REMARK  status: ('A' for Active; 'I' for Inactive)
REMARK    1  A    between atoms: C_1  and  C_2
REMARK    2  A    between atoms: N_6  and  N_7
REMARK    3  A    between atoms: C_8  and  C_10
REMARK    4  A    between atoms: C_15  and  N_16
REMARK                            x       y       z     vdW  Elec       q    Type
REMARK                         _______ _______ _______ _____ _____    ______ ____
ROOT
ATOM      1  N   UNL     1       2.960   3.538   1.742  0.00  0.00    -0.203 N 
ATOM      2  C   UNL     1       3.713   4.293   2.567  0.00  0.00    +0.265 C 
ATOM      3  O   UNL     1       4.293   3.778   3.503  0.00  0.00    -0.268 OA
ATOM      4  H   UNL     1       2.498   3.949   0.995  0.00  0.00    +0.178 HD
ENDROOT
BRANCH   1  10
ATOM      5  C   UNL     1      -1.355  -0.574  -0.156  0.00  0.00    +0.007 C 
ATOM      6  C   UNL     1       0.071  -0.030  -0.057  0.00  0.00    -0.013 C 
ATOM      7  C   UNL     1       0.032   1.499  -0.040  0.00  0.00    +0.009 C 
ATOM      8  C   UNL     1       1.464   2.044  -0.033  0.00  0.00    +0.053 C 
ATOM      9  C   UNL     1       2.209   1.427   1.129  0.00  0.00    +0.037 C 
ATOM     10  N   UNL     1       2.846   2.159   1.964  0.00  0.00    -0.189 NA
ATOM     11  C   UNL     1       2.182  -0.078   1.280  0.00  0.00    +0.053 C 
ATOM     12  C   UNL     1       0.724  -0.547   1.226  0.00  0.00    +0.009 C 
ENDBRANCH   1  10
BRANCH   2  13
ATOM     13  C   UNL     1       3.833   5.743   2.333  0.00  0.00    +0.061 A 
ATOM     14  C   UNL     1       3.070   6.361   1.337  0.00  0.00    +0.030 A 
ATOM     15  C   UNL     1       3.187   7.717   1.124  0.00  0.00    +0.020 A 
ATOM     16  C   UNL     1       4.057   8.475   1.893  0.00  0.00    +0.032 A 
ATOM     17  C   UNL     1       4.816   7.880   2.880  0.00  0.00    +0.040 A 
ATOM     18  C   UNL     1       4.709   6.514   3.113  0.00  0.00    +0.051 A 
ATOM     19 BR   UNL     1       5.999   8.926   3.922  0.00  0.00    -0.048 Br
ATOM     20 BR   UNL     1       2.154   8.549  -0.224  0.00  0.00    -0.050 Br
BRANCH  18  21
ATOM     21  N   UNL     1       5.468   5.913   4.110  0.00  0.00    -0.357 N 
ATOM     22  H   UNL     1       5.684   4.969   4.052  0.00  0.00    +0.142 HD
ATOM     23  H   UNL     1       5.782   6.438   4.863  0.00  0.00    +0.142 HD
ENDBRANCH  18  21
ENDBRANCH   2  13
TORSDOF 3
