REMARK  Name = ZINC02864316
REMARK  9 active torsions:
REMARK  status: ('A' for Active; 'I' for Inactive)
REMARK    1  A    between atoms: C_1  and  C_2
REMARK    2  A    between atoms: C_5  and  N_9
REMARK    3  A    between atoms: C_7  and  C_8
REMARK    4  A    between atoms: N_9  and  S_10
REMARK    5  A    between atoms: S_10  and  C_13
REMARK    6  A    between atoms: C_16  and  N_19
REMARK    7  A    between atoms: N_19  and  S_20
REMARK    8  A    between atoms: S_20  and  C_23
REMARK    9  A    between atoms: C_26  and  N_29
REMARK                            x       y       z     vdW  Elec       q    Type
REMARK                         _______ _______ _______ _____ _____    ______ ____
ROOT
ATOM      1  C   UNL     1       1.433   2.172   0.081  0.00  0.00    +0.109 A 
ATOM      2  C   UNL     1       2.118   2.278   1.278  0.00  0.00    +0.030 A 
ATOM      3  C   UNL     1       3.406   2.776   1.297  0.00  0.00    +0.026 A 
ATOM      4  C   UNL     1       4.009   3.182   0.114  0.00  0.00    +0.048 A 
ATOM      5  C   UNL     1       3.317   3.080  -1.086  0.00  0.00    +0.026 A 
ATOM      6  C   UNL     1       2.031   2.576  -1.099  0.00  0.00    +0.030 A 
ENDROOT
BRANCH   1   7
ATOM      7  S   UNL     1      -0.207   1.529   0.060  0.00  0.00    +0.072 S 
ATOM      8  O   UNL     1      -0.796   1.959  -1.159  0.00  0.00    -0.150 OA
ATOM      9  O   UNL     1      -0.776   1.826   1.328  0.00  0.00    -0.150 OA
BRANCH   7  10
ATOM     10  N   UNL     1      -0.085  -0.120  -0.029  0.00  0.00    -0.216 N 
ATOM     11  H   UNL     1      -0.427  -0.590  -0.806  0.00  0.00    +0.174 HD
BRANCH  10  16
ATOM     12  C   UNL     1       2.332  -3.019   4.203  0.00  0.00    +0.044 C 
ATOM     13  C   UNL     1       1.690  -2.248   3.079  0.00  0.00    -0.047 A 
ATOM     14  C   UNL     1       2.364  -2.083   1.883  0.00  0.00    +0.005 A 
ATOM     15  C   UNL     1       1.776  -1.382   0.848  0.00  0.00    +0.025 A 
ATOM     16  C   UNL     1       0.510  -0.834   1.013  0.00  0.00    +0.048 A 
ATOM     17  C   UNL     1      -0.164  -1.002   2.216  0.00  0.00    +0.028 A 
ATOM     18  C   UNL     1       0.427  -1.709   3.244  0.00  0.00    -0.046 A 
ATOM     19  C   UNL     1      -0.304  -1.892   4.549  0.00  0.00    +0.044 C 
ENDBRANCH  10  16
ENDBRANCH   7  10
ENDBRANCH   1   7
BRANCH   4  20
ATOM     20  N   UNL     1       5.309   3.693   0.131  0.00  0.00    -0.216 N 
ATOM     21  H   UNL     1       5.960   3.385  -0.520  0.00  0.00    +0.174 HD
BRANCH  20  22
ATOM     22  S   UNL     1       5.741   4.824   1.261  0.00  0.00    +0.072 S 
ATOM     23  O   UNL     1       5.376   4.291   2.527  0.00  0.00    -0.150 OA
ATOM     24  O   UNL     1       7.071   5.217   0.955  0.00  0.00    -0.150 OA
BRANCH  22  25
ATOM     25  C   UNL     1       4.723   6.238   0.998  0.00  0.00    +0.109 A 
ATOM     26  C   UNL     1       5.088   7.186   0.060  0.00  0.00    +0.031 A 
ATOM     27  C   UNL     1       4.288   8.294  -0.149  0.00  0.00    +0.034 A 
ATOM     28  C   UNL     1       3.128   8.458   0.585  0.00  0.00    +0.126 A 
ATOM     29  C   UNL     1       2.766   7.511   1.525  0.00  0.00    +0.034 A 
ATOM     30  C   UNL     1       3.564   6.402   1.732  0.00  0.00    +0.031 A 
BRANCH  28  31
ATOM     31  N   UNL     1       2.273   9.646   0.363  0.00  0.00    +0.056 N 
ATOM     32  O   UNL     1       1.251   9.790   1.009  0.00  0.00    -0.126 OA
ATOM     33  O   UNL     1       2.593  10.479  -0.466  0.00  0.00    -0.126 OA
ENDBRANCH  28  31
ENDBRANCH  22  25
ENDBRANCH  20  22
ENDBRANCH   4  20
TORSDOF 7
