REMARK  Name = ZINC39266318
REMARK  15 active torsions:
REMARK  status: ('A' for Active; 'I' for Inactive)
REMARK    1  A    between atoms: C_1  and  C_2
REMARK    2  A    between atoms: C_2  and  N_3
REMARK    3  A    between atoms: C_7  and  C_9
REMARK    4  A    between atoms: C_9  and  N_10
REMARK    5  A    between atoms: C_11  and  C_13
REMARK    6  A    between atoms: C_13  and  C_15
REMARK    7  A    between atoms: C_13  and  N_19
REMARK    8  A    between atoms: C_15  and  C_16
REMARK    9  A    between atoms: C_16  and  C_17
REMARK   10  A    between atoms: C_16  and  C_18
REMARK   11  A    between atoms: N_28  and  C_29
REMARK   12  A    between atoms: C_29  and  C_30
REMARK   13  A    between atoms: N_32  and  C_33
REMARK   14  A    between atoms: C_36  and  O_39
REMARK   15  A    between atoms: O_39  and  C_40
REMARK                            x       y       z     vdW  Elec       q    Type
REMARK                         _______ _______ _______ _____ _____    ______ ____
ROOT
ATOM      1  N   UNL     1      -4.473  -1.622  -4.668  0.00  0.00    -0.291 N 
ATOM      2  C   UNL     1      -5.071  -2.946  -4.882  0.00  0.00    +0.107 C 
ATOM      3  C   UNL     1      -5.981  -2.794  -6.122  0.00  0.00    +0.016 C 
ATOM      4  C   UNL     1      -5.326  -1.602  -6.842  0.00  0.00    +0.015 C 
ATOM      5  C   UNL     1      -4.599  -0.848  -5.762  0.00  0.00    +0.206 C 
ATOM      6  O   UNL     1      -4.185   0.288  -5.863  0.00  0.00    -0.277 OA
ATOM      7  C   UNL     1      -6.398  -0.719  -7.499  0.00  0.00    -0.005 C 
ATOM      8  C   UNL     1      -5.713  -0.270  -8.818  0.00  0.00    -0.019 C 
ATOM      9  C   UNL     1      -4.886  -1.527  -9.188  0.00  0.00    -0.077 C 
ATOM     10  N   UNL     1      -4.412  -2.064  -7.892  0.00  0.00    +0.395 N 
ATOM     11  H   UNL     1      -3.480  -1.727  -7.704  0.00  0.00    -0.080 HD
ENDROOT
BRANCH   1  12
ATOM     12  C   UNL     1      -3.830  -1.196  -3.422  0.00  0.00    +0.162 C 
BRANCH  12  14
ATOM     13  N   UNL     1      -1.828  -1.800  -2.101  0.00  0.00    -0.315 N 
ATOM     14  C   UNL     1      -2.587  -2.017  -3.193  0.00  0.00    +0.234 C 
ATOM     15  O   UNL     1      -2.270  -2.874  -3.991  0.00  0.00    -0.274 OA
ATOM     16  H   UNL     1      -2.081  -1.115  -1.463  0.00  0.00    +0.149 HD
BRANCH  13  17
ATOM     17  C   UNL     1      -0.620  -2.598  -1.878  0.00  0.00    +0.089 C 
BRANCH  17  22
ATOM     18  N   UNL     1       0.312  -0.703  -0.617  0.00  0.00    +0.382 N 
ATOM     19  C   UNL     1       1.770  -0.483  -0.520  0.00  0.00    -0.078 C 
ATOM     20  C   UNL     1       2.316  -1.750   0.184  0.00  0.00    -0.020 C 
ATOM     21  C   UNL     1       1.417  -2.858  -0.424  0.00  0.00    -0.016 C 
ATOM     22  C   UNL     1       0.052  -2.154  -0.577  0.00  0.00    -0.051 C 
ATOM     23  H   UNL     1      -0.030  -0.320  -1.486  0.00  0.00    -0.081 HD
BRANCH  18  25
ATOM     24  C   UNL     1      -0.196   1.468   0.397  0.00  0.00    -0.017 C 
ATOM     25  C   UNL     1      -0.363  -0.048   0.512  0.00  0.00    -0.082 C 
ENDBRANCH  18  25
ENDBRANCH  17  22
ENDBRANCH  13  17
ENDBRANCH  12  14
BRANCH  12  26
ATOM     26  C   UNL     1      -4.797  -1.397  -2.254  0.00  0.00    +0.035 C 
BRANCH  26  27
ATOM     27  C   UNL     1      -6.015  -0.490  -2.439  0.00  0.00    -0.015 C 
ATOM     28  C   UNL     1      -7.031  -0.769  -1.329  0.00  0.00    +0.007 C 
ATOM     29  C   UNL     1      -5.576   0.974  -2.373  0.00  0.00    +0.007 C 
ENDBRANCH  26  27
ENDBRANCH  12  26
ENDBRANCH   1  12
BRANCH  10  30
ATOM     30  C   UNL     1      -4.408  -3.532  -7.935  0.00  0.00    +0.020 C 
BRANCH  30  31
ATOM     31  C   UNL     1      -3.354  -4.003  -8.904  0.00  0.00    +0.201 C 
ATOM     32  O   UNL     1      -2.673  -3.196  -9.499  0.00  0.00    -0.278 OA
ATOM     33  N   UNL     1      -3.168  -5.323  -9.108  0.00  0.00    -0.287 N 
ATOM     34  H   UNL     1      -3.756  -5.967  -8.684  0.00  0.00    +0.155 HD
BRANCH  33  35
ATOM     35  C   UNL     1      -2.124  -5.763  -9.933  0.00  0.00    +0.034 A 
ATOM     36  C   UNL     1      -2.291  -6.896 -10.718  0.00  0.00    +0.027 A 
ATOM     37  C   UNL     1      -1.263  -7.330 -11.531  0.00  0.00    +0.047 A 
ATOM     38  C   UNL     1      -0.063  -6.634 -11.563  0.00  0.00    +0.120 A 
ATOM     39  C   UNL     1       0.105  -5.503 -10.778  0.00  0.00    +0.047 A 
ATOM     40  C   UNL     1      -0.925  -5.064  -9.969  0.00  0.00    +0.027 A 
BRANCH  38  41
ATOM     41  O   UNL     1       0.950  -7.062 -12.364  0.00  0.00    -0.495 OA
ATOM     42  C   UNL     1       2.157  -6.298 -12.347  0.00  0.00    +0.277 C 
ENDBRANCH  38  41
ENDBRANCH  33  35
ENDBRANCH  30  31
ENDBRANCH  10  30
TORSDOF 11
