REMARK  Name = ZINC15448902
REMARK  11 active torsions:
REMARK  status: ('A' for Active; 'I' for Inactive)
REMARK    1  A    between atoms: C_1  and  C_2
REMARK    2  A    between atoms: C_2  and  O_3
REMARK    3  A    between atoms: O_3  and  C_4
REMARK    4  A    between atoms: C_4  and  C_6
REMARK    5  A    between atoms: C_7  and  C_19
REMARK    6  A    between atoms: C_12  and  C_14
REMARK    7  A    between atoms: C_19  and  N_54
REMARK    8  A    between atoms: C_20  and  N_54
REMARK    9  A    between atoms: C_21  and  C_22
REMARK   10  A    between atoms: C_21  and  N_54
REMARK   11  A    between atoms: N_24  and  C_25
REMARK                            x       y       z     vdW  Elec       q    Type
REMARK                         _______ _______ _______ _____ _____    ______ ____
ROOT
ATOM      1  C   UNL     1       0.440  -0.050   0.164  0.00  0.00    +0.079 C 
ATOM      2  C   UNL     1       1.568  -0.792   0.163  0.00  0.00    +0.008 C 
ATOM      3  N   UNL     1       2.798  -0.205   0.257  0.00  0.00    -0.274 N 
ATOM      4  C   UNL     1       2.984   1.117   0.356  0.00  0.00    +0.304 C 
ATOM      5  O   UNL     1       4.118   1.547   0.435  0.00  0.00    -0.252 OA
ATOM      6  N   UNL     1       1.954   1.987   0.371  0.00  0.00    -0.285 N 
ATOM      7  C   UNL     1       0.585   1.454   0.273  0.00  0.00    +0.179 C 
ATOM      8  H   UNL     1       3.580  -0.778   0.252  0.00  0.00    +0.156 HD
ATOM      9  H   UNL     1       2.112   2.941   0.443  0.00  0.00    +0.151 HD
ENDROOT
BRANCH   7  10
ATOM     10  C   UNL     1      -0.177   1.907   1.492  0.00  0.00    +0.130 A 
ATOM     11  C   UNL     1      -1.407   2.451   1.493  0.00  0.00    +0.047 A 
ATOM     12  C   UNL     1      -1.734   2.723   2.842  0.00  0.00    +0.041 A 
ATOM     13  C   UNL     1      -0.683   2.329   3.584  0.00  0.00    +0.195 A 
ATOM     14  O   UNL     1       0.254   1.830   2.762  0.00  0.00    -0.466 OA
ENDBRANCH   7  10
BRANCH   1  15
ATOM     15  C   UNL     1      -0.834  -0.657   0.065  0.00  0.00    +0.339 C 
ATOM     16  O   UNL     1      -1.444  -0.625  -0.987  0.00  0.00    -0.245 OA
BRANCH  15  17
ATOM     17  O   UNL     1      -1.373  -1.272   1.139  0.00  0.00    -0.462 OA
BRANCH  17  19
ATOM     18  C   UNL     1      -3.107  -2.508   2.282  0.00  0.00    +0.048 C 
ATOM     19  C   UNL     1      -2.663  -1.863   0.968  0.00  0.00    +0.229 C 
ENDBRANCH  17  19
ENDBRANCH  15  17
ENDBRANCH   1  15
BRANCH   2  20
ATOM     20  C   UNL     1       1.469  -2.292   0.056  0.00  0.00    -0.026 C 
BRANCH  20  22
ATOM     21  C   UNL     1       1.331  -2.251  -2.361  0.00  0.00    -0.095 C 
ATOM     22  N   UNL     1       2.116  -2.724  -1.201  0.00  0.00    +0.387 N 
ATOM     23  H   UNL     1       3.058  -2.318  -1.248  0.00  0.00    -0.081 HD
BRANCH  22  24
ATOM     24  C   UNL     1       2.226  -4.198  -1.233  0.00  0.00    +0.019 C 
BRANCH  24  25
ATOM     25  C   UNL     1       3.078  -4.597  -2.409  0.00  0.00    +0.201 C 
ATOM     26  O   UNL     1       3.529  -3.747  -3.148  0.00  0.00    -0.278 OA
ATOM     27  N   UNL     1       3.341  -5.898  -2.641  0.00  0.00    -0.286 N 
ATOM     28  H   UNL     1       2.917  -6.582  -2.099  0.00  0.00    +0.155 HD
BRANCH  27  29
ATOM     29  C   UNL     1       4.226  -6.263  -3.662  0.00  0.00    +0.052 A 
ATOM     30  C   UNL     1       5.127  -5.335  -4.166  0.00  0.00    +0.025 A 
ATOM     31  C   UNL     1       6.003  -5.699  -5.170  0.00  0.00    +0.002 A 
ATOM     32  C   UNL     1       5.976  -6.984  -5.681  0.00  0.00    +0.002 A 
ATOM     33  C   UNL     1       5.076  -7.909  -5.186  0.00  0.00    +0.022 A 
ATOM     34  C   UNL     1       4.200  -7.553  -4.178  0.00  0.00    +0.062 A 
ATOM     35 CL   UNL     1       3.070  -8.715  -3.557  0.00  0.00    -0.082 Cl
ENDBRANCH  27  29
ENDBRANCH  24  25
ENDBRANCH  22  24
ENDBRANCH  20  22
ENDBRANCH   2  20
TORSDOF 9
