REMARK  Name = ZINC19094254
REMARK  6 active torsions:
REMARK  status: ('A' for Active; 'I' for Inactive)
REMARK    1  A    between atoms: C_1  and  C_2
REMARK    2  A    between atoms: C_2  and  C_3
REMARK    3  A    between atoms: C_3  and  C_5
REMARK    4  A    between atoms: C_3  and  N_6
REMARK    5  A    between atoms: C_7  and  C_9
REMARK    6  A    between atoms: C_15  and  C_17
REMARK                            x       y       z     vdW  Elec       q    Type
REMARK                         _______ _______ _______ _____ _____    ______ ____
ROOT
ATOM      1  C   UNL     1       2.699   3.553   0.022  0.00  0.00    +0.093 C 
ATOM      2  C   UNL     1       3.049   5.002  -0.325  0.00  0.00    +0.040 C 
ATOM      3  C   UNL     1       2.336   5.942   0.602  0.00  0.00    -0.030 C 
ATOM      4  C   UNL     1       1.318   5.611   1.330  0.00  0.00    -0.030 C 
ATOM      5  C   UNL     1       0.715   4.237   1.356  0.00  0.00    +0.042 C 
ATOM      6  C   UNL     1       1.173   3.437   0.134  0.00  0.00    +0.118 C 
ENDROOT
BRANCH   1   8
ATOM      7  N   UNL     1       3.855   1.948   1.507  0.00  0.00    -0.312 N 
ATOM      8  C   UNL     1       3.333   3.179   1.337  0.00  0.00    +0.217 C 
ATOM      9  O   UNL     1       3.375   3.986   2.241  0.00  0.00    -0.275 OA
ATOM     10  H   UNL     1       3.821   1.303   0.783  0.00  0.00    +0.149 HD
BRANCH   7  11
ATOM     11  C   UNL     1       4.472   1.585   2.785  0.00  0.00    +0.070 C 
ATOM     12  C   UNL     1       5.931   2.044   2.796  0.00  0.00    +0.028 C 
BRANCH  11  14
ATOM     13  C   UNL     1       2.954  -0.379   3.079  0.00  0.00    +0.005 C 
ATOM     14  C   UNL     1       4.414   0.066   2.965  0.00  0.00    +0.018 C 
ENDBRANCH  11  14
ENDBRANCH   7  11
ENDBRANCH   1   8
BRANCH   6  15
ATOM     15  C   UNL     1       0.787   1.990   0.302  0.00  0.00    +0.360 C 
ATOM     16  O   UNL     1       1.639   1.134   0.310  0.00  0.00    -0.246 OA
ATOM     17  O   UNL     1      -0.505   1.652   0.442  0.00  0.00    -0.246 OA
ENDBRANCH   6  15
TORSDOF 4
