REMARK  Name = ZINC03324685
REMARK  8 active torsions:
REMARK  status: ('A' for Active; 'I' for Inactive)
REMARK    1  A    between atoms: C_1  and  C_2
REMARK    2  A    between atoms: C_5  and  N_8
REMARK    3  A    between atoms: C_9  and  C_31
REMARK    4  A    between atoms: C_12  and  S_13
REMARK    5  A    between atoms: S_13  and  C_14
REMARK    6  A    between atoms: C_14  and  C_15
REMARK    7  A    between atoms: N_17  and  N_18
REMARK    8  A    between atoms: C_24  and  C_27
REMARK                            x       y       z     vdW  Elec       q    Type
REMARK                         _______ _______ _______ _____ _____    ______ ____
ROOT
ATOM      1  S   UNL     1      -3.874   2.010   0.031  0.00  0.00    -0.076 S 
ENDROOT
BRANCH   1   6
ATOM      2  N   UNL     1      -6.550   1.187   0.045  0.00  0.00    -0.270 N 
ATOM      3  C   UNL     1      -7.216  -0.018   0.037  0.00  0.00    +0.169 A 
ATOM      4  N   UNL     1      -6.304  -0.963   0.028  0.00  0.00    -0.128 NA
ATOM      5  N   UNL     1      -5.130  -0.440   0.024  0.00  0.00    -0.122 NA
ATOM      6  C   UNL     1      -5.218   0.872   0.032  0.00  0.00    +0.197 A 
BRANCH   2  11
ATOM      7  C   UNL     1      -8.846   6.377   0.111  0.00  0.00    +0.044 C 
ATOM      8  C   UNL     1      -8.236   4.999   0.094  0.00  0.00    -0.050 A 
ATOM      9  C   UNL     1      -7.502   4.583  -1.002  0.00  0.00    +0.005 A 
ATOM     10  C   UNL     1      -6.942   3.321  -1.021  0.00  0.00    +0.026 A 
ATOM     11  C   UNL     1      -7.116   2.469   0.062  0.00  0.00    +0.051 A 
ATOM     12  C   UNL     1      -7.858   2.888   1.158  0.00  0.00    +0.026 A 
ATOM     13  C   UNL     1      -8.411   4.154   1.174  0.00  0.00    +0.005 A 
ENDBRANCH   2  11
BRANCH   3  14
ATOM     14  C   UNL     1      -8.682  -0.212   0.044  0.00  0.00    +0.020 A 
ATOM     15  C   UNL     1      -9.531   0.855  -0.253  0.00  0.00    +0.011 A 
ATOM     16  C   UNL     1     -10.898   0.666  -0.249  0.00  0.00    +0.001 A 
ATOM     17  C   UNL     1     -11.427  -0.575   0.057  0.00  0.00    +0.000 A 
ATOM     18  C   UNL     1     -10.590  -1.636   0.358  0.00  0.00    +0.001 A 
ATOM     19  C   UNL     1      -9.222  -1.462   0.353  0.00  0.00    +0.011 A 
ENDBRANCH   3  14
ENDBRANCH   1   6
BRANCH   1  20
ATOM     20  C   UNL     1      -2.482   0.853   0.018  0.00  0.00    +0.174 C 
BRANCH  20  21
ATOM     21  C   UNL     1      -1.187   1.624   0.017  0.00  0.00    +0.240 C 
ATOM     22  O   UNL     1      -1.204   2.837   0.023  0.00  0.00    -0.273 OA
ATOM     23  N   UNL     1      -0.011   0.966   0.007  0.00  0.00    -0.223 N 
ATOM     24  H   UNL     1       0.002  -0.004   0.002  0.00  0.00    +0.174 HD
BRANCH  23  25
ATOM     25  N   UNL     1       1.193   1.683  -0.000  0.00  0.00    -0.137 N 
ATOM     26  C   UNL     1       2.002   1.817   1.071  0.00  0.00    +0.263 C 
ATOM     27  O   UNL     1       1.834   1.358   2.180  0.00  0.00    -0.271 OA
ATOM     28  C   UNL     1       3.164   2.659   0.596  0.00  0.00    +0.114 C 
ATOM     29  C   UNL     1       4.469   1.881   0.716  0.00  0.00    +0.035 C 
ATOM     30  C   UNL     1       5.628   2.740   0.204  0.00  0.00    +0.006 C 
ATOM     31  C   UNL     1       5.707   4.029   1.024  0.00  0.00    -0.014 C 
ATOM     32  C   UNL     1       4.400   4.811   0.874  0.00  0.00    +0.006 C 
ATOM     33  C   UNL     1       3.236   3.960   1.388  0.00  0.00    +0.035 C 
ATOM     34  C   UNL     1       6.872   4.883   0.522  0.00  0.00    +0.007 C 
ATOM     35  N   UNL     1       2.854   2.931  -0.814  0.00  0.00    -0.284 N 
ATOM     36  C   UNL     1       1.685   2.315  -1.073  0.00  0.00    +0.326 C 
ATOM     37  O   UNL     1       1.137   2.333  -2.157  0.00  0.00    -0.251 OA
ATOM     38  H   UNL     1       3.388   3.449  -1.437  0.00  0.00    +0.151 HD
ENDBRANCH  23  25
ENDBRANCH  20  21
ENDBRANCH   1  20
TORSDOF 6
