REMARK  Name = ZINC04686382
REMARK  11 active torsions:
REMARK  status: ('A' for Active; 'I' for Inactive)
REMARK    1  A    between atoms: C_1  and  C_2
REMARK    2  A    between atoms: C_2  and  O_3
REMARK    3  A    between atoms: O_3  and  C_4
REMARK    4  A    between atoms: C_4  and  C_6
REMARK    5  A    between atoms: C_7  and  C_22
REMARK    6  A    between atoms: C_12  and  C_14
REMARK    7  A    between atoms: C_16  and  C_21
REMARK    8  A    between atoms: C_19  and  C_20
REMARK    9  A    between atoms: C_22  and  N_62
REMARK   10  A    between atoms: C_24  and  C_31
REMARK   11  A    between atoms: C_27  and  C_30
REMARK                            x       y       z     vdW  Elec       q    Type
REMARK                         _______ _______ _______ _____ _____    ______ ____
ROOT
ATOM      1  C   UNL     1      -1.591  -1.014  -1.494  0.00  0.00    +0.076 C 
ATOM      2  C   UNL     1      -1.921  -2.283  -1.819  0.00  0.00    +0.008 C 
ATOM      3  N   UNL     1      -1.788  -3.299  -0.916  0.00  0.00    -0.274 N 
ATOM      4  C   UNL     1      -1.332  -3.128   0.331  0.00  0.00    +0.304 C 
ATOM      5  O   UNL     1      -1.248  -4.095   1.064  0.00  0.00    -0.252 OA
ATOM      6  N   UNL     1      -0.963  -1.920   0.801  0.00  0.00    -0.288 N 
ATOM      7  C   UNL     1      -1.069  -0.757  -0.095  0.00  0.00    +0.144 C 
ATOM      8  H   UNL     1      -2.037  -4.194  -1.194  0.00  0.00    +0.156 HD
ATOM      9  H   UNL     1      -0.634  -1.820   1.709  0.00  0.00    +0.151 HD
ENDROOT
BRANCH   7  10
ATOM     10  C   UNL     1       0.300  -0.138  -0.217  0.00  0.00    -0.019 A 
ATOM     11  C   UNL     1       1.422  -0.945  -0.256  0.00  0.00    +0.009 A 
ATOM     12  C   UNL     1       2.678  -0.377  -0.368  0.00  0.00    -0.050 A 
ATOM     13  C   UNL     1       2.811   0.997  -0.442  0.00  0.00    +0.003 A 
ATOM     14  C   UNL     1       1.688   1.803  -0.403  0.00  0.00    +0.004 A 
ATOM     15  C   UNL     1       0.433   1.236  -0.292  0.00  0.00    -0.045 A 
ATOM     16  C   UNL     1      -0.791   2.114  -0.257  0.00  0.00    +0.044 C 
ATOM     17  C   UNL     1       3.901  -1.256  -0.410  0.00  0.00    +0.044 C 
ENDBRANCH   7  10
BRANCH   1  18
ATOM     18  C   UNL     1      -1.729   0.039  -2.429  0.00  0.00    +0.339 C 
ATOM     19  O   UNL     1      -0.757   0.441  -3.039  0.00  0.00    -0.245 OA
BRANCH  18  20
ATOM     20  O   UNL     1      -2.939   0.598  -2.642  0.00  0.00    -0.462 OA
BRANCH  20  22
ATOM     21  C   UNL     1      -4.407   2.295  -3.539  0.00  0.00    +0.048 C 
ATOM     22  C   UNL     1      -2.986   1.729  -3.514  0.00  0.00    +0.229 C 
ENDBRANCH  20  22
ENDBRANCH  18  20
ENDBRANCH   1  18
BRANCH   2  23
ATOM     23  C   UNL     1      -2.446  -2.583  -3.199  0.00  0.00    -0.026 C 
BRANCH  23  31
ATOM     24  C   UNL     1      -0.227  -2.760  -4.151  0.00  0.00    -0.075 C 
ATOM     25  C   UNL     1       0.783  -3.740  -4.754  0.00  0.00    -0.031 C 
ATOM     26  C   UNL     1       0.223  -4.300  -6.065  0.00  0.00    +0.003 C 
ATOM     27  C   UNL     1      -1.123  -4.975  -5.789  0.00  0.00    -0.031 C 
ATOM     28  C   UNL     1      -2.077  -3.960  -5.156  0.00  0.00    -0.075 C 
ATOM     29  C   UNL     1      -1.718  -5.485  -7.103  0.00  0.00    +0.005 C 
ATOM     30  C   UNL     1       1.030  -4.887  -3.773  0.00  0.00    +0.005 C 
ATOM     31  N   UNL     1      -1.492  -3.478  -3.887  0.00  0.00    +0.384 N 
ATOM     32  H   UNL     1      -1.298  -4.285  -3.282  0.00  0.00    -0.081 HD
ENDBRANCH  23  31
ENDBRANCH   2  23
TORSDOF 6
