REMARK  Name = ZINC36155907
REMARK  12 active torsions:
REMARK  status: ('A' for Active; 'I' for Inactive)
REMARK    1  A    between atoms: C_2  and  C_3
REMARK    2  A    between atoms: C_3  and  C_4
REMARK    3  A    between atoms: C_4  and  C_5
REMARK    4  A    between atoms: C_5  and  C_7
REMARK    5  A    between atoms: C_5  and  O_38
REMARK    6  A    between atoms: C_7  and  N_8
REMARK    7  A    between atoms: N_8  and  C_9
REMARK    8  A    between atoms: N_8  and  C_15
REMARK    9  A    between atoms: C_9  and  C_10
REMARK   10  A    between atoms: C_15  and  C_16
REMARK   11  A    between atoms: N_28  and  C_31
REMARK   12  A    between atoms: C_31  and  C_32
REMARK                            x       y       z     vdW  Elec       q    Type
REMARK                         _______ _______ _______ _____ _____    ______ ____
ROOT
ATOM      1  C   UNL     1      -5.199  -6.090  -3.126  0.00  0.00    +0.094 A 
ATOM      2  N   UNL     1      -5.394  -7.147  -3.955  0.00  0.00    -0.312 N 
ATOM      3  H   UNL     1      -4.697  -7.394  -4.583  0.00  0.00    +0.170 HD
ATOM      4  C   UNL     1      -6.535  -7.861  -3.924  0.00  0.00    +0.260 A 
ATOM      5  O   UNL     1      -6.694  -8.808  -4.675  0.00  0.00    -0.267 OA
ATOM      6  C   UNL     1      -7.560  -7.489  -2.993  0.00  0.00    +0.075 A 
ATOM      7  C   UNL     1      -8.866  -8.108  -2.782  0.00  0.00    -0.020 A 
ATOM      8  C   UNL     1      -9.658  -7.563  -1.833  0.00  0.00    +0.010 A 
ATOM      9  S   UNL     1      -8.721  -6.213  -1.173  0.00  0.00    -0.072 S 
ATOM     10  C   UNL     1      -7.267  -6.384  -2.177  0.00  0.00    +0.116 A 
ATOM     11  N   UNL     1      -6.111  -5.731  -2.263  0.00  0.00    -0.229 NA
ATOM     12  C   UNL     1     -11.030  -8.020  -1.444  0.00  0.00    +0.127 C 
ATOM     13  N   UNL     1     -11.527  -8.930  -2.493  0.00  0.00    -0.293 NA
ATOM     14  C   UNL     1     -10.520  -9.951  -2.813  0.00  0.00    +0.090 C 
ATOM     15  C   UNL     1      -9.353  -9.318  -3.575  0.00  0.00    +0.052 C 
ENDROOT
BRANCH   1  16
ATOM     16  C   UNL     1      -3.905  -5.322  -3.198  0.00  0.00    -0.003 C 
BRANCH  16  17
ATOM     17  N   UNL     1      -3.924  -4.236  -2.209  0.00  0.00    +0.391 N 
ATOM     18  H   UNL     1      -4.748  -3.671  -2.345  0.00  0.00    -0.080 HD
BRANCH  17  19
ATOM     19  C   UNL     1      -2.726  -3.402  -2.373  0.00  0.00    -0.046 C 
BRANCH  19  20
ATOM     20  C   UNL     1      -2.806  -2.652  -3.704  0.00  0.00    +0.098 C 
BRANCH  20  21
ATOM     21  O   UNL     1      -2.683  -3.580  -4.783  0.00  0.00    -0.394 OA
ATOM     22  H   UNL     1      -1.852  -4.075  -4.784  0.00  0.00    +0.210 HD
ENDBRANCH  20  21
BRANCH  20  23
ATOM     23  C   UNL     1      -1.671  -1.628  -3.781  0.00  0.00    +0.033 C 
BRANCH  23  24
ATOM     24  C   UNL     1      -1.824  -0.792  -5.054  0.00  0.00    +0.029 C 
BRANCH  24  26
ATOM     25  C   UNL     1       0.061   0.264  -6.190  0.00  0.00    +0.004 C 
ATOM     26  C   UNL     1      -0.706   0.216  -5.130  0.00  0.00    -0.034 C 
ENDBRANCH  24  26
ENDBRANCH  23  24
ENDBRANCH  20  23
ENDBRANCH  19  20
ENDBRANCH  17  19
BRANCH  17  27
ATOM     27  C   UNL     1      -3.941  -4.807  -0.856  0.00  0.00    -0.002 C 
BRANCH  27  28
ATOM     28  C   UNL     1      -4.106  -3.701   0.155  0.00  0.00    +0.089 A 
ATOM     29  C   UNL     1      -5.270  -3.295   0.693  0.00  0.00    +0.042 A 
ATOM     30  C   UNL     1      -4.963  -2.242   1.585  0.00  0.00    +0.041 A 
ATOM     31  C   UNL     1      -3.630  -2.067   1.538  0.00  0.00    +0.195 A 
ATOM     32  O   UNL     1      -3.115  -2.958   0.674  0.00  0.00    -0.470 OA
ENDBRANCH  27  28
ENDBRANCH  17  27
ENDBRANCH  16  17
ENDBRANCH   1  16
BRANCH  13  33
ATOM     33  C   UNL     1     -12.797  -9.551  -2.093  0.00  0.00    +0.120 C 
BRANCH  33  34
ATOM     34  C   UNL     1     -13.866  -8.493  -2.000  0.00  0.00    -0.033 A 
ATOM     35  C   UNL     1     -14.077  -7.826  -0.808  0.00  0.00    +0.005 A 
ATOM     36  C   UNL     1     -15.057  -6.856  -0.722  0.00  0.00    +0.000 A 
ATOM     37  C   UNL     1     -15.827  -6.552  -1.829  0.00  0.00    +0.000 A 
ATOM     38  C   UNL     1     -15.616  -7.218  -3.022  0.00  0.00    +0.000 A 
ATOM     39  C   UNL     1     -14.632  -8.185  -3.109  0.00  0.00    +0.005 A 
ENDBRANCH  33  34
ENDBRANCH  13  33
TORSDOF 12
