REMARK  Name = ZINC44963687
REMARK  5 active torsions:
REMARK  status: ('A' for Active; 'I' for Inactive)
REMARK    1  A    between atoms: C_7  and  C_25
REMARK    2  A    between atoms: C_15  and  C_24
REMARK    3  A    between atoms: C_20  and  C_21
REMARK    4  A    between atoms: C_20  and  O_23
REMARK    5  A    between atoms: C_27  and  O_29
REMARK                            x       y       z     vdW  Elec       q    Type
REMARK                         _______ _______ _______ _____ _____    ______ ____
ROOT
ATOM      1  C   UNL     1       1.460   1.105  -0.250  0.00  0.00    +0.036 C 
ATOM      2  C   UNL     1       0.467   1.622   0.783  0.00  0.00    +0.033 C 
ATOM      3  C   UNL     1       0.929   1.328   2.194  0.00  0.00    -0.067 C 
ATOM      4  C   UNL     1       2.157   1.017   2.489  0.00  0.00    -0.067 C 
ATOM      5  C   UNL     1       2.620   0.712   3.898  0.00  0.00    +0.034 C 
ATOM      6  C   UNL     1       1.612   1.161   4.949  0.00  0.00    -0.006 C 
ATOM      7  C   UNL     1       0.234   0.665   4.503  0.00  0.00    +0.003 C 
ATOM      8  C   UNL     1      -0.145   1.442   3.250  0.00  0.00    +0.019 C 
ATOM      9  C   UNL     1      -1.475   0.894   2.729  0.00  0.00    +0.009 C 
ATOM     10  C   UNL     1      -2.547   1.172   3.782  0.00  0.00    +0.011 C 
ATOM     11  C   UNL     1      -2.225   0.474   5.105  0.00  0.00    +0.011 C 
ATOM     12  C   UNL     1      -0.806   0.840   5.579  0.00  0.00    +0.003 C 
ATOM     13  C   UNL     1      -0.938   2.300   6.050  0.00  0.00    +0.008 C 
ATOM     14  C   UNL     1      -2.316   2.331   6.750  0.00  0.00    +0.049 C 
ATOM     15  C   UNL     1      -3.126   1.129   6.186  0.00  0.00    +0.132 C 
ATOM     16  C   UNL     1      -2.456  -1.035   5.014  0.00  0.00    +0.015 C 
ATOM     17  C   UNL     1       1.609   2.688   5.048  0.00  0.00    +0.008 C 
ATOM     18  C   UNL     1       3.247   0.914   1.440  0.00  0.00    +0.062 C 
ATOM     19  C   UNL     1       2.850   1.620   0.150  0.00  0.00    +0.119 C 
ENDROOT
BRANCH  15  20
ATOM     20  C   UNL     1      -3.449   0.149   7.236  0.00  0.00    -0.070 C 
ATOM     21  C   UNL     1      -3.706  -0.632   8.073  0.00  0.00    +0.007 C 
ENDBRANCH  15  20
BRANCH  15  22
ATOM     22  O   UNL     1      -4.327   1.624   5.589  0.00  0.00    -0.376 OA
ATOM     23  H   UNL     1      -4.932   2.045   6.215  0.00  0.00    +0.211 HD
ENDBRANCH  15  22
BRANCH  19  24
ATOM     24  O   UNL     1       3.795   1.317  -0.878  0.00  0.00    -0.391 OA
ATOM     25  H   UNL     1       3.584   1.713  -1.735  0.00  0.00    +0.210 HD
ENDBRANCH  19  24
TORSDOF 3
