REMARK  Name = ZINC57407252
REMARK  6 active torsions:
REMARK  status: ('A' for Active; 'I' for Inactive)
REMARK    1  A    between atoms: C_1  and  C_2
REMARK    2  A    between atoms: C_2  and  C_3
REMARK    3  A    between atoms: C_2  and  C_4
REMARK    4  A    between atoms: N_11  and  N_12
REMARK    5  A    between atoms: N_12  and  C_13
REMARK    6  A    between atoms: C_21  and  O_23
REMARK                            x       y       z     vdW  Elec       q    Type
REMARK                         _______ _______ _______ _____ _____    ______ ____
ROOT
ATOM      1  C   UNL     1      -1.412  -0.526   0.013  0.00  0.00    -0.044 A 
ATOM      2  C   UNL     1      -2.260  -0.202   1.061  0.00  0.00    +0.006 A 
ATOM      3  C   UNL     1      -3.555  -0.668   1.090  0.00  0.00    +0.029 A 
ATOM      4  C   UNL     1      -4.030  -1.479   0.053  0.00  0.00    +0.077 A 
ATOM      5  C   UNL     1      -3.161  -1.803  -1.008  0.00  0.00    +0.033 A 
ATOM      6  C   UNL     1      -1.860  -1.320  -1.024  0.00  0.00    +0.016 A 
ATOM      7  C   UNL     1      -3.951  -2.657  -1.922  0.00  0.00    +0.152 C 
ATOM      8  N   UNL     1      -3.564  -3.205  -3.053  0.00  0.00    -0.181 NA
ATOM      9  C   UNL     1      -5.271  -2.755  -1.274  0.00  0.00    +0.241 C 
ATOM     10  N   UNL     1      -5.237  -2.063  -0.164  0.00  0.00    -0.211 NA
ENDROOT
BRANCH   1  12
ATOM     11  C   UNL     1      -0.019   1.526   0.010  0.00  0.00    +0.012 C 
ATOM     12  C   UNL     1       0.002  -0.004   0.002  0.00  0.00    +0.013 C 
ATOM     13  C   UNL     1       0.742  -0.511   1.242  0.00  0.00    +0.012 C 
ENDBRANCH   1  12
BRANCH   8  14
ATOM     14  N   UNL     1      -4.387  -3.929  -3.734  0.00  0.00    -0.264 N 
ATOM     15  H   UNL     1      -5.291  -4.069  -3.412  0.00  0.00    +0.168 HD
BRANCH  14  16
ATOM     16  C   UNL     1      -3.956  -4.538  -4.995  0.00  0.00    +0.112 C 
ATOM     17  C   UNL     1      -3.376  -5.935  -4.714  0.00  0.00    +0.048 C 
ATOM     18  C   UNL     1      -3.221  -6.676  -6.073  0.00  0.00    +0.168 C 
ATOM     19  S   UNL     1      -4.782  -6.172  -6.912  0.00  0.00    -0.029 S 
ATOM     20  O   UNL     1      -4.488  -5.808  -8.254  0.00  0.00    -0.174 OA
ATOM     21  O   UNL     1      -5.781  -7.148  -6.656  0.00  0.00    -0.174 OA
ATOM     22  C   UNL     1      -5.168  -4.653  -5.951  0.00  0.00    +0.189 C 
ENDBRANCH  14  16
ENDBRANCH   8  14
BRANCH   9  23
ATOM     23  O   UNL     1      -6.338  -3.443  -1.748  0.00  0.00    -0.491 OA
ATOM     24  H   UNL     1      -7.121  -3.391  -1.183  0.00  0.00    +0.294 HD
ENDBRANCH   9  23
TORSDOF 4
