REMARK  Name = ZINC63985714
REMARK  12 active torsions:
REMARK  status: ('A' for Active; 'I' for Inactive)
REMARK    1  A    between atoms: C_1  and  O_2
REMARK    2  A    between atoms: O_2  and  C_3
REMARK    3  A    between atoms: C_3  and  C_4
REMARK    4  A    between atoms: N_6  and  C_7
REMARK    5  A    between atoms: C_11  and  N_33
REMARK    6  A    between atoms: N_15  and  C_22
REMARK    7  A    between atoms: C_16  and  C_18
REMARK    8  A    between atoms: C_18  and  O_20
REMARK    9  A    between atoms: O_20  and  C_21
REMARK   10  A    between atoms: C_22  and  C_23
REMARK   11  A    between atoms: C_23  and  C_24
REMARK   12  A    between atoms: N_33  and  C_34
REMARK                            x       y       z     vdW  Elec       q    Type
REMARK                         _______ _______ _______ _____ _____    ______ ____
ROOT
ATOM      1  C   UNL     1      -2.120  -4.341  -0.001  0.00  0.00    +0.138 C 
ATOM      2  C   UNL     1      -2.039  -4.855  -1.420  0.00  0.00    +0.015 A 
ATOM      3  C   UNL     1      -1.123  -4.613  -2.425  0.00  0.00    +0.033 A 
ATOM      4  C   UNL     1      -1.307  -5.239  -3.657  0.00  0.00    +0.044 A 
ATOM      5  C   UNL     1      -2.400  -6.077  -3.822  0.00  0.00    +0.107 A 
ATOM      6  N   UNL     1      -3.252  -6.282  -2.840  0.00  0.00    -0.348 N 
ATOM      7  C   UNL     1      -3.113  -5.704  -1.647  0.00  0.00    +0.105 A 
ATOM      8  N   UNL     1      -3.921  -5.819  -0.518  0.00  0.00    -0.301 N 
ATOM      9  C   UNL     1      -3.383  -5.002   0.577  0.00  0.00    +0.208 C 
ATOM     10  H   UNL     1      -4.006  -6.873  -2.989  0.00  0.00    +0.167 HD
ENDROOT
BRANCH   1  13
ATOM     11  C   UNL     1      -1.156  -2.103   0.002  0.00  0.00    +0.239 C 
ATOM     12  O   UNL     1      -0.054  -2.610  -0.011  0.00  0.00    -0.273 OA
ATOM     13  N   UNL     1      -2.256  -2.882   0.008  0.00  0.00    -0.304 N 
ATOM     14  H   UNL     1      -3.137  -2.477   0.019  0.00  0.00    +0.149 HD
BRANCH  11  15
ATOM     15  C   UNL     1      -1.295  -0.603   0.011  0.00  0.00    +0.255 C 
BRANCH  15  17
ATOM     16  C   UNL     1      -0.017   1.425   0.010  0.00  0.00    +0.194 C 
ATOM     17  O   UNL     1       0.002  -0.004   0.002  0.00  0.00    -0.374 OA
ENDBRANCH  15  17
ENDBRANCH  11  15
ENDBRANCH   1  13
BRANCH   9  18
ATOM     18  C   UNL     1      -4.383  -3.950   0.985  0.00  0.00    +0.330 C 
ATOM     19  O   UNL     1      -5.314  -3.688   0.261  0.00  0.00    -0.249 OA
BRANCH  18  20
ATOM     20  O   UNL     1      -4.239  -3.305   2.153  0.00  0.00    -0.467 OA
ATOM     21  C   UNL     1      -5.223  -2.321   2.476  0.00  0.00    +0.280 C 
ENDBRANCH  18  20
ENDBRANCH   9  18
BRANCH   4  22
ATOM     22  N   UNL     1      -0.407  -5.026  -4.708  0.00  0.00    -0.340 N 
ATOM     23  H   UNL     1       0.355  -4.438  -4.582  0.00  0.00    +0.146 HD
BRANCH  22  24
ATOM     24  C   UNL     1      -0.614  -5.691  -5.997  0.00  0.00    +0.070 C 
ATOM     25  C   UNL     1       0.059  -7.079  -5.990  0.00  0.00    +0.022 C 
ATOM     26  C   UNL     1       0.619  -7.237  -7.425  0.00  0.00    +0.002 C 
ATOM     27  C   UNL     1       1.115  -5.807  -7.758  0.00  0.00    +0.002 C 
ATOM     28  C   UNL     1       0.057  -4.883  -7.121  0.00  0.00    +0.022 C 
ENDBRANCH  22  24
ENDBRANCH   4  22
BRANCH   8  29
ATOM     29  C   UNL     1      -5.132  -6.639  -0.434  0.00  0.00    +0.112 C 
BRANCH  29  30
ATOM     30  C   UNL     1      -4.764  -8.044   0.046  0.00  0.00    +0.052 C 
BRANCH  30  31
ATOM     31  C   UNL     1      -6.010  -8.888   0.132  0.00  0.00    -0.040 C 
ATOM     32  C   UNL     1      -6.488  -9.732  -0.810  0.00  0.00    -0.001 A 
ATOM     33  C   UNL     1      -6.009 -10.102  -2.147  0.00  0.00    +0.010 A 
ATOM     34  C   UNL     1      -6.718 -10.996  -2.874  0.00  0.00    +0.001 A 
ATOM     35  C   UNL     1      -7.896 -11.575  -2.383  0.00  0.00    +0.002 A 
ATOM     36  C   UNL     1      -8.399 -11.284  -1.165  0.00  0.00    +0.026 A 
ATOM     37  C   UNL     1      -7.734 -10.358  -0.315  0.00  0.00    +0.043 A 
ATOM     38  N   UNL     1      -8.017  -9.918   0.887  0.00  0.00    -0.380 N 
ATOM     39  C   UNL     1      -6.976  -8.966   1.293  0.00  0.00    +0.144 C 
ATOM     40  H   UNL     1      -8.783 -10.180   1.420  0.00  0.00    +0.160 HD
ENDBRANCH  30  31
ENDBRANCH  29  30
ENDBRANCH   8  29
TORSDOF 10
