REMARK  Name = ZINC56722749
REMARK  8 active torsions:
REMARK  status: ('A' for Active; 'I' for Inactive)
REMARK    1  A    between atoms: C_1  and  N_2
REMARK    2  A    between atoms: N_2  and  C_3
REMARK    3  A    between atoms: N_2  and  C_4
REMARK    4  A    between atoms: C_7  and  N_11
REMARK    5  A    between atoms: N_14  and  C_15
REMARK    6  A    between atoms: C_15  and  C_16
REMARK    7  A    between atoms: N_18  and  C_19
REMARK    8  A    between atoms: C_19  and  C_20
REMARK                            x       y       z     vdW  Elec       q    Type
REMARK                         _______ _______ _______ _____ _____    ______ ____
ROOT
ATOM      1  N   UNL     1      -4.790  -2.856   0.033  0.00  0.00    -0.269 N 
ATOM      2  C   UNL     1      -5.429  -3.112  -1.126  0.00  0.00    +0.304 C 
ATOM      3  O   UNL     1      -4.917  -2.801  -2.184  0.00  0.00    -0.252 OA
ATOM      4  N   UNL     1      -6.636  -3.712  -1.112  0.00  0.00    -0.291 N 
ATOM      5  H   UNL     1      -5.160  -3.172   0.871  0.00  0.00    +0.156 HD
ATOM      6  H   UNL     1      -7.044  -3.960  -0.267  0.00  0.00    +0.151 HD
ENDROOT
BRANCH   1  10
ATOM      7  C   UNL     1      -1.213  -0.705   0.011  0.00  0.00    +0.101 A 
ATOM      8  C   UNL     1      -2.201  -0.420  -0.924  0.00  0.00    +0.149 A 
ATOM      9  C   UNL     1      -3.386  -1.134  -0.916  0.00  0.00    +0.063 A 
ATOM     10  C   UNL     1      -3.588  -2.134   0.025  0.00  0.00    +0.040 A 
ATOM     11  C   UNL     1      -2.602  -2.418   0.960  0.00  0.00    +0.063 A 
ATOM     12  C   UNL     1      -1.415  -1.710   0.950  0.00  0.00    +0.149 A 
ATOM     13  F   UNL     1      -0.453  -1.990   1.857  0.00  0.00    -0.203 F 
ATOM     14  F   UNL     1      -2.004   0.553  -1.840  0.00  0.00    -0.203 F 
BRANCH   7  16
ATOM     15  C   UNL     1       1.121  -0.452  -0.798  0.00  0.00    +0.129 C 
ATOM     16  N   UNL     1      -0.011   0.018   0.004  0.00  0.00    -0.332 N 
ATOM     17  C   UNL     1       0.112   1.243   0.799  0.00  0.00    +0.129 C 
ENDBRANCH   7  16
ENDBRANCH   1  10
BRANCH   4  18
ATOM     18  C   UNL     1      -7.331  -3.990  -2.371  0.00  0.00    +0.201 C 
BRANCH  18  19
ATOM     19  C   UNL     1      -8.649  -4.660  -2.080  0.00  0.00    +0.231 C 
ATOM     20  O   UNL     1      -8.975  -4.884  -0.933  0.00  0.00    -0.274 OA
ATOM     21  N   UNL     1      -9.465  -5.011  -3.094  0.00  0.00    -0.305 N 
ATOM     22  H   UNL     1      -9.203  -4.832  -4.011  0.00  0.00    +0.149 HD
BRANCH  21  23
ATOM     23  C   UNL     1     -10.746  -5.663  -2.811  0.00  0.00    +0.217 C 
BRANCH  23  24
ATOM     24  C   UNL     1     -11.472  -5.953  -4.126  0.00  0.00    +0.405 C 
ATOM     25  F   UNL     1     -10.684  -6.796  -4.917  0.00  0.00    -0.169 F 
ATOM     26  F   UNL     1     -12.695  -6.575  -3.856  0.00  0.00    -0.169 F 
ATOM     27  F   UNL     1     -11.699  -4.753  -4.808  0.00  0.00    -0.169 F 
ENDBRANCH  23  24
ENDBRANCH  21  23
ENDBRANCH  18  19
ENDBRANCH   4  18
TORSDOF 6
