REMARK  Name = ZINC14151796
REMARK  12 active torsions:
REMARK  status: ('A' for Active; 'I' for Inactive)
REMARK    1  A    between atoms: C_1  and  C_2
REMARK    2  A    between atoms: C_2  and  O_3
REMARK    3  A    between atoms: O_3  and  C_4
REMARK    4  A    between atoms: C_7  and  N_13
REMARK    5  A    between atoms: C_8  and  N_10
REMARK    6  A    between atoms: C_14  and  C_16
REMARK    7  A    between atoms: C_16  and  O_17
REMARK    8  A    between atoms: O_17  and  C_18
REMARK    9  A    between atoms: C_18  and  C_20
REMARK   10  A    between atoms: C_21  and  N_31
REMARK   11  A    between atoms: C_23  and  C_30
REMARK   12  A    between atoms: C_25  and  C_29
REMARK                            x       y       z     vdW  Elec       q    Type
REMARK                         _______ _______ _______ _____ _____    ______ ____
ROOT
ATOM      1  O   UNL     1       0.364  -9.039   1.050  0.00  0.00    -0.451 OA
ENDROOT
BRANCH   1   2
ATOM      2  C   UNL     1       0.308 -10.335   0.676  0.00  0.00    +0.348 C 
ATOM      3  O   UNL     1      -0.737 -10.952   0.772  0.00  0.00    -0.244 OA
BRANCH   2   4
ATOM      4  C   UNL     1       1.464 -10.976   0.173  0.00  0.00    +0.119 A 
ATOM      5  C   UNL     1       1.600 -12.278  -0.259  0.00  0.00    +0.055 A 
ATOM      6  C   UNL     1       2.902 -12.714  -0.739  0.00  0.00    +0.030 A 
ATOM      7  C   UNL     1       3.283 -13.988  -1.228  0.00  0.00    -0.037 A 
ATOM      8  C   UNL     1       4.582 -14.185  -1.634  0.00  0.00    +0.025 A 
ATOM      9  C   UNL     1       5.503 -13.150  -1.565  0.00  0.00    +0.014 A 
ATOM     10  N   UNL     1       5.145 -11.966  -1.108  0.00  0.00    -0.353 N 
ATOM     11  C   UNL     1       3.914 -11.728  -0.709  0.00  0.00    +0.088 A 
ATOM     12  S   UNL     1       3.094 -10.293  -0.060  0.00  0.00    -0.062 S 
ATOM     13  C   UNL     1       6.924 -13.381  -2.013  0.00  0.00    +0.063 C 
ATOM     14  C   UNL     1       2.281 -15.111  -1.302  0.00  0.00    +0.044 C 
ATOM     15  H   UNL     1       5.803 -11.255  -1.066  0.00  0.00    +0.166 HD
BRANCH   5  16
ATOM     16  N   UNL     1       0.522 -13.151  -0.237  0.00  0.00    -0.356 N 
ATOM     17  H   UNL     1      -0.308 -12.886   0.192  0.00  0.00    +0.142 HD
ATOM     18  H   UNL     1       0.597 -14.025  -0.649  0.00  0.00    +0.142 HD
ENDBRANCH   5  16
ENDBRANCH   2   4
ENDBRANCH   1   2
BRANCH   1  19
ATOM     19  C   UNL     1      -0.841  -8.455   1.549  0.00  0.00    +0.328 C 
BRANCH  19  21
ATOM     20  N   UNL     1      -1.589  -6.259   2.407  0.00  0.00    -0.281 N 
ATOM     21  C   UNL     1      -0.589  -7.015   1.912  0.00  0.00    +0.255 C 
ATOM     22  O   UNL     1       0.515  -6.535   1.759  0.00  0.00    -0.272 OA
ATOM     23  H   UNL     1      -2.439  -6.668   2.633  0.00  0.00    +0.155 HD
BRANCH  20  27
ATOM     24  C   UNL     1      -1.029  -2.166   2.970  0.00  0.00    +0.123 A 
ATOM     25  C   UNL     1      -0.324  -2.832   1.978  0.00  0.00    +0.047 A 
ATOM     26  C   UNL     1      -0.508  -4.188   1.792  0.00  0.00    +0.029 A 
ATOM     27  C   UNL     1      -1.401  -4.884   2.597  0.00  0.00    +0.064 A 
ATOM     28  C   UNL     1      -2.106  -4.216   3.588  0.00  0.00    +0.151 A 
ATOM     29  C   UNL     1      -1.917  -2.861   3.777  0.00  0.00    +0.080 A 
BRANCH  28  30
ATOM     30  N   UNL     1      -3.057  -4.957   4.447  0.00  0.00    +0.058 N 
ATOM     31  O   UNL     1      -3.775  -4.357   5.212  0.00  0.00    -0.126 OA
ATOM     32  O   UNL     1      -3.116  -6.163   4.383  0.00  0.00    -0.126 OA
ENDBRANCH  28  30
BRANCH  24  33
ATOM     33  O   UNL     1      -0.847  -0.831   3.153  0.00  0.00    -0.492 OA
BRANCH  33  35
ATOM     34  C   UNL     1       0.153   1.309   2.640  0.00  0.00    +0.048 C 
ATOM     35  C   UNL     1       0.082  -0.178   2.285  0.00  0.00    +0.225 C 
ENDBRANCH  33  35
ENDBRANCH  24  33
ENDBRANCH  20  27
ENDBRANCH  19  21
ENDBRANCH   1  19
TORSDOF 9
