REMARK  Name = ZINC11443479
REMARK  11 active torsions:
REMARK  status: ('A' for Active; 'I' for Inactive)
REMARK    1  A    between atoms: C_1  and  C_2
REMARK    2  A    between atoms: C_2  and  C_3
REMARK    3  A    between atoms: C_3  and  C_4
REMARK    4  A    between atoms: C_6  and  O_32
REMARK    5  A    between atoms: C_8  and  S_10
REMARK    6  A    between atoms: S_10  and  C_11
REMARK    7  A    between atoms: C_11  and  C_13
REMARK    8  A    between atoms: C_11  and  C_14
REMARK    9  A    between atoms: N_16  and  C_17
REMARK   10  A    between atoms: C_20  and  S_23
REMARK   11  A    between atoms: S_23  and  N_26
REMARK                            x       y       z     vdW  Elec       q    Type
REMARK                         _______ _______ _______ _____ _____    ______ ____
ROOT
ATOM      1  C   UNL     1       0.001   1.079   2.487  0.00  0.00    +0.230 C 
ATOM      2  O   UNL     1       0.765   1.812   3.079  0.00  0.00    -0.274 OA
ATOM      3  N   UNL     1      -0.190  -0.184   2.916  0.00  0.00    -0.285 N 
ATOM      4  H   UNL     1      -0.849  -0.748   2.484  0.00  0.00    +0.155 HD
ENDROOT
BRANCH   3   5
ATOM      5  C   UNL     1       0.564  -0.681   3.985  0.00  0.00    +0.034 A 
ATOM      6  C   UNL     1       0.948  -2.015   4.005  0.00  0.00    +0.025 A 
ATOM      7  C   UNL     1       1.697  -2.501   5.059  0.00  0.00    +0.030 A 
ATOM      8  C   UNL     1       2.055  -1.663   6.099  0.00  0.00    +0.106 A 
ATOM      9  C   UNL     1       1.668  -0.335   6.085  0.00  0.00    +0.030 A 
ATOM     10  C   UNL     1       0.924   0.158   5.032  0.00  0.00    +0.025 A 
BRANCH   8  11
ATOM     11  S   UNL     1       3.004  -2.289   7.445  0.00  0.00    +0.061 S 
ATOM     12  O   UNL     1       3.702  -3.426   6.956  0.00  0.00    -0.153 OA
ATOM     13  O   UNL     1       3.672  -1.175   8.023  0.00  0.00    -0.153 OA
BRANCH  11  14
ATOM     14  N   UNL     1       1.936  -2.842   8.582  0.00  0.00    -0.177 NA
ATOM     15  C   UNL     1       1.442  -1.952   9.642  0.00  0.00    +0.109 C 
ATOM     16  C   UNL     1      -0.094  -1.982   9.629  0.00  0.00    +0.017 C 
ATOM     17  C   UNL     1      -0.571  -3.431   9.752  0.00  0.00    +0.003 C 
ATOM     18  C   UNL     1      -0.064  -4.241   8.557  0.00  0.00    +0.017 C 
ATOM     19  C   UNL     1       1.468  -4.235   8.555  0.00  0.00    +0.109 C 
ENDBRANCH  11  14
ENDBRANCH   8  11
ENDBRANCH   3   5
BRANCH   1  20
ATOM     20  C   UNL     1      -0.734   1.581   1.271  0.00  0.00    +0.137 C 
ATOM     21  C   UNL     1      -0.028   1.086   0.007  0.00  0.00    +0.029 C 
BRANCH  20  22
ATOM     22  S   UNL     1      -0.753   3.391   1.281  0.00  0.00    -0.073 S 
BRANCH  22  27
ATOM     23  C   UNL     1      -2.807   5.212  -1.516  0.00  0.00    +0.049 A 
ATOM     24  C   UNL     1      -3.328   4.167  -2.256  0.00  0.00    +0.090 A 
ATOM     25  C   UNL     1      -3.027   2.862  -1.868  0.00  0.00    +0.216 A 
ATOM     26  N   UNL     1      -2.255   2.666  -0.806  0.00  0.00    -0.187 NA
ATOM     27  C   UNL     1      -1.774   3.695  -0.122  0.00  0.00    +0.192 A 
ATOM     28  N   UNL     1      -2.047   4.946  -0.465  0.00  0.00    -0.227 NA
BRANCH  25  29
ATOM     29  O   UNL     1      -3.517   1.808  -2.565  0.00  0.00    -0.492 OA
ATOM     30  H   UNL     1      -4.374   1.491  -2.249  0.00  0.00    +0.294 HD
ENDBRANCH  25  29
BRANCH  23  31
ATOM     31  C   UNL     1      -3.106   6.639  -1.898  0.00  0.00    +0.055 C 
BRANCH  31  33
ATOM     32  C   UNL     1      -4.009   8.822  -1.086  0.00  0.00    +0.004 C 
ATOM     33  C   UNL     1      -3.705   7.373  -0.698  0.00  0.00    +0.003 C 
ENDBRANCH  31  33
ENDBRANCH  23  31
ENDBRANCH  22  27
ENDBRANCH  20  22
ENDBRANCH   1  20
TORSDOF 9
