REMARK  Name = ZINC03312548
REMARK  6 active torsions:
REMARK  status: ('A' for Active; 'I' for Inactive)
REMARK    1  A    between atoms: C_1  and  C_2
REMARK    2  A    between atoms: C_9  and  N_14
REMARK    3  A    between atoms: C_10  and  C_11
REMARK    4  A    between atoms: C_15  and  C_17
REMARK    5  A    between atoms: C_17  and  S_18
REMARK    6  A    between atoms: S_18  and  C_19
REMARK                            x       y       z     vdW  Elec       q    Type
REMARK                         _______ _______ _______ _____ _____    ______ ____
ROOT
ATOM      1  N   UNL     1       4.609   0.894   4.420  0.00  0.00    -0.279 N 
ATOM      2  C   UNL     1       5.894   1.103   4.068  0.00  0.00    +0.228 C 
ATOM      3  O   UNL     1       6.168   1.399   2.924  0.00  0.00    -0.275 OA
ATOM      4  H   UNL     1       4.390   0.657   5.334  0.00  0.00    +0.155 HD
ENDROOT
BRANCH   1  12
ATOM      5  C   UNL     1      -0.758   1.595  -1.227  0.00  0.00    +0.008 C 
ATOM      6  C   UNL     1      -0.013   1.086   0.008  0.00  0.00    -0.009 C 
ATOM      7  C   UNL     1      -0.714   1.583   1.276  0.00  0.00    +0.008 C 
ATOM      8  C   UNL     1      -0.129   0.881   2.503  0.00  0.00    +0.037 C 
ATOM      9  C   UNL     1       1.387   1.034   2.479  0.00  0.00    -0.023 A 
ATOM     10  C   UNL     1       2.035   1.365   1.342  0.00  0.00    -0.004 A 
ATOM     11  S   UNL     1       3.745   1.426   1.797  0.00  0.00    -0.077 S 
ATOM     12  C   UNL     1       3.602   1.017   3.475  0.00  0.00    +0.084 A 
ATOM     13  C   UNL     1       2.236   0.844   3.643  0.00  0.00    +0.068 A 
ATOM     14  C   UNL     1       1.427   1.620  -0.003  0.00  0.00    +0.046 C 
BRANCH  13  15
ATOM     15  C   UNL     1       1.670   0.482   4.946  0.00  0.00    +0.244 C 
ATOM     16  O   UNL     1       1.336   1.354   5.727  0.00  0.00    -0.270 OA
ATOM     17  N   UNL     1       1.521  -0.815   5.280  0.00  0.00    -0.325 N 
ATOM     18  H   UNL     1       1.787  -1.509   4.657  0.00  0.00    +0.145 HD
ATOM     19  H   UNL     1       1.147  -1.054   6.142  0.00  0.00    +0.145 HD
ENDBRANCH  13  15
ENDBRANCH   1  12
BRANCH   2  20
ATOM     20  C   UNL     1       6.988   0.969   5.095  0.00  0.00    +0.172 C 
BRANCH  20  21
ATOM     21  S   UNL     1       8.588   1.309   4.320  0.00  0.00    -0.096 S 
BRANCH  21  22
ATOM     22  C   UNL     1       9.653   1.087   5.706  0.00  0.00    +0.109 A 
ATOM     23  C   UNL     1      11.059   1.252   5.570  0.00  0.00    +0.043 A 
ATOM     24  C   UNL     1      11.826   1.614   4.367  0.00  0.00    -0.025 A 
ATOM     25  C   UNL     1      13.158   1.717   4.504  0.00  0.00    -0.004 A 
ATOM     26  S   UNL     1      13.477   1.349   6.214  0.00  0.00    -0.073 S 
ATOM     27  C   UNL     1      11.811   1.058   6.743  0.00  0.00    +0.113 A 
ATOM     28  N   UNL     1      11.234   0.732   7.885  0.00  0.00    -0.228 NA
ATOM     29  C   UNL     1       9.925   0.586   7.950  0.00  0.00    +0.223 A 
ATOM     30  N   UNL     1       9.157   0.760   6.890  0.00  0.00    -0.229 NA
ATOM     31  C   UNL     1      13.835   2.090   3.212  0.00  0.00    +0.043 C 
ATOM     32  C   UNL     1      12.697   2.636   2.322  0.00  0.00    +0.010 C 
ATOM     33  C   UNL     1      11.467   1.916   2.909  0.00  0.00    +0.037 C 
ENDBRANCH  21  22
ENDBRANCH  20  21
ENDBRANCH   2  20
TORSDOF 5
