REMARK  Name = ZINC12642575
REMARK  13 active torsions:
REMARK  status: ('A' for Active; 'I' for Inactive)
REMARK    1  A    between atoms: C_1  and  C_2
REMARK    2  A    between atoms: C_2  and  C_3
REMARK    3  A    between atoms: C_2  and  C_4
REMARK    4  A    between atoms: C_2  and  N_5
REMARK    5  A    between atoms: C_6  and  C_10
REMARK    6  A    between atoms: C_10  and  C_12
REMARK    7  A    between atoms: C_10  and  N_64
REMARK    8  A    between atoms: C_19  and  C_20
REMARK    9  A    between atoms: C_19  and  N_64
REMARK   10  A    between atoms: C_23  and  O_26
REMARK   11  A    between atoms: O_26  and  C_27
REMARK   12  A    between atoms: C_28  and  C_29
REMARK   13  A    between atoms: C_28  and  N_64
REMARK                            x       y       z     vdW  Elec       q    Type
REMARK                         _______ _______ _______ _____ _____    ______ ____
ROOT
ATOM      1  N   UNL     1       1.889   1.687  -2.197  0.00  0.00    +0.394 N 
ATOM      2  H   UNL     1       2.004   2.540  -2.756  0.00  0.00    -0.079 HD
ENDROOT
BRANCH   1   3
ATOM      3  C   UNL     1       0.869   0.829  -2.834  0.00  0.00    +0.034 C 
BRANCH   3   4
ATOM      4  C   UNL     1      -0.405   1.619  -2.990  0.00  0.00    -0.053 A 
ATOM      5  C   UNL     1      -1.565   1.188  -2.375  0.00  0.00    +0.005 A 
ATOM      6  C   UNL     1      -2.732   1.915  -2.513  0.00  0.00    +0.038 A 
ATOM      7  C   UNL     1      -2.742   3.070  -3.277  0.00  0.00    +0.123 A 
ATOM      8  C   UNL     1      -1.580   3.497  -3.898  0.00  0.00    +0.038 A 
ATOM      9  C   UNL     1      -0.413   2.772  -3.754  0.00  0.00    +0.005 A 
ATOM     10  F   UNL     1      -3.884   3.778  -3.418  0.00  0.00    -0.205 F 
ENDBRANCH   3   4
BRANCH   3  12
ATOM     11  N   UNL     1       1.410  -0.855  -4.672  0.00  0.00    -0.225 N 
ATOM     12  C   UNL     1       1.365   0.402  -4.191  0.00  0.00    +0.143 A 
ATOM     13  N   UNL     1       1.830   1.183  -5.136  0.00  0.00    -0.115 NA
ATOM     14  N   UNL     1       2.152   0.444  -6.141  0.00  0.00    -0.023 NA
ATOM     15  N   UNL     1       1.897  -0.788  -5.865  0.00  0.00    -0.043 NA
BRANCH  11  17
ATOM     16  C   UNL     1      -0.463  -1.912  -3.508  0.00  0.00    +0.036 C 
ATOM     17  C   UNL     1       0.987  -2.070  -3.972  0.00  0.00    +0.059 C 
ATOM     18  C   UNL     1       1.092  -3.267  -4.919  0.00  0.00    +0.036 C 
ATOM     19  C   UNL     1       1.889  -2.300  -2.758  0.00  0.00    +0.036 C 
ENDBRANCH  11  17
ENDBRANCH   3  12
ENDBRANCH   1   3
BRANCH   1  20
ATOM     20  C   UNL     1       3.183   0.974  -2.136  0.00  0.00    -0.041 C 
BRANCH  20  21
ATOM     21  C   UNL     1       4.288   1.991  -2.018  0.00  0.00    -0.064 A 
ATOM     22  C   UNL     1       4.739   2.655  -3.145  0.00  0.00    +0.005 A 
ATOM     23  C   UNL     1       5.748   3.592  -3.039  0.00  0.00    +0.046 A 
ATOM     24  C   UNL     1       6.318   3.859  -1.802  0.00  0.00    +0.120 A 
ATOM     25  C   UNL     1       5.868   3.187  -0.674  0.00  0.00    +0.046 A 
ATOM     26  C   UNL     1       4.854   2.255  -0.785  0.00  0.00    +0.005 A 
BRANCH  24  27
ATOM     27  O   UNL     1       7.315   4.776  -1.696  0.00  0.00    -0.495 OA
ATOM     28  C   UNL     1       7.727   5.428  -2.898  0.00  0.00    +0.277 C 
ENDBRANCH  24  27
ENDBRANCH  20  21
ENDBRANCH   1  20
BRANCH   1  29
ATOM     29  C   UNL     1       1.455   2.062  -0.834  0.00  0.00    -0.040 C 
BRANCH  29  30
ATOM     30  C   UNL     1       2.321   3.194  -0.344  0.00  0.00    -0.046 A 
ATOM     31  C   UNL     1       2.984   3.084   0.864  0.00  0.00    +0.003 A 
ATOM     32  C   UNL     1       3.778   4.122   1.313  0.00  0.00    +0.000 A 
ATOM     33  C   UNL     1       3.910   5.271   0.555  0.00  0.00    +0.001 A 
ATOM     34  C   UNL     1       3.251   5.380  -0.656  0.00  0.00    +0.020 A 
ATOM     35  C   UNL     1       2.452   4.343  -1.103  0.00  0.00    +0.042 A 
ATOM     36 CL   UNL     1       1.620   4.481  -2.621  0.00  0.00    -0.083 Cl
ENDBRANCH  29  30
ENDBRANCH   1  29
TORSDOF 9
