REMARK  Name = ZINC05491311
REMARK  3 active torsions:
REMARK  status: ('A' for Active; 'I' for Inactive)
REMARK    1  A    between atoms: C_8  and  C_11
REMARK    2  A    between atoms: C_11  and  C_12
REMARK    3  A    between atoms: N_18  and  C_19
REMARK                            x       y       z     vdW  Elec       q    Type
REMARK                         _______ _______ _______ _____ _____    ______ ____
ROOT
ATOM      1  C   UNL     1      -3.636   6.330  -1.096  0.00  0.00    +0.144 A 
ATOM      2  N   UNL     1      -4.824   5.818  -1.065  0.00  0.00    -0.158 NA
ATOM      3  N   UNL     1      -5.401   5.978  -2.333  0.00  0.00    -0.254 N 
ATOM      4  H   UNL     1      -6.287   5.689  -2.602  0.00  0.00    +0.191 HD
ATOM      5  C   UNL     1      -4.495   6.607  -3.110  0.00  0.00    +0.180 A 
ATOM      6  S   UNL     1      -4.699   7.045  -4.752  0.00  0.00    -0.011 S 
ATOM      7  N   UNL     1      -3.403   6.835  -2.353  0.00  0.00    -0.275 N 
ENDROOT
BRANCH   7   8
ATOM      8  C   UNL     1      -2.229   7.473  -2.777  0.00  0.00    +0.050 A 
ATOM      9  C   UNL     1      -1.859   8.690  -2.220  0.00  0.00    +0.028 A 
ATOM     10  C   UNL     1      -0.699   9.314  -2.634  0.00  0.00    +0.022 A 
ATOM     11  C   UNL     1       0.088   8.733  -3.613  0.00  0.00    +0.041 A 
ATOM     12  C   UNL     1      -0.281   7.523  -4.174  0.00  0.00    +0.022 A 
ATOM     13  C   UNL     1      -1.437   6.892  -3.758  0.00  0.00    +0.028 A 
ATOM     14 CL   UNL     1       1.542   9.524  -4.138  0.00  0.00    -0.084 Cl
ENDBRANCH   7   8
BRANCH   1  15
ATOM     15  C   UNL     1      -2.669   6.372   0.059  0.00  0.00    +0.150 C 
BRANCH  15  23
ATOM     16  C   UNL     1       1.187   1.770   0.000  0.00  0.00    +0.022 A 
ATOM     17  C   UNL     1       1.172   3.155   0.007  0.00  0.00    +0.031 A 
ATOM     18  C   UNL     1      -0.058   3.798   0.022  0.00  0.00    +0.085 A 
ATOM     19  C   UNL     1      -1.238   3.033   0.029  0.00  0.00    +0.178 A 
ATOM     20  N   UNL     1      -1.168   1.704   0.017  0.00  0.00    -0.234 NA
ATOM     21  C   UNL     1      -0.013   1.076   0.008  0.00  0.00    +0.113 A 
ATOM     22  N   UNL     1      -2.273   3.910   0.043  0.00  0.00    -0.213 NA
ATOM     23  C   UNL     1      -1.815   5.130   0.045  0.00  0.00    +0.117 A 
ATOM     24  N   UNL     1      -0.457   5.119   0.033  0.00  0.00    -0.340 N 
ATOM     25  H   UNL     1       0.143   5.919   0.031  0.00  0.00    +0.167 HD
ENDBRANCH  15  23
ENDBRANCH   1  15
TORSDOF 3
