REMARK  Name = ZINC59587412
REMARK  11 active torsions:
REMARK  status: ('A' for Active; 'I' for Inactive)
REMARK    1  A    between atoms: C_1  and  C_2
REMARK    2  A    between atoms: C_2  and  O_3
REMARK    3  A    between atoms: O_3  and  C_4
REMARK    4  A    between atoms: C_6  and  C_20
REMARK    5  A    between atoms: C_9  and  O_10
REMARK    6  A    between atoms: O_10  and  C_11
REMARK    7  A    between atoms: C_11  and  C_12
REMARK    8  A    between atoms: C_20  and  N_21
REMARK    9  A    between atoms: N_21  and  C_22
REMARK   10  A    between atoms: N_25  and  C_28
REMARK   11  A    between atoms: C_28  and  C_29
REMARK                            x       y       z     vdW  Elec       q    Type
REMARK                         _______ _______ _______ _____ _____    ______ ____
ROOT
ATOM      1  C   UNL     1       0.802  -1.825   1.306  0.00  0.00    +0.163 A 
ATOM      2  C   UNL     1       0.260  -2.673   0.352  0.00  0.00    +0.054 A 
ATOM      3  C   UNL     1       0.371  -4.043   0.502  0.00  0.00    -0.029 A 
ATOM      4  C   UNL     1       1.022  -4.571   1.602  0.00  0.00    +0.024 A 
ATOM      5  C   UNL     1       1.565  -3.730   2.557  0.00  0.00    +0.063 A 
ATOM      6  C   UNL     1       1.462  -2.356   2.409  0.00  0.00    +0.176 A 
ATOM      7 BR   UNL     1       2.453  -4.456   4.061  0.00  0.00    -0.046 Br
ENDROOT
BRANCH   1   8
ATOM      8  O   UNL     1       0.693  -0.477   1.160  0.00  0.00    -0.489 OA
BRANCH   8  10
ATOM      9  C   UNL     1      -0.019   1.526   0.010  0.00  0.00    +0.048 C 
ATOM     10  C   UNL     1       0.002  -0.004   0.002  0.00  0.00    +0.226 C 
ENDBRANCH   8  10
ENDBRANCH   1   8
BRANCH   6  11
ATOM     11  O   UNL     1       2.000  -1.528   3.345  0.00  0.00    -0.483 OA
BRANCH  11  12
ATOM     12  C   UNL     1       1.161  -1.151   4.438  0.00  0.00    +0.264 C 
BRANCH  12  13
ATOM     13  C   UNL     1       1.922  -0.238   5.365  0.00  0.00    -0.010 A 
ATOM     14  C   UNL     1       2.657  -0.771   6.407  0.00  0.00    +0.010 A 
ATOM     15  C   UNL     1       3.356   0.065   7.258  0.00  0.00    +0.039 A 
ATOM     16  C   UNL     1       3.319   1.436   7.066  0.00  0.00    +0.123 A 
ATOM     17  C   UNL     1       2.582   1.968   6.021  0.00  0.00    +0.039 A 
ATOM     18  C   UNL     1       1.888   1.129   5.169  0.00  0.00    +0.010 A 
ATOM     19  F   UNL     1       4.001   2.254   7.897  0.00  0.00    -0.205 F 
ENDBRANCH  12  13
ENDBRANCH  11  12
ENDBRANCH   6  11
BRANCH   3  20
ATOM     20  C   UNL     1      -0.219  -4.963  -0.535  0.00  0.00    +0.116 C 
BRANCH  20  21
ATOM     21  N   UNL     1       0.785  -5.241  -1.571  0.00  0.00    -0.309 NA
ATOM     22  H   UNL     1       1.130  -4.385  -1.980  0.00  0.00    +0.123 HD
BRANCH  21  23
ATOM     23  C   UNL     1       0.244  -6.137  -2.602  0.00  0.00    +0.050 C 
ATOM     24  C   UNL     1       0.411  -7.592  -2.155  0.00  0.00    -0.000 C 
ATOM     25  C   UNL     1      -0.081  -8.521  -3.266  0.00  0.00    -0.077 C 
ATOM     26  N   UNL     1       0.702  -8.289  -4.486  0.00  0.00    +0.382 N 
ATOM     27  C   UNL     1       0.489  -6.916  -4.960  0.00  0.00    -0.077 C 
ATOM     28  C   UNL     1       1.004  -5.926  -3.914  0.00  0.00    -0.000 C 
ATOM     29  H   UNL     1       1.681  -8.427  -4.287  0.00  0.00    -0.081 HD
BRANCH  26  30
ATOM     30  C   UNL     1       0.278  -9.236  -5.526  0.00  0.00    -0.043 C 
BRANCH  30  31
ATOM     31  C   UNL     1       1.163  -9.082  -6.736  0.00  0.00    -0.064 A 
ATOM     32  C   UNL     1       0.822  -8.186  -7.731  0.00  0.00    +0.002 A 
ATOM     33  C   UNL     1       1.633  -8.045  -8.842  0.00  0.00    +0.000 A 
ATOM     34  C   UNL     1       2.785  -8.800  -8.956  0.00  0.00    +0.000 A 
ATOM     35  C   UNL     1       3.127  -9.695  -7.960  0.00  0.00    +0.000 A 
ATOM     36  C   UNL     1       2.317  -9.834  -6.848  0.00  0.00    +0.002 A 
ENDBRANCH  30  31
ENDBRANCH  26  30
ENDBRANCH  21  23
ENDBRANCH  20  21
ENDBRANCH   3  20
TORSDOF 10
