REMARK  Name = ZINC50377072
REMARK  5 active torsions:
REMARK  status: ('A' for Active; 'I' for Inactive)
REMARK    1  A    between atoms: C_1  and  O_2
REMARK    2  A    between atoms: O_2  and  C_3
REMARK    3  A    between atoms: C_8  and  N_10
REMARK    4  A    between atoms: C_11  and  C_15
REMARK    5  A    between atoms: C_17  and  N_23
REMARK                            x       y       z     vdW  Elec       q    Type
REMARK                         _______ _______ _______ _____ _____    ______ ____
ROOT
ATOM      1  N   UNL     1       2.790  -2.311  -1.056  0.00  0.00    -0.220 N 
ATOM      2  C   UNL     1       3.710  -2.016  -0.105  0.00  0.00    +0.182 A 
ATOM      3  N   UNL     1       4.774  -1.555  -0.727  0.00  0.00    -0.108 NA
ATOM      4  N   UNL     1       4.583  -1.542  -1.996  0.00  0.00    -0.023 NA
ATOM      5  N   UNL     1       3.408  -1.990  -2.278  0.00  0.00    -0.043 NA
ENDROOT
BRANCH   2   6
ATOM      6  C   UNL     1       3.548  -2.180   1.357  0.00  0.00    +0.024 A 
ATOM      7  C   UNL     1       2.290  -2.036   1.941  0.00  0.00    +0.036 A 
ATOM      8  C   UNL     1       2.144  -2.192   3.311  0.00  0.00    +0.045 A 
ATOM      9  C   UNL     1       3.251  -2.492   4.098  0.00  0.00    +0.080 A 
ATOM     10  C   UNL     1       4.499  -2.635   3.518  0.00  0.00    +0.062 A 
ATOM     11  C   UNL     1       4.651  -2.486   2.153  0.00  0.00    +0.033 A 
ATOM     12 CL   UNL     1       5.876  -3.008   4.508  0.00  0.00    -0.082 Cl
ATOM     13 CL   UNL     1       3.066  -2.687   5.814  0.00  0.00    -0.080 Cl
BRANCH   8  14
ATOM     14  N   UNL     1       0.885  -2.047   3.901  0.00  0.00    -0.357 N 
ATOM     15  H   UNL     1       0.113  -1.838   3.351  0.00  0.00    +0.142 HD
ATOM     16  H   UNL     1       0.783  -2.156   4.859  0.00  0.00    +0.142 HD
ENDBRANCH   8  14
ENDBRANCH   2   6
BRANCH   1  21
ATOM     17  C   UNL     1       0.389  -1.813  -1.271  0.00  0.00    +0.142 C 
ATOM     18  C   UNL     1      -0.430  -2.447  -2.414  0.00  0.00    +0.034 C 
ATOM     19  C   UNL     1       0.519  -3.514  -3.014  0.00  0.00    +0.005 C 
ATOM     20  C   UNL     1       1.228  -4.085  -1.761  0.00  0.00    +0.029 C 
ATOM     21  C   UNL     1       1.444  -2.853  -0.855  0.00  0.00    +0.140 C 
BRANCH  17  23
ATOM     22  C   UNL     1      -1.000  -0.188  -0.187  0.00  0.00    +0.194 C 
ATOM     23  O   UNL     1      -0.465  -1.513  -0.165  0.00  0.00    -0.378 OA
ENDBRANCH  17  23
ENDBRANCH   1  21
TORSDOF 4
