REMARK  Name = ZINC00875631
REMARK  7 active torsions:
REMARK  status: ('A' for Active; 'I' for Inactive)
REMARK    1  A    between atoms: C_1  and  C_2
REMARK    2  A    between atoms: C_3  and  O_29
REMARK    3  A    between atoms: C_11  and  C_13
REMARK    4  A    between atoms: C_16  and  O_19
REMARK    5  A    between atoms: O_19  and  C_20
REMARK    6  A    between atoms: C_22  and  C_27
REMARK    7  A    between atoms: C_22  and  C_28
REMARK                            x       y       z     vdW  Elec       q    Type
REMARK                         _______ _______ _______ _____ _____    ______ ____
ROOT
ATOM      1  C   UNL     1      -0.322   7.436   1.218  0.00  0.00    +0.051 C 
ATOM      2  C   UNL     1       0.543   7.197   0.007  0.00  0.00    +0.033 A 
ATOM      3  C   UNL     1       1.427   8.176  -0.416  0.00  0.00    +0.123 A 
ATOM      4  C   UNL     1       2.225   7.948  -1.527  0.00  0.00    +0.046 A 
ATOM      5  C   UNL     1       2.131   6.752  -2.212  0.00  0.00    +0.011 A 
ATOM      6  C   UNL     1       1.233   5.778  -1.807  0.00  0.00    +0.002 A 
ATOM      7  C   UNL     1       0.450   5.995  -0.685  0.00  0.00    +0.133 A 
ATOM      8  O   UNL     1      -0.414   5.054  -0.225  0.00  0.00    -0.468 OA
ATOM      9  C   UNL     1      -0.175   3.694  -0.619  0.00  0.00    +0.182 C 
ATOM     10  C   UNL     1      -0.063   3.670  -2.143  0.00  0.00    +0.081 C 
ATOM     11  C   UNL     1       1.143   4.495  -2.592  0.00  0.00    +0.058 C 
ATOM     12  C   UNL     1       1.097   3.196   0.046  0.00  0.00    +0.094 C 
ATOM     13  C   UNL     1       1.262   1.683  -0.001  0.00  0.00    +0.036 C 
ATOM     14  N   UNL     1      -0.011   0.973   0.007  0.00  0.00    -0.294 N 
ATOM     15  C   UNL     1      -1.198   1.587   0.053  0.00  0.00    +0.303 C 
ATOM     16  O   UNL     1      -2.189   0.940   0.333  0.00  0.00    -0.253 OA
ATOM     17  N   UNL     1      -1.328   2.895  -0.200  0.00  0.00    -0.262 N 
ATOM     18  C   UNL     1       2.062   1.243   1.241  0.00  0.00    +0.031 C 
ATOM     19  C   UNL     1       2.065   1.275  -1.242  0.00  0.00    +0.031 C 
ATOM     20  H   UNL     1       0.002  -0.004   0.002  0.00  0.00    +0.151 HD
ATOM     21  H   UNL     1      -2.193   3.322  -0.104  0.00  0.00    +0.154 HD
ENDROOT
BRANCH  11  22
ATOM     22  C   UNL     1       0.993   4.813  -4.058  0.00  0.00    -0.039 A 
ATOM     23  C   UNL     1      -0.105   5.527  -4.500  0.00  0.00    +0.008 A 
ATOM     24  C   UNL     1      -0.242   5.824  -5.843  0.00  0.00    +0.046 A 
ATOM     25  C   UNL     1       0.718   5.396  -6.748  0.00  0.00    +0.120 A 
ATOM     26  C   UNL     1       1.816   4.674  -6.302  0.00  0.00    +0.046 A 
ATOM     27  C   UNL     1       1.951   4.385  -4.958  0.00  0.00    +0.008 A 
BRANCH  25  28
ATOM     28  O   UNL     1       0.583   5.681  -8.070  0.00  0.00    -0.495 OA
ATOM     29  C   UNL     1      -0.573   6.428  -8.457  0.00  0.00    +0.277 C 
ENDBRANCH  25  28
ENDBRANCH  11  22
BRANCH   3  30
ATOM     30  O   UNL     1       1.511   9.355   0.255  0.00  0.00    -0.506 OA
ATOM     31  H   UNL     1       0.909  10.037  -0.072  0.00  0.00    +0.292 HD
ENDBRANCH   3  30
TORSDOF 3
