REMARK  Name = ZINC63541070
REMARK  11 active torsions:
REMARK  status: ('A' for Active; 'I' for Inactive)
REMARK    1  A    between atoms: C_1  and  C_2
REMARK    2  A    between atoms: C_2  and  N_3
REMARK    3  A    between atoms: C_4  and  C_33
REMARK    4  A    between atoms: C_6  and  C_10
REMARK    5  A    between atoms: C_7  and  C_9
REMARK    6  A    between atoms: N_11  and  N_12
REMARK    7  A    between atoms: C_13  and  C_15
REMARK    8  A    between atoms: C_15  and  C_32
REMARK    9  A    between atoms: C_18  and  C_23
REMARK   10  A    between atoms: C_20  and  C_21
REMARK   11  A    between atoms: C_20  and  C_22
REMARK                            x       y       z     vdW  Elec       q    Type
REMARK                         _______ _______ _______ _____ _____    ______ ____
ROOT
ATOM      1  C   UNL     1      -1.585  -6.916  -6.234  0.00  0.00    +0.051 C 
ATOM      2  C   UNL     1      -0.310  -7.683  -6.638  0.00  0.00    +0.017 C 
ATOM      3  C   UNL     1      -0.316  -7.642  -8.187  0.00  0.00    +0.009 C 
ATOM      4  C   UNL     1      -1.818  -7.807  -8.527  0.00  0.00    +0.038 C 
ATOM      5  C   UNL     1      -2.545  -6.995  -7.435  0.00  0.00    -0.015 C 
ATOM      6  C   UNL     1      -2.857  -5.588  -7.949  0.00  0.00    +0.012 C 
ATOM      7  C   UNL     1      -3.838  -7.703  -7.027  0.00  0.00    +0.012 C 
ATOM      8  C   UNL     1      -2.225  -7.570  -5.008  0.00  0.00    +0.021 C 
ENDROOT
BRANCH   4   9
ATOM      9  C   UNL     1      -2.119  -7.235  -9.913  0.00  0.00    +0.178 C 
ATOM     10  N   UNL     1      -1.411  -8.007 -10.942  0.00  0.00    -0.363 N 
ATOM     11  C   UNL     1      -2.308  -8.518 -11.734  0.00  0.00    +0.060 A 
ATOM     12  C   UNL     1      -2.217  -9.371 -12.927  0.00  0.00    +0.027 A 
ATOM     13  C   UNL     1      -3.346  -9.754 -13.558  0.00  0.00    +0.002 A 
ATOM     14  C   UNL     1      -4.626  -9.369 -13.121  0.00  0.00    +0.002 A 
ATOM     15  C   UNL     1      -4.821  -8.590 -12.039  0.00  0.00    +0.027 A 
ATOM     16  C   UNL     1      -3.663  -8.111 -11.272  0.00  0.00    +0.060 A 
ATOM     17  N   UNL     1      -3.551  -7.364 -10.212  0.00  0.00    -0.363 N 
ATOM     18  H   UNL     1      -0.450  -8.115 -11.017  0.00  0.00    +0.162 HD
ATOM     19  H   UNL     1      -4.280  -6.966  -9.710  0.00  0.00    +0.162 HD
ENDBRANCH   4   9
BRANCH   1  21
ATOM     20  N   UNL     1      -2.200  -4.649  -5.458  0.00  0.00    -0.207 N 
ATOM     21  C   UNL     1      -1.250  -5.477  -5.935  0.00  0.00    +0.239 C 
ATOM     22  O   UNL     1      -0.124  -5.065  -6.124  0.00  0.00    -0.273 OA
ATOM     23  H   UNL     1      -3.115  -4.958  -5.374  0.00  0.00    +0.177 HD
BRANCH  20  25
ATOM     24  C   UNL     1      -2.782  -2.541  -4.621  0.00  0.00    +0.137 C 
ATOM     25  N   UNL     1      -1.865  -3.341  -5.082  0.00  0.00    -0.188 NA
BRANCH  24  28
ATOM     26  N   UNL     1      -2.504   1.052  -3.457  0.00  0.00    -0.223 NA
ATOM     27  C   UNL     1      -3.370  -0.123  -3.679  0.00  0.00    +0.106 C 
ATOM     28  C   UNL     1      -2.432  -1.177  -4.230  0.00  0.00    +0.008 C 
ATOM     29  C   UNL     1      -1.217  -0.610  -4.287  0.00  0.00    +0.022 C 
ATOM     30  N   UNL     1      -1.247   0.685  -3.841  0.00  0.00    -0.281 N 
ATOM     31  C   UNL     1       0.024  -1.309  -4.781  0.00  0.00    +0.062 C 
ATOM     32  C   UNL     1      -4.467   0.205  -4.693  0.00  0.00    +0.031 C 
ATOM     33  H   UNL     1      -0.472   1.268  -3.802  0.00  0.00    +0.166 HD
BRANCH  26  35
ATOM     34  C   UNL     1      -2.102   3.423  -3.919  0.00  0.00    +0.022 C 
ATOM     35  C   UNL     1      -2.975   2.207  -4.233  0.00  0.00    +0.103 C 
ENDBRANCH  26  35
ENDBRANCH  24  28
ENDBRANCH  20  25
ENDBRANCH   1  21
TORSDOF 5
