REMARK  Name = ZINC10933298
REMARK  13 active torsions:
REMARK  status: ('A' for Active; 'I' for Inactive)
REMARK    1  A    between atoms: C_1  and  C_2
REMARK    2  A    between atoms: C_2  and  C_4
REMARK    3  A    between atoms: C_2  and  O_14
REMARK    4  A    between atoms: N_6  and  C_7
REMARK    5  A    between atoms: C_7  and  C_8
REMARK    6  A    between atoms: C_7  and  C_9
REMARK    7  A    between atoms: C_7  and  C_11
REMARK    8  A    between atoms: C_11  and  C_12
REMARK    9  A    between atoms: C_11  and  C_13
REMARK   10  A    between atoms: O_14  and  C_15
REMARK   11  A    between atoms: C_15  and  C_17
REMARK   12  A    between atoms: C_21  and  N_22
REMARK   13  A    between atoms: C_23  and  C_25
REMARK                            x       y       z     vdW  Elec       q    Type
REMARK                         _______ _______ _______ _____ _____    ______ ____
ROOT
ATOM      1  C   UNL     1       0.596  -1.183   3.490  0.00  0.00    +0.091 A 
ATOM      2  C   UNL     1       1.120  -0.258   4.494  0.00  0.00    -0.021 A 
ATOM      3  C   UNL     1       1.679  -0.862   5.558  0.00  0.00    -0.004 A 
ATOM      4  S   UNL     1       1.508  -2.597   5.229  0.00  0.00    -0.077 S 
ATOM      5  C   UNL     1       0.726  -2.537   3.747  0.00  0.00    +0.086 A 
ATOM      6  C   UNL     1       2.205   0.135   6.556  0.00  0.00    +0.043 C 
ATOM      7  C   UNL     1       2.284   1.465   5.775  0.00  0.00    +0.010 C 
ATOM      8  C   UNL     1       1.213   1.255   4.685  0.00  0.00    +0.037 C 
ENDROOT
BRANCH   5   9
ATOM      9  N   UNL     1       0.308  -3.598   2.960  0.00  0.00    -0.279 N 
ATOM     10  C   UNL     1       0.518  -4.864   3.369  0.00  0.00    +0.221 C 
ATOM     11  O   UNL     1       1.073  -5.076   4.426  0.00  0.00    -0.275 OA
ATOM     12  H   UNL     1      -0.137  -3.429   2.114  0.00  0.00    +0.155 HD
BRANCH  10  13
ATOM     13  C   UNL     1       0.064  -6.018   2.513  0.00  0.00    +0.075 C 
ATOM     14  C   UNL     1      -1.452  -5.941   2.316  0.00  0.00    +0.013 C 
ATOM     15  C   UNL     1      -1.913  -7.112   1.446  0.00  0.00    +0.001 C 
ATOM     16  C   UNL     1      -1.556  -8.431   2.136  0.00  0.00    +0.000 C 
ATOM     17  C   UNL     1      -0.041  -8.508   2.333  0.00  0.00    +0.001 C 
ATOM     18  C   UNL     1       0.421  -7.337   3.202  0.00  0.00    +0.013 C 
ENDBRANCH  10  13
ENDBRANCH   5   9
BRANCH   1  19
ATOM     19  C   UNL     1      -0.045  -0.698   2.267  0.00  0.00    +0.343 C 
ATOM     20  O   UNL     1      -1.244  -0.493   2.248  0.00  0.00    -0.245 OA
BRANCH  19  21
ATOM     21  O   UNL     1       0.693  -0.477   1.160  0.00  0.00    -0.449 OA
BRANCH  21  23
ATOM     22  C   UNL     1      -0.019   1.526   0.010  0.00  0.00    +0.062 C 
ATOM     23  C   UNL     1       0.002  -0.004   0.002  0.00  0.00    +0.259 C 
BRANCH  23  24
ATOM     24  C   UNL     1       0.707  -0.490  -1.238  0.00  0.00    +0.255 C 
ATOM     25  O   UNL     1       1.753  -1.097  -1.142  0.00  0.00    -0.272 OA
ATOM     26  N   UNL     1       0.176  -0.250  -2.453  0.00  0.00    -0.294 N 
ATOM     27  H   UNL     1      -0.660   0.235  -2.530  0.00  0.00    +0.150 HD
BRANCH  26  28
ATOM     28  C   UNL     1       0.862  -0.723  -3.658  0.00  0.00    +0.121 C 
ATOM     29  C   UNL     1       0.993  -2.246  -3.607  0.00  0.00    +0.048 C 
BRANCH  28  30
ATOM     30  C   UNL     1       0.055  -0.322  -4.895  0.00  0.00    +0.020 C 
ATOM     31  C   UNL     1       0.029   1.203  -5.015  0.00  0.00    +0.010 C 
ATOM     32  C   UNL     1       0.704  -0.921  -6.144  0.00  0.00    +0.010 C 
ENDBRANCH  28  30
BRANCH  28  33
ATOM     33  C   UNL     1       2.202  -0.117  -3.730  0.00  0.00    +0.088 C 
ATOM     34  N   UNL     1       3.236   0.350  -3.785  0.00  0.00    -0.194 NA
ENDBRANCH  28  33
ENDBRANCH  26  28
ENDBRANCH  23  24
ENDBRANCH  21  23
ENDBRANCH  19  21
ENDBRANCH   1  19
TORSDOF 9
