REMARK  Name = ZINC45582007
REMARK  9 active torsions:
REMARK  status: ('A' for Active; 'I' for Inactive)
REMARK    1  A    between atoms: C_1  and  C_2
REMARK    2  A    between atoms: C_7  and  C_9
REMARK    3  A    between atoms: C_7  and  C_10
REMARK    4  A    between atoms: N_13  and  C_17
REMARK    5  A    between atoms: C_17  and  C_18
REMARK    6  A    between atoms: N_20  and  C_21
REMARK    7  A    between atoms: C_21  and  C_22
REMARK    8  A    between atoms: C_27  and  C_28
REMARK    9  A    between atoms: C_28  and  N_29
REMARK                            x       y       z     vdW  Elec       q    Type
REMARK                         _______ _______ _______ _____ _____    ______ ____
ROOT
ATOM      1  C   UNL     1      -4.972  -3.399  -2.310  0.00  0.00    +0.231 C 
ATOM      2  O   UNL     1      -4.651  -2.256  -2.558  0.00  0.00    -0.274 OA
ATOM      3  N   UNL     1      -6.127  -3.895  -2.795  0.00  0.00    -0.310 N 
ATOM      4  H   UNL     1      -6.383  -4.809  -2.596  0.00  0.00    +0.149 HD
ENDROOT
BRANCH   1   5
ATOM      5  C   UNL     1      -4.079  -4.264  -1.458  0.00  0.00    +0.213 C 
BRANCH   5  17
ATOM      6  C   UNL     1      -0.159   1.471  -0.048  0.00  0.00    +0.007 C 
ATOM      7  C   UNL     1      -0.085  -0.057  -0.027  0.00  0.00    -0.011 C 
ATOM      8  C   UNL     1      -1.501  -0.636   0.015  0.00  0.00    +0.038 C 
ATOM      9  C   UNL     1      -1.428  -2.159   0.057  0.00  0.00    +0.113 C 
ATOM     10  C   UNL     1      -0.642  -2.627   1.276  0.00  0.00    +0.041 C 
ATOM     11  C   UNL     1       0.772  -2.041   1.230  0.00  0.00    -0.032 C 
ATOM     12  C   UNL     1       0.688  -0.513   1.212  0.00  0.00    +0.009 C 
ATOM     13  C   UNL     1       1.553  -2.495   2.465  0.00  0.00    +0.011 C 
ATOM     14  C   UNL     1       1.485  -2.527  -0.033  0.00  0.00    +0.011 C 
ATOM     15  C   UNL     1      -2.817  -2.754   0.064  0.00  0.00    +0.247 C 
ATOM     16  O   UNL     1      -3.679  -2.595   0.901  0.00  0.00    -0.273 OA
ATOM     17  N   UNL     1      -2.895  -3.499  -1.058  0.00  0.00    -0.215 N 
ATOM     18  C   UNL     1      -1.756  -3.453  -1.761  0.00  0.00    +0.310 C 
ATOM     19  O   UNL     1      -1.585  -4.042  -2.810  0.00  0.00    -0.252 OA
ATOM     20  N   UNL     1      -0.823  -2.679  -1.176  0.00  0.00    -0.285 N 
ATOM     21  H   UNL     1       0.073  -2.500  -1.504  0.00  0.00    +0.151 HD
ENDBRANCH   5  17
ENDBRANCH   1   5
BRANCH   3  22
ATOM     22  C   UNL     1      -6.995  -3.054  -3.623  0.00  0.00    +0.139 C 
BRANCH  22  23
ATOM     23  C   UNL     1      -8.213  -3.841  -4.034  0.00  0.00    -0.029 A 
ATOM     24  C   UNL     1      -8.275  -4.411  -5.293  0.00  0.00    +0.005 A 
ATOM     25  C   UNL     1      -9.392  -5.132  -5.670  0.00  0.00    +0.000 A 
ATOM     26  C   UNL     1     -10.447  -5.285  -4.788  0.00  0.00    +0.000 A 
ATOM     27  C   UNL     1     -10.384  -4.717  -3.530  0.00  0.00    +0.002 A 
ATOM     28  C   UNL     1      -9.265  -3.998  -3.151  0.00  0.00    -0.059 A 
BRANCH  28  29
ATOM     29  C   UNL     1      -9.194  -3.383  -1.778  0.00  0.00    -0.043 C 
BRANCH  29  30
ATOM     30  N   UNL     1      -9.527  -1.955  -1.863  0.00  0.00    +0.382 N 
ATOM     31  C   UNL     1     -10.963  -1.783  -2.204  0.00  0.00    -0.078 C 
ATOM     32  C   UNL     1     -11.275  -0.348  -1.711  0.00  0.00    -0.020 C 
ATOM     33  C   UNL     1     -10.448  -0.242  -0.409  0.00  0.00    -0.020 C 
ATOM     34  C   UNL     1      -9.346  -1.309  -0.545  0.00  0.00    -0.078 C 
ATOM     35  H   UNL     1      -8.948  -1.503  -2.554  0.00  0.00    -0.081 HD
ENDBRANCH  29  30
ENDBRANCH  28  29
ENDBRANCH  22  23
ENDBRANCH   3  22
TORSDOF 6
