REMARK  Name = ZINC39863169
REMARK  2 active torsions:
REMARK  status: ('A' for Active; 'I' for Inactive)
REMARK    1  A    between atoms: C_3  and  N_7
REMARK    2  A    between atoms: N_9  and  C_25
REMARK                            x       y       z     vdW  Elec       q    Type
REMARK                         _______ _______ _______ _____ _____    ______ ____
ROOT
ATOM      1  N   UNL     1       3.556   1.982   0.010  0.00  0.00    -0.224 NA
ATOM      2  C   UNL     1       4.499   1.635   0.853  0.00  0.00    +0.169 C 
ATOM      3  N   UNL     1       4.514   0.571   1.728  0.00  0.00    -0.243 N 
ATOM      4  C   UNL     1       5.554   0.360   2.518  0.00  0.00    +0.260 C 
ATOM      5  O   UNL     1       5.586  -0.574   3.296  0.00  0.00    -0.269 OA
ATOM      6  C   UNL     1       6.682   1.322   2.408  0.00  0.00    +0.090 C 
ATOM      7  C   UNL     1       7.880   1.352   3.097  0.00  0.00    +0.065 C 
ATOM      8  C   UNL     1       8.282   0.506   4.240  0.00  0.00    +0.012 A 
ATOM      9  C   UNL     1       7.644  -0.513   4.942  0.00  0.00    +0.049 A 
ATOM     10  C   UNL     1       8.294  -1.132   5.993  0.00  0.00    +0.124 A 
ATOM     11  C   UNL     1       9.576  -0.737   6.345  0.00  0.00    +0.040 A 
ATOM     12  C   UNL     1      10.216   0.273   5.654  0.00  0.00    +0.027 A 
ATOM     13  C   UNL     1       9.578   0.906   4.594  0.00  0.00    +0.042 A 
ATOM     14  N   UNL     1       9.988   1.932   3.748  0.00  0.00    -0.281 N 
ATOM     15  C   UNL     1       9.038   2.232   2.846  0.00  0.00    +0.250 C 
ATOM     16  O   UNL     1       9.117   3.082   1.979  0.00  0.00    -0.270 OA
ATOM     17  F   UNL     1       7.680  -2.121   6.678  0.00  0.00    -0.205 F 
ATOM     18  S   UNL     1       6.074   2.425   1.140  0.00  0.00    -0.048 S 
ATOM     19  H   UNL     1      10.851   2.372   3.800  0.00  0.00    +0.155 HD
ENDROOT
BRANCH   1  22
ATOM     20  C   UNL     1       0.444   0.194  -0.653  0.00  0.00    +0.022 A 
ATOM     21  C   UNL     1       1.726   0.677  -0.847  0.00  0.00    +0.031 A 
ATOM     22  C   UNL     1       2.292   1.480   0.153  0.00  0.00    +0.085 A 
ATOM     23  C   UNL     1       1.542   1.758   1.299  0.00  0.00    +0.138 A 
ATOM     24  N   UNL     1       0.325   1.274   1.436  0.00  0.00    -0.261 NA
ATOM     25  C   UNL     1      -0.232   0.515   0.511  0.00  0.00    +0.111 A 
ENDBRANCH   1  22
BRANCH   3  26
ATOM     26  C   UNL     1       3.367  -0.338   1.784  0.00  0.00    +0.084 C 
ATOM     27  C   UNL     1       2.701  -0.236   3.158  0.00  0.00    +0.023 C 
ATOM     28  C   UNL     1       1.503  -1.185   3.216  0.00  0.00    +0.002 C 
ATOM     29  C   UNL     1       1.977  -2.621   2.984  0.00  0.00    +0.000 C 
ATOM     30  C   UNL     1       2.642  -2.723   1.610  0.00  0.00    +0.002 C 
ATOM     31  C   UNL     1       3.841  -1.774   1.552  0.00  0.00    +0.023 C 
ENDBRANCH   3  26
TORSDOF 2
