REMARK  Name = ZINC39687150
REMARK  7 active torsions:
REMARK  status: ('A' for Active; 'I' for Inactive)
REMARK    1  A    between atoms: C_1  and  C_2
REMARK    2  A    between atoms: C_2  and  C_4
REMARK    3  A    between atoms: C_2  and  N_12
REMARK    4  A    between atoms: C_4  and  C_5
REMARK    5  A    between atoms: C_13  and  C_15
REMARK    6  A    between atoms: C_26  and  C_28
REMARK    7  A    between atoms: C_31  and  C_33
REMARK                            x       y       z     vdW  Elec       q    Type
REMARK                         _______ _______ _______ _____ _____    ______ ____
ROOT
ATOM      1  C   UNL     1      -4.127  -0.941  -0.557  0.00  0.00    +0.100 C 
ATOM      2  C   UNL     1      -3.837  -2.271   0.175  0.00  0.00    +0.121 C 
ATOM      3  N   UNL     1      -4.773  -3.245  -0.433  0.00  0.00    -0.294 N 
ATOM      4  C   UNL     1      -4.780  -2.899  -1.875  0.00  0.00    +0.115 C 
ATOM      5  C   UNL     1      -4.745  -1.358  -1.902  0.00  0.00    -0.004 C 
ATOM      6  C   UNL     1      -3.876  -0.872  -3.057  0.00  0.00    -0.010 C 
ATOM      7  C   UNL     1      -4.540  -1.247  -4.385  0.00  0.00    -0.082 C 
ATOM      8  N   UNL     1      -5.873  -0.635  -4.457  0.00  0.00    +0.379 N 
ATOM      9  C   UNL     1      -6.732  -1.179  -3.399  0.00  0.00    -0.082 C 
ATOM     10  C   UNL     1      -6.160  -0.800  -2.030  0.00  0.00    -0.010 C 
ATOM     11  C   UNL     1      -5.462  -4.225   0.185  0.00  0.00    +0.282 C 
ATOM     12  O   UNL     1      -6.125  -5.009  -0.469  0.00  0.00    -0.267 OA
ATOM     13  H   UNL     1      -5.789   0.364  -4.341  0.00  0.00    -0.086 HD
ATOM     14  H   UNL     1      -6.284  -0.833  -5.357  0.00  0.00    -0.086 HD
ENDROOT
BRANCH  11  15
ATOM     15  C   UNL     1      -5.413  -4.346   1.644  0.00  0.00    +0.190 A 
ATOM     16  C   UNL     1      -5.982  -5.355   2.391  0.00  0.00    +0.055 A 
ATOM     17  C   UNL     1      -5.692  -5.077   3.731  0.00  0.00    +0.051 A 
ATOM     18  C   UNL     1      -4.965  -3.921   3.753  0.00  0.00    +0.139 A 
ATOM     19  O   UNL     1      -4.798  -3.494   2.490  0.00  0.00    -0.450 OA
BRANCH  18  20
ATOM     20  C   UNL     1      -4.442  -3.256   4.963  0.00  0.00    +0.052 A 
ATOM     21  C   UNL     1      -5.310  -2.902   5.999  0.00  0.00    +0.014 A 
ATOM     22  C   UNL     1      -4.816  -2.281   7.126  0.00  0.00    +0.001 A 
ATOM     23  C   UNL     1      -3.463  -2.008   7.235  0.00  0.00    +0.003 A 
ATOM     24  C   UNL     1      -2.596  -2.354   6.214  0.00  0.00    +0.039 A 
ATOM     25  C   UNL     1      -3.076  -2.983   5.080  0.00  0.00    +0.134 A 
ATOM     26  F   UNL     1      -2.228  -3.326   4.086  0.00  0.00    -0.205 F 
ENDBRANCH  18  20
ENDBRANCH  11  15
BRANCH   1  28
ATOM     27  N   UNL     1      -2.868   1.171  -0.824  0.00  0.00    -0.312 N 
ATOM     28  C   UNL     1      -2.849  -0.176  -0.782  0.00  0.00    +0.218 C 
ATOM     29  O   UNL     1      -1.802  -0.772  -0.926  0.00  0.00    -0.275 OA
ATOM     30  H   UNL     1      -3.713   1.645  -0.780  0.00  0.00    +0.149 HD
BRANCH  27  32
ATOM     31  C   UNL     1      -1.262   2.111  -2.411  0.00  0.00    +0.028 C 
ATOM     32  C   UNL     1      -1.613   1.919  -0.934  0.00  0.00    +0.074 C 
BRANCH  32  33
ATOM     33  C   UNL     1      -1.773   3.285  -0.265  0.00  0.00    +0.060 C 
BRANCH  33  34
ATOM     34  C   UNL     1      -2.016   3.098   1.210  0.00  0.00    -0.010 A 
ATOM     35  C   UNL     1      -3.308   3.066   1.700  0.00  0.00    +0.006 A 
ATOM     36  C   UNL     1      -3.531   2.894   3.053  0.00  0.00    +0.000 A 
ATOM     37  C   UNL     1      -2.461   2.753   3.918  0.00  0.00    +0.003 A 
ATOM     38  C   UNL     1      -1.169   2.783   3.431  0.00  0.00    +0.038 A 
ATOM     39  C   UNL     1      -0.945   2.951   2.075  0.00  0.00    +0.127 A 
ATOM     40  F   UNL     1       0.319   2.976   1.596  0.00  0.00    -0.205 F 
ENDBRANCH  33  34
ENDBRANCH  32  33
ENDBRANCH  27  32
ENDBRANCH   1  28
TORSDOF 6
