REMARK  Name = ZINC18269025
REMARK  5 active torsions:
REMARK  status: ('A' for Active; 'I' for Inactive)
REMARK    1  A    between atoms: C_6  and  C_7
REMARK    2  A    between atoms: C_8  and  C_9
REMARK    3  A    between atoms: C_9  and  O_11
REMARK    4  A    between atoms: O_11  and  C_12
REMARK    5  A    between atoms: C_12  and  C_13
REMARK                            x       y       z     vdW  Elec       q    Type
REMARK                         _______ _______ _______ _____ _____    ______ ____
ROOT
ATOM      1  C   UNL     1       1.099   2.026  -0.187  0.00  0.00    +0.170 A 
ATOM      2  N   UNL     1      -0.010   1.307  -0.174  0.00  0.00    -0.214 NA
ATOM      3  C   UNL     1       0.002  -0.004   0.002  0.00  0.00    +0.128 A 
ATOM      4  C   UNL     1       1.248  -0.667   0.184  0.00  0.00    +0.051 A 
ATOM      5  C   UNL     1       1.506  -2.092   0.394  0.00  0.00    -0.025 A 
ATOM      6  C   UNL     1       2.793  -2.466   0.540  0.00  0.00    -0.004 A 
ATOM      7  S   UNL     1       3.728  -0.965   0.408  0.00  0.00    -0.073 S 
ATOM      8  C   UNL     1       2.385   0.165   0.157  0.00  0.00    +0.114 A 
ATOM      9  N   UNL     1       2.283   1.468  -0.024  0.00  0.00    -0.221 NA
ATOM     10  C   UNL     1       3.317  -3.852   0.765  0.00  0.00    +0.043 C 
ATOM     11  C   UNL     1       2.143  -4.752   1.179  0.00  0.00    +0.005 C 
ATOM     12  C   UNL     1       0.979  -4.514   0.213  0.00  0.00    +0.005 C 
ATOM     13  C   UNL     1       0.384  -3.125   0.448  0.00  0.00    +0.037 C 
ATOM     14  N   UNL     1      -1.181  -0.721   0.009  0.00  0.00    -0.343 N 
ATOM     15  H   UNL     1      -1.993  -0.320  -0.337  0.00  0.00    +0.144 HD
ATOM     16  H   UNL     1      -1.198  -1.625   0.359  0.00  0.00    +0.144 HD
ENDROOT
BRANCH   1  17
ATOM     17  C   UNL     1       1.009   3.516  -0.393  0.00  0.00    +0.308 C 
BRANCH  17  18
ATOM     18  O   UNL     1       0.881   4.165   0.874  0.00  0.00    -0.454 OA
BRANCH  18  19
ATOM     19  C   UNL     1       0.788   5.511   0.867  0.00  0.00    +0.332 C 
ATOM     20  O   UNL     1       0.815   6.116  -0.188  0.00  0.00    -0.246 OA
BRANCH  19  22
ATOM     21  C   UNL     1       0.566   7.567   2.080  0.00  0.00    +0.015 C 
ATOM     22  C   UNL     1       0.659   6.220   2.088  0.00  0.00    +0.092 C 
BRANCH  21  28
ATOM     23  C   UNL     1       0.401   7.607   4.561  0.00  0.00    +0.012 A 
ATOM     24  C   UNL     1       0.276   8.299   5.745  0.00  0.00    +0.050 A 
ATOM     25  C   UNL     1       0.180   9.684   5.740  0.00  0.00    +0.166 A 
ATOM     26  C   UNL     1       0.210  10.384   4.532  0.00  0.00    +0.167 A 
ATOM     27  C   UNL     1       0.341   9.699   3.341  0.00  0.00    +0.057 A 
ATOM     28  C   UNL     1       0.432   8.302   3.346  0.00  0.00    -0.021 A 
ATOM     29  O   UNL     1       0.100  11.718   4.800  0.00  0.00    -0.453 OA
ATOM     30  C   UNL     1       0.414  11.857   6.198  0.00  0.00    +0.466 C 
ATOM     31  O   UNL     1       0.051  10.582   6.759  0.00  0.00    -0.453 OA
ENDBRANCH  21  28
ENDBRANCH  19  22
ENDBRANCH  18  19
ENDBRANCH  17  18
ENDBRANCH   1  17
TORSDOF 5
