REMARK  Name = ZINC01735495
REMARK  5 active torsions:
REMARK  status: ('A' for Active; 'I' for Inactive)
REMARK    1  A    between atoms: C_3  and  O_21
REMARK    2  A    between atoms: C_4  and  C_8
REMARK    3  A    between atoms: C_9  and  C_10
REMARK    4  A    between atoms: C_9  and  C_12
REMARK    5  A    between atoms: C_15  and  N_18
REMARK                            x       y       z     vdW  Elec       q    Type
REMARK                         _______ _______ _______ _____ _____    ______ ____
ROOT
ATOM      1  C   UNL     1      -0.866   4.411  -3.334  0.00  0.00    +0.026 C 
ATOM      2  C   UNL     1      -1.554   3.765  -2.370  0.00  0.00    +0.033 C 
ENDROOT
BRANCH   1   6
ATOM      3  C   UNL     1      -2.812   5.558  -6.928  0.00  0.00    +0.023 A 
ATOM      4  C   UNL     1      -1.804   6.351  -6.414  0.00  0.00    +0.047 A 
ATOM      5  C   UNL     1      -1.165   5.989  -5.239  0.00  0.00    +0.124 A 
ATOM      6  C   UNL     1      -1.540   4.808  -4.579  0.00  0.00    +0.019 A 
ATOM      7  C   UNL     1      -2.562   4.015  -5.109  0.00  0.00    +0.031 A 
ATOM      8  C   UNL     1      -3.191   4.394  -6.277  0.00  0.00    +0.042 A 
ATOM      9 CL   UNL     1      -4.460   3.409  -6.934  0.00  0.00    -0.084 Cl
BRANCH   5  10
ATOM     10  O   UNL     1      -0.177   6.770  -4.732  0.00  0.00    -0.506 OA
ATOM     11  H   UNL     1       0.706   6.545  -5.053  0.00  0.00    +0.292 HD
ENDBRANCH   5  10
ENDBRANCH   1   6
BRANCH   2  12
ATOM     12  C   UNL     1      -0.833   3.223  -1.163  0.00  0.00    +0.030 C 
ATOM     13  C   UNL     1      -1.031   1.708  -1.089  0.00  0.00    +0.011 C 
ATOM     14  C   UNL     1      -0.299   1.157   0.137  0.00  0.00    +0.032 C 
ATOM     15  C   UNL     1      -0.861   1.808   1.402  0.00  0.00    +0.170 C 
ATOM     16  C   UNL     1      -0.662   3.324   1.327  0.00  0.00    +0.032 C 
ATOM     17  C   UNL     1      -1.395   3.874   0.102  0.00  0.00    +0.011 C 
BRANCH  15  18
ATOM     18  N   UNL     1      -0.160   1.281   2.575  0.00  0.00    +0.025 N 
ATOM     19  O   UNL     1       1.045   1.426   2.680  0.00  0.00    -0.131 OA
ATOM     20  O   UNL     1      -0.781   0.698   3.446  0.00  0.00    -0.131 OA
ENDBRANCH  15  18
ENDBRANCH   2  12
BRANCH   2  21
ATOM     21  C   UNL     1      -2.971   3.595  -2.494  0.00  0.00    +0.095 C 
ATOM     22  N   UNL     1      -4.095   3.461  -2.592  0.00  0.00    -0.191 NA
ENDBRANCH   2  21
TORSDOF 5
