REMARK  Name = ZINC45162846
REMARK  7 active torsions:
REMARK  status: ('A' for Active; 'I' for Inactive)
REMARK    1  A    between atoms: C_1  and  C_2
REMARK    2  A    between atoms: C_2  and  N_3
REMARK    3  A    between atoms: C_4  and  C_6
REMARK    4  A    between atoms: C_10  and  N_11
REMARK    5  A    between atoms: C_12  and  C_14
REMARK    6  A    between atoms: C_14  and  C_26
REMARK    7  A    between atoms: C_15  and  C_16
REMARK                            x       y       z     vdW  Elec       q    Type
REMARK                         _______ _______ _______ _____ _____    ______ ____
ROOT
ATOM      1  N   UNL     1      -3.587  -1.546   2.622  0.00  0.00    -0.275 N 
ATOM      2  C   UNL     1      -4.229  -2.172   3.628  0.00  0.00    +0.259 C 
ATOM      3  O   UNL     1      -5.315  -2.684   3.431  0.00  0.00    -0.269 OA
ATOM      4  H   UNL     1      -2.721  -1.138   2.779  0.00  0.00    +0.156 HD
ENDROOT
BRANCH   1   9
ATOM      5  C   UNL     1      -3.654  -0.887   0.221  0.00  0.00    +0.069 A 
ATOM      6  C   UNL     1      -4.460  -0.966  -0.985  0.00  0.00    -0.023 A 
ATOM      7  C   UNL     1      -5.630  -1.623  -0.825  0.00  0.00    -0.004 A 
ATOM      8  S   UNL     1      -5.642  -2.112   0.874  0.00  0.00    -0.077 S 
ATOM      9  C   UNL     1      -4.164  -1.484   1.364  0.00  0.00    +0.085 A 
ATOM     10  C   UNL     1      -6.673  -1.869  -1.871  0.00  0.00    +0.043 C 
ATOM     11  C   UNL     1      -6.391  -0.940  -3.061  0.00  0.00    +0.005 C 
ATOM     12  C   UNL     1      -4.906  -1.034  -3.423  0.00  0.00    +0.005 C 
ATOM     13  C   UNL     1      -4.061  -0.377  -2.329  0.00  0.00    +0.037 C 
BRANCH   5  15
ATOM     14  N   UNL     1      -2.281   1.104   0.520  0.00  0.00    -0.312 N 
ATOM     15  C   UNL     1      -2.354  -0.209   0.228  0.00  0.00    +0.247 C 
ATOM     16  O   UNL     1      -1.342  -0.833  -0.031  0.00  0.00    -0.270 OA
ATOM     17  H   UNL     1      -3.088   1.601   0.727  0.00  0.00    +0.149 HD
BRANCH  14  19
ATOM     18  C   UNL     1      -1.177   3.256   0.887  0.00  0.00    +0.024 C 
ATOM     19  C   UNL     1      -0.981   1.782   0.527  0.00  0.00    +0.101 C 
ENDBRANCH  14  19
ENDBRANCH   5  15
ENDBRANCH   1   9
BRANCH   2  20
ATOM     20  C   UNL     1      -3.617  -2.238   4.960  0.00  0.00    +0.114 C 
ATOM     21  C   UNL     1      -4.277  -2.882   5.994  0.00  0.00    +0.034 C 
BRANCH  21  22
ATOM     22  C   UNL     1      -3.763  -2.817   7.308  0.00  0.00    +0.001 A 
ATOM     23  C   UNL     1      -2.836  -1.915   7.794  0.00  0.00    +0.091 A 
ATOM     24  N   UNL     1      -2.596  -2.171   9.095  0.00  0.00    -0.360 N 
ATOM     25  H   UNL     1      -1.980  -1.669   9.651  0.00  0.00    +0.165 HD
ATOM     26  C   UNL     1      -3.347  -3.246   9.528  0.00  0.00    +0.047 A 
ATOM     27  C   UNL     1      -4.113  -3.697   8.441  0.00  0.00    +0.007 A 
ATOM     28  C   UNL     1      -4.976  -4.777   8.595  0.00  0.00    +0.010 A 
ATOM     29  C   UNL     1      -5.078  -5.401   9.820  0.00  0.00    +0.001 A 
ATOM     30  C   UNL     1      -4.324  -4.956  10.896  0.00  0.00    +0.002 A 
ATOM     31  C   UNL     1      -3.460  -3.892  10.755  0.00  0.00    +0.026 A 
ENDBRANCH  21  22
BRANCH  20  32
ATOM     32  C   UNL     1      -2.339  -1.636   5.192  0.00  0.00    +0.104 C 
ATOM     33  N   UNL     1      -1.325  -1.158   5.376  0.00  0.00    -0.191 NA
ENDBRANCH  20  32
ENDBRANCH   2  20
TORSDOF 6
