REMARK  Name = ZINC04168427
REMARK  10 active torsions:
REMARK  status: ('A' for Active; 'I' for Inactive)
REMARK    1  A    between atoms: C_1  and  C_2
REMARK    2  A    between atoms: C_5  and  C_30
REMARK    3  A    between atoms: C_9  and  C_13
REMARK    4  A    between atoms: C_15  and  C_28
REMARK    5  A    between atoms: C_16  and  N_27
REMARK    6  A    between atoms: C_18  and  C_26
REMARK    7  A    between atoms: C_19  and  C_20
REMARK    8  A    between atoms: C_20  and  O_22
REMARK    9  A    between atoms: O_22  and  C_23
REMARK   10  A    between atoms: C_23  and  C_24
REMARK                            x       y       z     vdW  Elec       q    Type
REMARK                         _______ _______ _______ _____ _____    ______ ____
ROOT
ATOM      1  C   UNL     1       2.421   1.082  -0.097  0.00  0.00    +0.107 C 
ATOM      2  C   UNL     1       2.707   0.158  -1.249  0.00  0.00    +0.098 C 
ATOM      3  C   UNL     1       2.587  -1.184  -1.107  0.00  0.00    +0.198 C 
ATOM      4  O   UNL     1       2.210  -1.743   0.056  0.00  0.00    -0.445 OA
ATOM      5  C   UNL     1       2.309  -1.033   1.190  0.00  0.00    +0.115 C 
ATOM      6  C   UNL     1       2.411   0.302   1.190  0.00  0.00    +0.087 C 
ATOM      7  C   UNL     1       2.306  -1.763   2.508  0.00  0.00    +0.087 C 
ENDROOT
BRANCH   1  16
ATOM      8  C   UNL     1      -2.468  -0.615  -0.578  0.00  0.00    +0.044 C 
ATOM      9  C   UNL     1      -2.482   0.889  -0.672  0.00  0.00    -0.041 A 
ATOM     10  C   UNL     1      -3.657   1.553  -0.854  0.00  0.00    +0.004 A 
ATOM     11  C   UNL     1      -3.687   2.943  -0.942  0.00  0.00    +0.006 A 
ATOM     12  C   UNL     1      -2.544   3.676  -0.851  0.00  0.00    -0.024 A 
ATOM     13  C   UNL     1      -1.311   3.027  -0.664  0.00  0.00    +0.076 A 
ATOM     14  C   UNL     1      -1.283   1.613  -0.579  0.00  0.00    +0.004 A 
ATOM     15  C   UNL     1      -0.048   0.964  -0.386  0.00  0.00    +0.017 A 
ATOM     16  C   UNL     1       1.076   1.733  -0.298  0.00  0.00    +0.003 A 
ATOM     17  C   UNL     1       0.980   3.121  -0.395  0.00  0.00    +0.134 A 
ATOM     18  N   UNL     1      -0.173   3.722  -0.570  0.00  0.00    -0.235 NA
ATOM     19 CL   UNL     1       2.424   4.079  -0.280  0.00  0.00    -0.062 Cl
ATOM     20  C   UNL     1      -2.600   5.179  -0.950  0.00  0.00    +0.046 C 
ENDBRANCH   1  16
BRANCH   3  21
ATOM     21  N   UNL     1       2.858  -1.996  -2.180  0.00  0.00    -0.328 N 
ATOM     22  H   UNL     1       2.777  -2.959  -2.093  0.00  0.00    +0.145 HD
ATOM     23  H   UNL     1       3.132  -1.607  -3.026  0.00  0.00    +0.145 HD
ENDBRANCH   3  21
BRANCH   6  24
ATOM     24  C   UNL     1       2.511   0.992   2.423  0.00  0.00    +0.340 C 
ATOM     25  O   UNL     1       3.576   1.465   2.771  0.00  0.00    -0.245 OA
BRANCH  24  26
ATOM     26  O   UNL     1       1.424   1.126   3.212  0.00  0.00    -0.457 OA
BRANCH  26  27
ATOM     27  C   UNL     1       1.597   1.833   4.441  0.00  0.00    +0.259 C 
BRANCH  27  28
ATOM     28  C   UNL     1       0.286   1.881   5.182  0.00  0.00    +0.006 C 
ATOM     29  C   UNL     1       0.250   1.627   6.467  0.00  0.00    +0.007 C 
ENDBRANCH  27  28
ENDBRANCH  26  27
ENDBRANCH  24  26
ENDBRANCH   6  24
BRANCH   2  30
ATOM     30  C   UNL     1       3.110   0.703  -2.510  0.00  0.00    +0.101 C 
ATOM     31  N   UNL     1       3.430   1.136  -3.511  0.00  0.00    -0.191 NA
ENDBRANCH   2  30
TORSDOF 7
