REMARK  Name = ZINC36796587
REMARK  9 active torsions:
REMARK  status: ('A' for Active; 'I' for Inactive)
REMARK    1  A    between atoms: C_1  and  C_2
REMARK    2  A    between atoms: C_2  and  N_3
REMARK    3  A    between atoms: C_7  and  C_9
REMARK    4  A    between atoms: C_9  and  C_11
REMARK    5  A    between atoms: C_9  and  S_12
REMARK    6  A    between atoms: S_12  and  C_13
REMARK    7  A    between atoms: N_18  and  C_19
REMARK    8  A    between atoms: C_22  and  S_25
REMARK    9  A    between atoms: S_25  and  C_26
REMARK                            x       y       z     vdW  Elec       q    Type
REMARK                         _______ _______ _______ _____ _____    ______ ____
ROOT
ATOM      1  C   UNL     1      -6.308  -6.088  -1.195  0.00  0.00    +0.161 A 
ATOM      2  N   UNL     1      -7.332  -5.412  -0.709  0.00  0.00    -0.133 NA
ATOM      3  N   UNL     1      -8.572  -6.004  -0.641  0.00  0.00    -0.125 NA
ATOM      4  C   UNL     1      -8.732  -7.244  -1.062  0.00  0.00    +0.187 A 
ATOM      5  S   UNL     1      -7.078  -7.648  -1.602  0.00  0.00    -0.024 S 
ATOM      6  N   UNL     1      -9.881  -8.025  -1.084  0.00  0.00    -0.292 N 
ATOM      7  H   UNL     1      -9.829  -8.958  -1.344  0.00  0.00    +0.154 HD
ENDROOT
BRANCH   6   8
ATOM      8  C   UNL     1     -11.115  -7.466  -0.730  0.00  0.00    +0.033 A 
ATOM      9  C   UNL     1     -12.124  -8.274  -0.222  0.00  0.00    +0.024 A 
ATOM     10  C   UNL     1     -13.340  -7.723   0.127  0.00  0.00    +0.017 A 
ATOM     11  C   UNL     1     -13.556  -6.359  -0.030  0.00  0.00    +0.013 A 
ATOM     12  C   UNL     1     -12.546  -5.551  -0.539  0.00  0.00    +0.017 A 
ATOM     13  C   UNL     1     -11.328  -6.102  -0.883  0.00  0.00    +0.024 A 
BRANCH  11  14
ATOM     14  S   UNL     1     -15.108  -5.655   0.414  0.00  0.00    -0.056 S 
BRANCH  14  15
ATOM     15  C   UNL     1     -14.915  -3.891   0.038  0.00  0.00    +0.404 C 
ATOM     16  F   UNL     1     -13.862  -3.366   0.795  0.00  0.00    -0.197 F 
ATOM     17  F   UNL     1     -14.634  -3.733  -1.323  0.00  0.00    -0.197 F 
ENDBRANCH  14  15
ENDBRANCH  11  14
ENDBRANCH   6   8
BRANCH   1  18
ATOM     18  S   UNL     1      -4.632  -5.584  -1.396  0.00  0.00    -0.084 S 
BRANCH  18  19
ATOM     19  C   UNL     1      -4.606  -3.884  -0.764  0.00  0.00    +0.136 C 
ATOM     20  C   UNL     1      -4.916  -3.892   0.734  0.00  0.00    +0.029 C 
BRANCH  19  25
ATOM     21  N   UNL     1      -1.710  -0.070  -1.185  0.00  0.00    -0.299 N 
ATOM     22  C   UNL     1      -1.867  -1.409  -1.190  0.00  0.00    +0.306 C 
ATOM     23  O   UNL     1      -0.908  -2.132  -1.379  0.00  0.00    -0.252 OA
ATOM     24  N   UNL     1      -3.086  -1.945  -0.987  0.00  0.00    -0.239 N 
ATOM     25  C   UNL     1      -3.243  -3.284  -0.992  0.00  0.00    +0.233 C 
ATOM     26  O   UNL     1      -2.287  -4.005  -1.180  0.00  0.00    -0.274 OA
ATOM     27  H   UNL     1      -2.475   0.507  -1.034  0.00  0.00    +0.150 HD
ATOM     28  H   UNL     1      -3.851  -1.368  -0.836  0.00  0.00    +0.159 HD
BRANCH  21  30
ATOM     29  C   UNL     1      -0.483   2.039  -1.351  0.00  0.00    +0.024 C 
ATOM     30  C   UNL     1      -0.384   0.513  -1.406  0.00  0.00    +0.102 C 
ENDBRANCH  21  30
ENDBRANCH  19  25
ENDBRANCH  18  19
ENDBRANCH   1  18
TORSDOF 7
