REMARK  Name = ZINC58294544
REMARK  10 active torsions:
REMARK  status: ('A' for Active; 'I' for Inactive)
REMARK    1  A    between atoms: C_1  and  C_2
REMARK    2  A    between atoms: C_2  and  C_4
REMARK    3  A    between atoms: C_2  and  N_10
REMARK    4  A    between atoms: C_13  and  C_16
REMARK    5  A    between atoms: C_16  and  N_17
REMARK    6  A    between atoms: C_18  and  O_20
REMARK    7  A    between atoms: O_20  and  C_21
REMARK    8  A    between atoms: C_21  and  C_22
REMARK    9  A    between atoms: C_21  and  C_23
REMARK   10  A    between atoms: C_21  and  C_24
REMARK                            x       y       z     vdW  Elec       q    Type
REMARK                         _______ _______ _______ _____ _____    ______ ____
ROOT
ATOM      1  N   UNL     1       0.816  -0.907  -0.823  0.00  0.00    +0.387 N 
ATOM      2  C   UNL     1       2.224  -0.498  -0.750  0.00  0.00    -0.077 C 
ATOM      3  C   UNL     1       3.064  -1.385  -1.671  0.00  0.00    -0.014 C 
ATOM      4  C   UNL     1       2.932  -2.844  -1.226  0.00  0.00    +0.003 C 
ATOM      5  C   UNL     1       1.452  -3.237  -1.234  0.00  0.00    -0.014 C 
ATOM      6  C   UNL     1       0.671  -2.282  -0.330  0.00  0.00    -0.077 C 
ATOM      7  H   UNL     1       0.503  -0.860  -1.781  0.00  0.00    -0.081 HD
ENDROOT
BRANCH   1   9
ATOM      8  C   UNL     1       0.142   1.428  -0.519  0.00  0.00    -0.004 C 
ATOM      9  C   UNL     1       0.002  -0.004   0.002  0.00  0.00    +0.017 C 
BRANCH   9  10
ATOM     10  C   UNL     1      -1.443  -0.425  -0.068  0.00  0.00    +0.207 C 
ATOM     11  O   UNL     1      -1.864  -0.986  -1.057  0.00  0.00    -0.277 OA
ATOM     12  N   UNL     1      -2.268  -0.178   0.968  0.00  0.00    -0.242 N 
ATOM     13  C   UNL     1      -3.561  -0.554   0.905  0.00  0.00    +0.303 C 
ATOM     14  O   UNL     1      -3.982  -1.117  -0.086  0.00  0.00    -0.253 OA
ATOM     15  N   UNL     1      -4.386  -0.307   1.942  0.00  0.00    -0.313 N 
ATOM     16  H   UNL     1      -1.932   0.271   1.760  0.00  0.00    +0.159 HD
ATOM     17  H   UNL     1      -4.050   0.142   2.733  0.00  0.00    +0.146 HD
ATOM     18  H   UNL     1      -5.316  -0.578   1.897  0.00  0.00    +0.146 HD
ENDBRANCH   9  10
ENDBRANCH   1   9
BRANCH   4  19
ATOM     19  C   UNL     1       3.706  -3.746  -2.190  0.00  0.00    +0.111 C 
BRANCH  19  20
ATOM     20  N   UNL     1       3.678  -5.125  -1.698  0.00  0.00    -0.281 N 
ATOM     21  C   UNL     1       4.299  -6.100  -2.390  0.00  0.00    +0.401 C 
ATOM     22  O   UNL     1       4.883  -5.835  -3.423  0.00  0.00    -0.226 OA
ATOM     23  H   UNL     1       3.212  -5.337  -0.874  0.00  0.00    +0.152 HD
BRANCH  21  24
ATOM     24  O   UNL     1       4.273  -7.368  -1.938  0.00  0.00    -0.445 OA
BRANCH  24  25
ATOM     25  C   UNL     1       4.953  -8.351  -2.722  0.00  0.00    +0.107 C 
ATOM     26  C   UNL     1       6.434  -7.982  -2.829  0.00  0.00    +0.055 C 
ATOM     27  C   UNL     1       4.815  -9.720  -2.054  0.00  0.00    +0.055 C 
ATOM     28  C   UNL     1       4.337  -8.401  -4.122  0.00  0.00    +0.055 C 
ENDBRANCH  24  25
ENDBRANCH  21  24
ENDBRANCH  19  20
ENDBRANCH   4  19
TORSDOF 6
