REMARK  Name = ZINC08791165
REMARK  6 active torsions:
REMARK  status: ('A' for Active; 'I' for Inactive)
REMARK    1  A    between atoms: C_8  and  C_11
REMARK    2  A    between atoms: N_13  and  C_14
REMARK    3  A    between atoms: C_14  and  C_16
REMARK    4  A    between atoms: C_14  and  C_27
REMARK    5  A    between atoms: C_16  and  C_17
REMARK    6  A    between atoms: N_29  and  C_30
REMARK                            x       y       z     vdW  Elec       q    Type
REMARK                         _______ _______ _______ _____ _____    ______ ____
ROOT
ATOM      1  C   UNL     1      -0.018   1.503   0.010  0.00  0.00    +0.163 C 
ENDROOT
BRANCH   1   4
ATOM      2  C   UNL     1      -0.068   2.132  -2.343  0.00  0.00    +0.200 C 
ATOM      3  O   UNL     1       1.113   1.860  -2.410  0.00  0.00    -0.278 OA
ATOM      4  N   UNL     1      -0.727   1.988  -1.177  0.00  0.00    -0.305 N 
ATOM      5  H   UNL     1      -1.671   2.206  -1.123  0.00  0.00    +0.149 HD
BRANCH   2  13
ATOM      6  C   UNL     1      -3.646   1.507  -7.349  0.00  0.00    +0.000 A 
ATOM      7  C   UNL     1      -3.141   2.607  -8.017  0.00  0.00    +0.000 A 
ATOM      8  C   UNL     1      -2.129   3.353  -7.447  0.00  0.00    +0.002 A 
ATOM      9  C   UNL     1      -1.614   3.004  -6.207  0.00  0.00    -0.061 A 
ATOM     10  C   UNL     1      -2.115   1.905  -5.543  0.00  0.00    -0.047 A 
ATOM     11  C   UNL     1      -3.133   1.158  -6.116  0.00  0.00    +0.004 A 
ATOM     12  C   UNL     1      -1.584   1.484  -4.197  0.00  0.00    +0.028 C 
ATOM     13  C   UNL     1      -0.796   2.631  -3.564  0.00  0.00    +0.021 C 
ATOM     14  C   UNL     1      -0.516   3.854  -5.622  0.00  0.00    -0.045 C 
ATOM     15  N   UNL     1       0.181   3.131  -4.549  0.00  0.00    +0.389 N 
ATOM     16  H   UNL     1       0.695   2.338  -4.951  0.00  0.00    -0.084 HD
ATOM     17  H   UNL     1       0.840   3.766  -4.083  0.00  0.00    -0.084 HD
ENDBRANCH   2  13
ENDBRANCH   1   4
BRANCH   1  18
ATOM     18  C   UNL     1       0.002  -0.004   0.002  0.00  0.00    +0.234 C 
ATOM     19  O   UNL     1      -0.523  -0.613  -0.906  0.00  0.00    -0.274 OA
ATOM     20  N   UNL     1       0.604  -0.675   1.004  0.00  0.00    -0.311 N 
ATOM     21  H   UNL     1       1.025  -0.189   1.730  0.00  0.00    +0.149 HD
BRANCH  20  22
ATOM     22  C   UNL     1       0.624  -2.140   0.996  0.00  0.00    +0.073 C 
ATOM     23  C   UNL     1      -0.652  -2.690   1.665  0.00  0.00    +0.022 C 
ATOM     24  C   UNL     1      -0.167  -3.943   2.436  0.00  0.00    +0.002 C 
ATOM     25  C   UNL     1       1.218  -3.501   2.970  0.00  0.00    +0.002 C 
ATOM     26  C   UNL     1       1.813  -2.656   1.825  0.00  0.00    +0.022 C 
ENDBRANCH  20  22
ENDBRANCH   1  18
BRANCH   1  27
ATOM     27  C   UNL     1      -0.735   1.996   1.269  0.00  0.00    +0.069 C 
BRANCH  27  28
ATOM     28  C   UNL     1      -0.648   3.499   1.340  0.00  0.00    -0.020 A 
ATOM     29  C   UNL     1       0.264   4.215   2.016  0.00  0.00    +0.087 A 
ATOM     30  N   UNL     1       0.029   5.552   1.844  0.00  0.00    -0.360 N 
ATOM     31  H   UNL     1       0.558   6.266   2.233  0.00  0.00    +0.165 HD
ATOM     32  C   UNL     1      -1.075   5.733   1.040  0.00  0.00    +0.047 A 
ATOM     33  C   UNL     1      -1.547   4.455   0.689  0.00  0.00    +0.003 A 
ATOM     34  C   UNL     1      -2.670   4.328  -0.130  0.00  0.00    +0.010 A 
ATOM     35  C   UNL     1      -3.306   5.448  -0.588  0.00  0.00    +0.001 A 
ATOM     36  C   UNL     1      -2.844   6.711  -0.244  0.00  0.00    +0.002 A 
ATOM     37  C   UNL     1      -1.738   6.859   0.563  0.00  0.00    +0.026 A 
ENDBRANCH  27  28
ENDBRANCH   1  27
TORSDOF 6
