REMARK  Name = ZINC39688093
REMARK  9 active torsions:
REMARK  status: ('A' for Active; 'I' for Inactive)
REMARK    1  A    between atoms: C_1  and  C_2
REMARK    2  A    between atoms: C_2  and  C_3
REMARK    3  A    between atoms: C_2  and  C_4
REMARK    4  A    between atoms: C_4  and  C_6
REMARK    5  A    between atoms: C_4  and  O_31
REMARK    6  A    between atoms: C_10  and  C_19
REMARK    7  A    between atoms: N_21  and  C_22
REMARK    8  A    between atoms: C_28  and  C_30
REMARK    9  A    between atoms: O_31  and  C_32
REMARK                            x       y       z     vdW  Elec       q    Type
REMARK                         _______ _______ _______ _____ _____    ______ ____
ROOT
ATOM      1  C   UNL     1       0.860  -2.129  -1.881  0.00  0.00    +0.257 C 
ATOM      2  O   UNL     1       1.971  -2.605  -1.784  0.00  0.00    -0.272 OA
ATOM      3  N   UNL     1      -0.169  -2.896  -2.291  0.00  0.00    -0.297 N 
ATOM      4  C   UNL     1      -1.560  -2.473  -2.579  0.00  0.00    +0.121 C 
ATOM      5  C   UNL     1      -1.965  -3.288  -3.828  0.00  0.00    +0.100 C 
ATOM      6  C   UNL     1      -1.048  -4.522  -3.806  0.00  0.00    -0.004 C 
ATOM      7  C   UNL     1      -0.164  -4.354  -2.562  0.00  0.00    +0.115 C 
ATOM      8  C   UNL     1      -0.181  -4.559  -5.061  0.00  0.00    -0.010 C 
ATOM      9  C   UNL     1       0.680  -5.824  -5.043  0.00  0.00    -0.082 C 
ATOM     10  N   UNL     1      -0.186  -7.008  -4.988  0.00  0.00    +0.379 N 
ATOM     11  C   UNL     1      -0.949  -7.012  -3.734  0.00  0.00    -0.082 C 
ATOM     12  C   UNL     1      -1.880  -5.797  -3.696  0.00  0.00    -0.010 C 
ATOM     13  H   UNL     1      -0.825  -6.992  -5.769  0.00  0.00    -0.086 HD
ATOM     14  H   UNL     1       0.381  -7.841  -5.038  0.00  0.00    -0.086 HD
ENDROOT
BRANCH   5  15
ATOM     15  C   UNL     1      -1.733  -2.481  -5.079  0.00  0.00    +0.218 C 
ATOM     16  O   UNL     1      -0.802  -1.705  -5.136  0.00  0.00    -0.275 OA
ATOM     17  N   UNL     1      -2.559  -2.621  -6.135  0.00  0.00    -0.312 N 
ATOM     18  H   UNL     1      -3.303  -3.241  -6.089  0.00  0.00    +0.149 HD
BRANCH  17  19
ATOM     19  C   UNL     1      -2.333  -1.836  -7.351  0.00  0.00    +0.076 C 
ATOM     20  C   UNL     1      -1.313  -2.554  -8.238  0.00  0.00    +0.041 C 
ATOM     21  C   UNL     1      -1.053  -1.714  -9.493  0.00  0.00    +0.109 C 
ATOM     22  N   UNL     1      -2.337  -1.438 -10.151  0.00  0.00    -0.302 N 
ATOM     23  C   UNL     1      -3.419  -0.832  -9.364  0.00  0.00    +0.109 C 
ATOM     24  C   UNL     1      -3.652  -1.681  -8.111  0.00  0.00    +0.041 C 
ATOM     25  C   UNL     1      -2.519  -1.734 -11.453  0.00  0.00    +0.212 C 
ATOM     26  O   UNL     1      -1.655  -2.324 -12.067  0.00  0.00    -0.276 OA
ATOM     27  C   UNL     1      -3.795  -1.333 -12.147  0.00  0.00    +0.109 C 
ENDBRANCH  17  19
ENDBRANCH   5  15
BRANCH   1  28
ATOM     28  C   UNL     1       0.630  -0.678  -1.544  0.00  0.00    +0.261 C 
BRANCH  28  30
ATOM     29  C   UNL     1      -0.148   0.903   0.227  0.00  0.00    +0.011 C 
ATOM     30  C   UNL     1       0.168  -0.560  -0.090  0.00  0.00    +0.033 C 
ATOM     31  C   UNL     1      -1.088  -1.409   0.117  0.00  0.00    +0.011 C 
ENDBRANCH  28  30
BRANCH  28  32
ATOM     32  O   UNL     1       1.847   0.050  -1.717  0.00  0.00    -0.479 OA
BRANCH  32  33
ATOM     33  C   UNL     1       1.755   1.279  -2.290  0.00  0.00    +0.122 A 
ATOM     34  C   UNL     1       2.904   2.007  -2.562  0.00  0.00    +0.045 A 
ATOM     35  C   UNL     1       2.807   3.256  -3.144  0.00  0.00    +0.004 A 
ATOM     36  C   UNL     1       1.567   3.780  -3.457  0.00  0.00    +0.000 A 
ATOM     37  C   UNL     1       0.420   3.057  -3.187  0.00  0.00    +0.004 A 
ATOM     38  C   UNL     1       0.511   1.805  -2.610  0.00  0.00    +0.045 A 
ENDBRANCH  32  33
ENDBRANCH  28  32
ENDBRANCH   1  28
TORSDOF 6
