REMARK  Name = ZINC02179321
REMARK  12 active torsions:
REMARK  status: ('A' for Active; 'I' for Inactive)
REMARK    1  A    between atoms: C_1  and  C_2
REMARK    2  A    between atoms: C_2  and  O_3
REMARK    3  A    between atoms: O_3  and  C_4
REMARK    4  A    between atoms: C_6  and  C_22
REMARK    5  A    between atoms: C_9  and  O_10
REMARK    6  A    between atoms: O_10  and  C_11
REMARK    7  A    between atoms: C_11  and  C_12
REMARK    8  A    between atoms: C_27  and  O_38
REMARK    9  A    between atoms: C_31  and  N_37
REMARK   10  A    between atoms: C_32  and  C_33
REMARK   11  A    between atoms: C_33  and  O_35
REMARK   12  A    between atoms: O_35  and  C_36
REMARK                            x       y       z     vdW  Elec       q    Type
REMARK                         _______ _______ _______ _____ _____    ______ ____
ROOT
ATOM      1  C   UNL     1       1.151   9.697  -2.471  0.00  0.00    +0.162 A 
ATOM      2  C   UNL     1       1.100  11.056  -2.732  0.00  0.00    +0.054 A 
ATOM      3  C   UNL     1       1.048  11.960  -1.687  0.00  0.00    -0.031 A 
ATOM      4  C   UNL     1       1.049  11.509  -0.380  0.00  0.00    +0.008 A 
ATOM      5  C   UNL     1       1.093  10.154  -0.112  0.00  0.00    +0.050 A 
ATOM      6  C   UNL     1       1.151   9.243  -1.155  0.00  0.00    +0.162 A 
ENDROOT
BRANCH   3   7
ATOM      7  C   UNL     1       0.993  13.438  -1.973  0.00  0.00    +0.094 C 
ATOM      8  C   UNL     1      -0.279  14.009  -1.403  0.00  0.00    +0.007 A 
ATOM      9  C   UNL     1      -1.476  13.795  -2.065  0.00  0.00    +0.012 A 
ATOM     10  C   UNL     1      -2.652  14.310  -1.558  0.00  0.00    +0.046 A 
ATOM     11  C   UNL     1      -2.637  15.045  -0.381  0.00  0.00    +0.120 A 
ATOM     12  C   UNL     1      -1.441  15.260   0.284  0.00  0.00    +0.092 A 
ATOM     13  C   UNL     1      -0.258  14.742  -0.227  0.00  0.00    +0.138 A 
ATOM     14  O   UNL     1       0.904  14.962   0.435  0.00  0.00    -0.441 OA
ATOM     15  C   UNL     1       2.076  14.822  -0.203  0.00  0.00    +0.195 C 
ATOM     16  C   UNL     1       2.186  14.110  -1.354  0.00  0.00    +0.105 C 
BRANCH  15  17
ATOM     17  N   UNL     1       3.193  15.416   0.321  0.00  0.00    -0.329 N 
ATOM     18  H   UNL     1       4.027  15.402  -0.175  0.00  0.00    +0.145 HD
ATOM     19  H   UNL     1       3.151  15.849   1.187  0.00  0.00    +0.145 HD
ENDBRANCH  15  17
BRANCH  16  20
ATOM     20  C   UNL     1       3.438  14.000  -1.977  0.00  0.00    +0.341 C 
ATOM     21  O   UNL     1       3.696  14.685  -2.950  0.00  0.00    -0.245 OA
BRANCH  20  22
ATOM     22  O   UNL     1       4.356  13.133  -1.498  0.00  0.00    -0.465 OA
ATOM     23  C   UNL     1       5.609  13.072  -2.182  0.00  0.00    +0.280 C 
ENDBRANCH  20  22
ENDBRANCH  16  20
BRANCH  11  24
ATOM     24  O   UNL     1      -3.795  15.553   0.119  0.00  0.00    -0.507 OA
ATOM     25  H   UNL     1      -4.005  16.441  -0.200  0.00  0.00    +0.292 HD
ENDBRANCH  11  24
ENDBRANCH   3   7
BRANCH   1  26
ATOM     26  O   UNL     1       1.202   8.807  -3.498  0.00  0.00    -0.489 OA
BRANCH  26  28
ATOM     27  C   UNL     1       1.260   8.200  -5.837  0.00  0.00    +0.048 C 
ATOM     28  C   UNL     1       1.199   9.344  -4.822  0.00  0.00    +0.226 C 
ENDBRANCH  26  28
ENDBRANCH   1  26
BRANCH   6  29
ATOM     29  O   UNL     1       1.201   7.910  -0.894  0.00  0.00    -0.484 OA
BRANCH  29  30
ATOM     30  C   UNL     1       1.197   7.517   0.480  0.00  0.00    +0.264 C 
BRANCH  30  31
ATOM     31  C   UNL     1       1.257   6.014   0.574  0.00  0.00    -0.010 A 
ATOM     32  C   UNL     1       2.496   5.379   0.633  0.00  0.00    +0.007 A 
ATOM     33  C   UNL     1       2.585   4.023   0.718  0.00  0.00    +0.009 A 
ATOM     34  C   UNL     1       1.411   3.250   0.746  0.00  0.00    -0.018 A 
ATOM     35  C   UNL     1       1.463   1.848   0.833  0.00  0.00    +0.008 A 
ATOM     36  C   UNL     1       0.306   1.132   0.857  0.00  0.00    +0.001 A 
ATOM     37  C   UNL     1      -0.933   1.767   0.792  0.00  0.00    +0.001 A 
ATOM     38  C   UNL     1      -1.022   3.123   0.714  0.00  0.00    +0.008 A 
ATOM     39  C   UNL     1       0.152   3.896   0.686  0.00  0.00    -0.018 A 
ATOM     40  C   UNL     1       0.100   5.298   0.598  0.00  0.00    +0.015 A 
ENDBRANCH  30  31
ENDBRANCH  29  30
ENDBRANCH   6  29
TORSDOF 10
