REMARK  Name = ZINC14270215
REMARK  9 active torsions:
REMARK  status: ('A' for Active; 'I' for Inactive)
REMARK    1  A    between atoms: C_1  and  C_2
REMARK    2  A    between atoms: C_2  and  C_3
REMARK    3  A    between atoms: C_10  and  C_12
REMARK    4  A    between atoms: C_15  and  N_19
REMARK    5  A    between atoms: C_17  and  O_18
REMARK    6  A    between atoms: N_19  and  C_20
REMARK    7  A    between atoms: C_20  and  N_22
REMARK    8  A    between atoms: C_23  and  C_25
REMARK    9  A    between atoms: C_25  and  C_26
REMARK                            x       y       z     vdW  Elec       q    Type
REMARK                         _______ _______ _______ _____ _____    ______ ____
ROOT
ATOM      1  C   UNL     1      -2.232   2.799  -8.288  0.00  0.00    +0.078 A 
ATOM      2  C   UNL     1      -2.747   3.186  -7.048  0.00  0.00    +0.018 A 
ATOM      3  C   UNL     1      -2.168   2.724  -5.888  0.00  0.00    +0.024 A 
ATOM      4  C   UNL     1      -1.069   1.871  -5.946  0.00  0.00    +0.036 A 
ATOM      5  C   UNL     1      -0.547   1.485  -7.173  0.00  0.00    +0.069 A 
ATOM      6  C   UNL     1      -1.126   1.940  -8.345  0.00  0.00    +0.131 A 
ENDROOT
BRANCH   1  14
ATOM      7  C   UNL     1      -5.185   5.146 -12.916  0.00  0.00    -0.045 A 
ATOM      8  C   UNL     1      -4.259   4.435 -13.665  0.00  0.00    +0.007 A 
ATOM      9  C   UNL     1      -3.290   3.675 -13.042  0.00  0.00    +0.049 A 
ATOM     10  C   UNL     1      -3.240   3.619 -11.658  0.00  0.00    +0.156 A 
ATOM     11  C   UNL     1      -4.175   4.337 -10.896  0.00  0.00    +0.110 A 
ATOM     12  C   UNL     1      -5.150   5.103 -11.540  0.00  0.00    +0.035 A 
ATOM     13  N   UNL     1      -3.884   4.096  -9.591  0.00  0.00    -0.209 NA
ATOM     14  C   UNL     1      -2.850   3.292  -9.533  0.00  0.00    +0.232 A 
ATOM     15  O   UNL     1      -2.433   2.988 -10.776  0.00  0.00    -0.435 OA
BRANCH   7  17
ATOM     16  C   UNL     1      -5.707   7.389 -13.835  0.00  0.00    +0.009 C 
ATOM     17  C   UNL     1      -6.236   5.971 -13.613  0.00  0.00    +0.032 C 
ENDBRANCH   7  17
ENDBRANCH   1  14
BRANCH   6  18
ATOM     18  O   UNL     1      -0.620   1.559  -9.546  0.00  0.00    -0.506 OA
ATOM     19  H   UNL     1       0.068   2.147  -9.887  0.00  0.00    +0.292 HD
ENDBRANCH   6  18
BRANCH   4  20
ATOM     20  N   UNL     1      -0.487   1.406  -4.765  0.00  0.00    -0.296 N 
ATOM     21  H   UNL     1      -0.359   2.010  -4.017  0.00  0.00    +0.154 HD
BRANCH  20  22
ATOM     22  C   UNL     1      -0.103   0.118  -4.665  0.00  0.00    +0.141 C 
ATOM     23  S   UNL     1      -0.456  -0.981  -5.929  0.00  0.00    -0.018 S 
BRANCH  22  24
ATOM     24  N   UNL     1       0.559  -0.304  -3.570  0.00  0.00    -0.267 N 
ATOM     25  C   UNL     1       0.944  -1.592  -3.470  0.00  0.00    +0.223 C 
ATOM     26  O   UNL     1       0.694  -2.371  -4.365  0.00  0.00    -0.275 OA
ATOM     27  H   UNL     1       0.759   0.319  -2.853  0.00  0.00    +0.157 HD
BRANCH  25  28
ATOM     28  C   UNL     1       1.684  -2.064  -2.245  0.00  0.00    +0.131 C 
BRANCH  28  29
ATOM     29  C   UNL     1       1.996  -3.532  -2.381  0.00  0.00    -0.039 A 
ATOM     30  C   UNL     1       1.100  -4.475  -1.913  0.00  0.00    +0.005 A 
ATOM     31  C   UNL     1       1.383  -5.822  -2.043  0.00  0.00    +0.020 A 
ATOM     32  C   UNL     1       2.568  -6.226  -2.631  0.00  0.00    +0.041 A 
ATOM     33  C   UNL     1       3.467  -5.282  -3.095  0.00  0.00    +0.020 A 
ATOM     34  C   UNL     1       3.180  -3.936  -2.969  0.00  0.00    +0.005 A 
ATOM     35 CL   UNL     1       2.927  -7.917  -2.789  0.00  0.00    -0.084 Cl
ENDBRANCH  28  29
ENDBRANCH  25  28
ENDBRANCH  22  24
ENDBRANCH  20  22
ENDBRANCH   4  20
TORSDOF 8
