REMARK  Name = ZINC08623797
REMARK  5 active torsions:
REMARK  status: ('A' for Active; 'I' for Inactive)
REMARK    1  A    between atoms: C_1  and  C_2
REMARK    2  A    between atoms: C_2  and  C_4
REMARK    3  A    between atoms: C_2  and  N_12
REMARK    4  A    between atoms: C_13  and  C_15
REMARK    5  A    between atoms: C_15  and  N_16
REMARK                            x       y       z     vdW  Elec       q    Type
REMARK                         _______ _______ _______ _____ _____    ______ ____
ROOT
ATOM      1  N   UNL     1      -6.463   4.098   2.919  0.00  0.00    -0.215 N 
ATOM      2  C   UNL     1      -6.329   4.827   4.046  0.00  0.00    +0.251 C 
ATOM      3  O   UNL     1      -5.393   4.821   4.817  0.00  0.00    -0.272 OA
ATOM      4  C   UNL     1      -7.590   5.657   4.144  0.00  0.00    +0.138 C 
ATOM      5  C   UNL     1      -8.348   5.308   5.419  0.00  0.00    +0.040 C 
ATOM      6  C   UNL     1      -9.512   6.293   5.579  0.00  0.00    +0.008 C 
ATOM      7  C   UNL     1      -8.937   7.673   5.893  0.00  0.00    +0.035 C 
ATOM      8  C   UNL     1      -7.884   8.053   4.884  0.00  0.00    -0.042 A 
ATOM      9  C   UNL     1      -7.259   7.121   4.083  0.00  0.00    -0.012 A 
ATOM     10  C   UNL     1      -6.287   7.533   3.182  0.00  0.00    +0.006 A 
ATOM     11  C   UNL     1      -5.945   8.866   3.079  0.00  0.00    +0.000 A 
ATOM     12  C   UNL     1      -6.575   9.800   3.880  0.00  0.00    +0.000 A 
ATOM     13  C   UNL     1      -7.540   9.393   4.779  0.00  0.00    +0.004 A 
ATOM     14  N   UNL     1      -8.367   5.260   2.961  0.00  0.00    -0.281 N 
ATOM     15  C   UNL     1      -7.627   4.346   2.306  0.00  0.00    +0.310 C 
ATOM     16  O   UNL     1      -7.976   3.807   1.275  0.00  0.00    -0.252 OA
ATOM     17  H   UNL     1      -9.241   5.592   2.703  0.00  0.00    +0.152 HD
ENDROOT
BRANCH   1  18
ATOM     18  C   UNL     1      -5.461   3.147   2.430  0.00  0.00    +0.213 C 
BRANCH  18  20
ATOM     19  N   UNL     1      -3.488   3.177   0.939  0.00  0.00    -0.307 N 
ATOM     20  C   UNL     1      -4.501   3.857   1.511  0.00  0.00    +0.231 C 
ATOM     21  O   UNL     1      -4.639   5.041   1.287  0.00  0.00    -0.274 OA
ATOM     22  H   UNL     1      -3.377   2.230   1.118  0.00  0.00    +0.149 HD
BRANCH  19  24
ATOM     23  C   UNL     1      -3.135   3.904  -1.369  0.00  0.00    +0.033 C 
ATOM     24  C   UNL     1      -2.554   3.867   0.046  0.00  0.00    +0.100 C 
BRANCH  24  25
ATOM     25  C   UNL     1      -1.238   3.133   0.030  0.00  0.00    -0.026 A 
ATOM     26  C   UNL     1      -1.219   1.750   0.017  0.00  0.00    +0.007 A 
ATOM     27  C   UNL     1      -0.013   1.076   0.008  0.00  0.00    +0.022 A 
ATOM     28  C   UNL     1       1.176   1.784   0.000  0.00  0.00    +0.059 A 
ATOM     29  C   UNL     1       1.156   3.168   0.008  0.00  0.00    +0.060 A 
ATOM     30  C   UNL     1      -0.052   3.842   0.022  0.00  0.00    +0.027 A 
ATOM     31 CL   UNL     1       2.647   4.058  -0.003  0.00  0.00    -0.082 Cl
ATOM     32 CL   UNL     1       2.691   0.937  -0.019  0.00  0.00    -0.082 Cl
ENDBRANCH  24  25
ENDBRANCH  19  24
ENDBRANCH  18  20
ENDBRANCH   1  18
TORSDOF 4
