REMARK  Name = ZINC13499661
REMARK  12 active torsions:
REMARK  status: ('A' for Active; 'I' for Inactive)
REMARK    1  A    between atoms: C_1  and  C_2
REMARK    2  A    between atoms: C_2  and  C_3
REMARK    3  A    between atoms: C_3  and  C_4
REMARK    4  A    between atoms: C_4  and  C_6
REMARK    5  A    between atoms: C_4  and  N_72
REMARK    6  A    between atoms: N_10  and  C_11
REMARK    7  A    between atoms: C_11  and  C_12
REMARK    8  A    between atoms: C_17  and  C_18
REMARK    9  A    between atoms: C_17  and  N_72
REMARK   10  A    between atoms: C_23  and  C_31
REMARK   11  A    between atoms: C_24  and  C_30
REMARK   12  A    between atoms: C_32  and  N_72
REMARK                            x       y       z     vdW  Elec       q    Type
REMARK                         _______ _______ _______ _____ _____    ______ ____
ROOT
ATOM      1  N   UNL     1      -0.161  -0.533  -0.130  0.00  0.00    +0.391 N 
ATOM      2  H   UNL     1      -1.032  -1.067  -0.030  0.00  0.00    -0.080 HD
ENDROOT
BRANCH   1   3
ATOM      3  C   UNL     1       0.774  -0.936   0.942  0.00  0.00    -0.067 C 
ATOM      4  C   UNL     1       1.546  -2.181   0.501  0.00  0.00    -0.015 C 
ATOM      5  C   UNL     1       2.494  -2.616   1.621  0.00  0.00    -0.002 C 
ATOM      6  C   UNL     1       1.685  -2.937   2.879  0.00  0.00    -0.000 C 
ATOM      7  C   UNL     1       0.912  -1.692   3.320  0.00  0.00    -0.002 C 
ATOM      8  C   UNL     1      -0.036  -1.257   2.200  0.00  0.00    -0.015 C 
ENDBRANCH   1   3
BRANCH   1   9
ATOM      9  C   UNL     1       0.432  -0.823  -1.452  0.00  0.00    +0.003 C 
BRANCH   9  10
ATOM     10  C   UNL     1      -0.676  -0.900  -2.471  0.00  0.00    +0.139 A 
ATOM     11  N   UNL     1      -1.657  -0.044  -2.626  0.00  0.00    -0.115 NA
ATOM     12  N   UNL     1      -2.395  -0.457  -3.598  0.00  0.00    -0.023 NA
ATOM     13  N   UNL     1      -1.910  -1.554  -4.067  0.00  0.00    -0.044 NA
ATOM     14  N   UNL     1      -0.847  -1.857  -3.401  0.00  0.00    -0.223 N 
BRANCH  14  15
ATOM     15  C   UNL     1       0.010  -3.025  -3.616  0.00  0.00    +0.221 C 
BRANCH  15  16
ATOM     16  C   UNL     1      -0.485  -4.174  -2.775  0.00  0.00    +0.126 A 
ATOM     17  C   UNL     1      -1.392  -5.092  -3.154  0.00  0.00    +0.046 A 
ATOM     18  C   UNL     1      -1.557  -5.978  -2.064  0.00  0.00    +0.041 A 
ATOM     19  C   UNL     1      -0.748  -5.543  -1.082  0.00  0.00    +0.195 A 
ATOM     20  O   UNL     1      -0.101  -4.450  -1.518  0.00  0.00    -0.466 OA
ENDBRANCH  15  16
ENDBRANCH  14  15
ENDBRANCH   9  10
BRANCH   9  21
ATOM     21  C   UNL     1       1.416   0.279  -1.851  0.00  0.00    -0.008 C 
BRANCH  21  23
ATOM     22  C   UNL     1       3.682   1.235  -1.413  0.00  0.00    +0.004 C 
ATOM     23  C   UNL     1       2.633   0.235  -0.924  0.00  0.00    -0.005 C 
ENDBRANCH  21  23
ENDBRANCH   9  21
ENDBRANCH   1   9
BRANCH   1  24
ATOM     24  C   UNL     1      -0.466   0.909  -0.018  0.00  0.00    -0.036 C 
BRANCH  24  25
ATOM     25  C   UNL     1      -1.427   1.113   1.124  0.00  0.00    +0.001 A 
ATOM     26  C   UNL     1      -0.972   1.571   2.317  0.00  0.00    +0.017 A 
ATOM     27  C   UNL     1      -1.932   1.758   3.406  0.00  0.00    -0.001 A 
ATOM     28  C   UNL     1      -1.523   2.228   4.658  0.00  0.00    +0.010 A 
ATOM     29  C   UNL     1      -2.443   2.393   5.654  0.00  0.00    +0.004 A 
ATOM     30  C   UNL     1      -3.782   2.097   5.434  0.00  0.00    -0.046 A 
ATOM     31  C   UNL     1      -4.208   1.633   4.209  0.00  0.00    -0.024 A 
ATOM     32  C   UNL     1      -3.289   1.458   3.179  0.00  0.00    +0.052 A 
ATOM     33  N   UNL     1      -3.687   0.996   1.943  0.00  0.00    -0.322 N 
ATOM     34  H   UNL     1      -4.622   0.789   1.789  0.00  0.00    +0.169 HD
ATOM     35  C   UNL     1      -2.799   0.832   0.947  0.00  0.00    +0.251 A 
ATOM     36  O   UNL     1      -3.188   0.426  -0.135  0.00  0.00    -0.268 OA
ATOM     37  C   UNL     1      -5.664   1.315   3.985  0.00  0.00    +0.046 C 
ATOM     38  C   UNL     1      -4.780   2.286   6.548  0.00  0.00    +0.044 C 
ENDBRANCH  24  25
ENDBRANCH   1  24
TORSDOF 9
