REMARK  Name = ZINC34698919
REMARK  12 active torsions:
REMARK  status: ('A' for Active; 'I' for Inactive)
REMARK    1  A    between atoms: C_1  and  C_2
REMARK    2  A    between atoms: C_2  and  C_3
REMARK    3  A    between atoms: C_2  and  C_4
REMARK    4  A    between atoms: C_4  and  N_5
REMARK    5  A    between atoms: N_5  and  C_6
REMARK    6  A    between atoms: C_6  and  C_7
REMARK    7  A    between atoms: N_10  and  C_22
REMARK    8  A    between atoms: C_12  and  C_14
REMARK    9  A    between atoms: C_18  and  O_20
REMARK   10  A    between atoms: O_20  and  C_21
REMARK   11  A    between atoms: C_22  and  C_23
REMARK   12  A    between atoms: C_32  and  C_34
REMARK                            x       y       z     vdW  Elec       q    Type
REMARK                         _______ _______ _______ _____ _____    ______ ____
ROOT
ATOM      1  C   UNL     1       0.113  -1.369   5.270  0.00  0.00    -0.005 C 
ATOM      2  C   UNL     1      -0.310  -0.057   5.978  0.00  0.00    -0.073 C 
ATOM      3  N   UNL     1      -0.498  -0.478   7.389  0.00  0.00    +0.383 N 
ATOM      4  C   UNL     1      -1.137  -1.811   7.331  0.00  0.00    -0.070 C 
ATOM      5  C   UNL     1      -0.747  -2.441   5.977  0.00  0.00    +0.005 C 
ATOM      6  H   UNL     1       0.394  -0.540   7.856  0.00  0.00    -0.081 HD
ENDROOT
BRANCH   5   7
ATOM      7  C   UNL     1       0.056  -3.698   6.192  0.00  0.00    -0.042 A 
ATOM      8  C   UNL     1       1.208  -3.659   6.957  0.00  0.00    +0.004 A 
ATOM      9  C   UNL     1       1.947  -4.810   7.157  0.00  0.00    +0.004 A 
ATOM     10  C   UNL     1       1.537  -6.003   6.591  0.00  0.00    +0.045 A 
ATOM     11  C   UNL     1       0.382  -6.044   5.824  0.00  0.00    +0.120 A 
ATOM     12  C   UNL     1      -0.361  -4.888   5.630  0.00  0.00    +0.049 A 
BRANCH  11  13
ATOM     13  O   UNL     1      -0.023  -7.215   5.266  0.00  0.00    -0.495 OA
ATOM     14  C   UNL     1       0.788  -8.366   5.513  0.00  0.00    +0.277 C 
ENDBRANCH  11  13
ENDBRANCH   5   7
BRANCH   1  15
ATOM     15  C   UNL     1      -0.217  -1.309   3.777  0.00  0.00    +0.110 C 
BRANCH  15  16
ATOM     16  N   UNL     1       0.655  -0.329   3.123  0.00  0.00    -0.297 N 
ATOM     17  C   UNL     1       0.269   0.959   3.030  0.00  0.00    +0.247 C 
ATOM     18  O   UNL     1      -0.840   1.290   3.401  0.00  0.00    -0.270 OA
BRANCH  17  19
ATOM     19  C   UNL     1       1.195   1.968   2.477  0.00  0.00    +0.037 A 
ATOM     20  C   UNL     1       1.861   1.724   1.274  0.00  0.00    +0.016 A 
ATOM     21  C   UNL     1       2.724   2.669   0.763  0.00  0.00    +0.039 A 
ATOM     22  C   UNL     1       2.931   3.861   1.440  0.00  0.00    +0.123 A 
ATOM     23  C   UNL     1       2.272   4.109   2.634  0.00  0.00    +0.039 A 
ATOM     24  C   UNL     1       1.402   3.173   3.152  0.00  0.00    +0.016 A 
ATOM     25  F   UNL     1       3.778   4.784   0.935  0.00  0.00    -0.205 F 
ENDBRANCH  17  19
BRANCH  16  26
ATOM     26  C   UNL     1       1.945  -0.750   2.571  0.00  0.00    +0.111 C 
BRANCH  26  28
ATOM     27  C   UNL     1       0.802  -1.717   0.571  0.00  0.00    +0.009 C 
ATOM     28  C   UNL     1       1.753  -2.015   1.732  0.00  0.00    +0.000 C 
ATOM     29  C   UNL     1       3.105  -2.471   1.181  0.00  0.00    +0.009 C 
ENDBRANCH  26  28
ENDBRANCH  16  26
ENDBRANCH  15  16
ENDBRANCH   1  15
BRANCH   3  30
ATOM     30  C   UNL     1      -1.373   0.472   8.089  0.00  0.00    -0.043 C 
BRANCH  30  31
ATOM     31  C   UNL     1      -1.455   0.100   9.547  0.00  0.00    -0.060 A 
ATOM     32  C   UNL     1      -2.434  -0.774   9.982  0.00  0.00    +0.005 A 
ATOM     33  C   UNL     1      -2.513  -1.119  11.318  0.00  0.00    +0.050 A 
ATOM     34  C   UNL     1      -1.610  -0.588  12.226  0.00  0.00    +0.166 A 
ATOM     35  C   UNL     1      -0.624   0.292  11.788  0.00  0.00    +0.166 A 
ATOM     36  C   UNL     1      -0.548   0.629  10.446  0.00  0.00    +0.051 A 
ATOM     37  O   UNL     1       0.131   0.671  12.860  0.00  0.00    -0.453 OA
ATOM     38  C   UNL     1      -0.653   0.334  14.020  0.00  0.00    +0.466 C 
ATOM     39  O   UNL     1      -1.473  -0.762  13.573  0.00  0.00    -0.453 OA
ENDBRANCH  30  31
ENDBRANCH   3  30
TORSDOF 9
