REMARK  Name = ZINC43754956
REMARK  5 active torsions:
REMARK  status: ('A' for Active; 'I' for Inactive)
REMARK    1  A    between atoms: C_1  and  C_2
REMARK    2  A    between atoms: C_5  and  C_29
REMARK    3  A    between atoms: C_16  and  C_24
REMARK    4  A    between atoms: C_21  and  O_23
REMARK    5  A    between atoms: N_27  and  O_28
REMARK                            x       y       z     vdW  Elec       q    Type
REMARK                         _______ _______ _______ _____ _____    ______ ____
ROOT
ATOM      1  C   UNL     1      -0.642   1.622  -0.233  0.00  0.00    +0.014 C 
ATOM      2  C   UNL     1      -0.461   0.106  -0.179  0.00  0.00    +0.034 C 
ATOM      3  C   UNL     1      -1.764  -0.616   0.111  0.00  0.00    +0.016 C 
ATOM      4  C   UNL     1      -2.079  -0.802   1.590  0.00  0.00    -0.025 C 
ATOM      5  C   UNL     1      -0.906  -1.427   2.329  0.00  0.00    +0.001 C 
ATOM      6  C   UNL     1      -1.258  -1.623   3.806  0.00  0.00    +0.005 C 
ATOM      7  C   UNL     1      -2.464  -2.543   3.922  0.00  0.00    +0.004 C 
ATOM      8  C   UNL     1      -3.684  -1.962   3.184  0.00  0.00    -0.004 C 
ATOM      9  C   UNL     1      -3.329  -1.681   1.728  0.00  0.00    -0.001 C 
ATOM     10  C   UNL     1      -3.226  -2.978   0.944  0.00  0.00    +0.005 C 
ATOM     11  C   UNL     1      -4.589  -3.681   0.837  0.00  0.00    +0.010 C 
ATOM     12  C   UNL     1      -5.517  -3.225   1.933  0.00  0.00    -0.003 C 
ATOM     13  C   UNL     1      -4.762  -3.023   3.256  0.00  0.00    +0.001 C 
ATOM     14  C   UNL     1      -5.914  -2.757   4.237  0.00  0.00    +0.007 C 
ATOM     15  C   UNL     1      -7.009  -3.757   3.771  0.00  0.00    +0.032 C 
ATOM     16  C   UNL     1      -6.555  -4.280   2.383  0.00  0.00    +0.121 C 
ATOM     17  C   UNL     1      -6.324  -1.996   1.507  0.00  0.00    +0.014 C 
ATOM     18  C   UNL     1       0.327  -0.525   2.230  0.00  0.00    +0.058 C 
ATOM     19  C   UNL     1       0.637  -0.274   0.776  0.00  0.00    +0.061 C 
ATOM     20  N   UNL     1       1.849  -0.380   0.358  0.00  0.00    -0.096 NA
ATOM     21  C   UNL     1      -2.426   0.562   2.208  0.00  0.00    +0.012 C 
ENDROOT
BRANCH  16  22
ATOM     22  O   UNL     1      -5.934  -5.555   2.513  0.00  0.00    -0.391 OA
ATOM     23  H   UNL     1      -6.535  -6.259   2.793  0.00  0.00    +0.210 HD
ENDBRANCH  16  22
BRANCH  20  24
ATOM     24  O   UNL     1       2.880  -0.737   1.260  0.00  0.00    -0.409 OA
ATOM     25  H   UNL     1       3.756  -0.792   0.854  0.00  0.00    +0.328 HD
ENDBRANCH  20  24
TORSDOF 2
