REMARK  Name = ZINC44332497
REMARK  11 active torsions:
REMARK  status: ('A' for Active; 'I' for Inactive)
REMARK    1  A    between atoms: C_1  and  O_2
REMARK    2  A    between atoms: O_2  and  C_3
REMARK    3  A    between atoms: C_6  and  C_20
REMARK    4  A    between atoms: C_8  and  C_9
REMARK    5  A    between atoms: C_9  and  O_10
REMARK    6  A    between atoms: O_10  and  C_11
REMARK    7  A    between atoms: C_20  and  C_21
REMARK    8  A    between atoms: C_21  and  C_23
REMARK    9  A    between atoms: C_21  and  N_27
REMARK   10  A    between atoms: C_23  and  O_25
REMARK   11  A    between atoms: O_25  and  C_26
REMARK                            x       y       z     vdW  Elec       q    Type
REMARK                         _______ _______ _______ _____ _____    ______ ____
ROOT
ATOM      1  C   UNL     1       0.606  -0.607  -1.056  0.00  0.00    +0.126 A 
ATOM      2  C   UNL     1       1.173   0.161  -2.063  0.00  0.00    +0.046 A 
ATOM      3  C   UNL     1       1.786  -0.455  -3.136  0.00  0.00    +0.007 A 
ATOM      4  C   UNL     1       1.836  -1.835  -3.208  0.00  0.00    -0.048 A 
ATOM      5  C   UNL     1       1.271  -2.602  -2.207  0.00  0.00    +0.014 A 
ATOM      6  C   UNL     1       0.661  -1.991  -1.128  0.00  0.00    +0.031 A 
ENDROOT
BRANCH   1   8
ATOM      7  C   UNL     1      -0.017   1.425   0.010  0.00  0.00    +0.277 C 
ATOM      8  O   UNL     1       0.002  -0.004   0.002  0.00  0.00    -0.495 OA
ENDBRANCH   1   8
BRANCH   6   9
ATOM      9  C   UNL     1       0.051  -2.828  -0.033  0.00  0.00    +0.268 C 
BRANCH   9  10
ATOM     10  O   UNL     1       0.235  -4.213  -0.334  0.00  0.00    -0.484 OA
BRANCH  10  11
ATOM     11  C   UNL     1      -0.261  -5.110   0.560  0.00  0.00    +0.158 A 
ATOM     12  C   UNL     1       0.530  -5.553   1.611  0.00  0.00    +0.085 A 
ATOM     13  C   UNL     1       0.023  -6.465   2.519  0.00  0.00    +0.043 A 
ATOM     14  C   UNL     1      -1.270  -6.936   2.379  0.00  0.00    +0.044 A 
ATOM     15  C   UNL     1      -2.060  -6.496   1.332  0.00  0.00    +0.043 A 
ATOM     16  C   UNL     1      -1.560  -5.579   0.426  0.00  0.00    +0.085 A 
ATOM     17 CL   UNL     1      -2.554  -5.021  -0.883  0.00  0.00    -0.080 Cl
ATOM     18 CL   UNL     1      -1.903  -8.082   3.520  0.00  0.00    -0.083 Cl
ATOM     19 CL   UNL     1       2.153  -4.963   1.786  0.00  0.00    -0.080 Cl
ENDBRANCH  10  11
ENDBRANCH   9  10
ENDBRANCH   6   9
BRANCH   4  20
ATOM     20  C   UNL     1       2.506  -2.503  -4.381  0.00  0.00    +0.030 C 
BRANCH  20  21
ATOM     21  C   UNL     1       3.986  -2.722  -4.066  0.00  0.00    +0.040 C 
BRANCH  21  22
ATOM     22  N   UNL     1       4.655  -1.422  -3.926  0.00  0.00    +0.387 N 
ATOM     23  H   UNL     1       5.632  -1.566  -3.718  0.00  0.00    -0.089 HD
ATOM     24  H   UNL     1       4.567  -0.904  -4.788  0.00  0.00    -0.089 HD
ATOM     25  H   UNL     1       4.225  -0.901  -3.176  0.00  0.00    -0.089 HD
ENDBRANCH  21  22
BRANCH  21  26
ATOM     26  C   UNL     1       4.629  -3.500  -5.185  0.00  0.00    +0.292 C 
ATOM     27  O   UNL     1       5.278  -2.924  -6.026  0.00  0.00    -0.253 OA
BRANCH  26  28
ATOM     28  O   UNL     1       4.480  -4.832  -5.249  0.00  0.00    -0.469 OA
ATOM     29  C   UNL     1       5.117  -5.505  -6.337  0.00  0.00    +0.280 C 
ENDBRANCH  26  28
ENDBRANCH  21  26
ENDBRANCH  20  21
ENDBRANCH   4  20
TORSDOF 9
