REMARK  Name = ZINC13174557
REMARK  10 active torsions:
REMARK  status: ('A' for Active; 'I' for Inactive)
REMARK    1  A    between atoms: C_1  and  C_2
REMARK    2  A    between atoms: C_4  and  C_32
REMARK    3  A    between atoms: C_5  and  N_9
REMARK    4  A    between atoms: C_6  and  C_8
REMARK    5  A    between atoms: C_12  and  C_19
REMARK    6  A    between atoms: C_14  and  O_18
REMARK    7  A    between atoms: C_20  and  N_61
REMARK    8  A    between atoms: C_27  and  C_31
REMARK    9  A    between atoms: C_28  and  C_29
REMARK   10  A    between atoms: C_28  and  C_30
REMARK                            x       y       z     vdW  Elec       q    Type
REMARK                         _______ _______ _______ _____ _____    ______ ____
ROOT
ATOM      1  N   UNL     1       3.281   2.303  -1.194  0.00  0.00    -0.191 N 
ATOM      2  C   UNL     1       1.945   2.451  -1.291  0.00  0.00    +0.245 C 
ATOM      3  O   UNL     1       1.396   2.515  -2.370  0.00  0.00    -0.274 OA
ATOM      4  C   UNL     1       1.158   2.537   0.004  0.00  0.00    +0.197 C 
ATOM      5  C   UNL     1       1.968   2.441   1.282  0.00  0.00    +0.198 C 
ATOM      6  N   UNL     1       3.264   2.296   1.177  0.00  0.00    -0.131 NA
ATOM      7  C   UNL     1       3.889   2.230  -0.004  0.00  0.00    +0.339 C 
ATOM      8  O   UNL     1       5.097   2.094   0.005  0.00  0.00    -0.250 OA
ENDROOT
BRANCH   1  13
ATOM      9  C   UNL     1       6.396   1.968  -5.927  0.00  0.00    +0.044 C 
ATOM     10  C   UNL     1       5.568   2.057  -4.670  0.00  0.00    -0.050 A 
ATOM     11  C   UNL     1       5.056   0.907  -4.099  0.00  0.00    +0.008 A 
ATOM     12  C   UNL     1       4.297   0.985  -2.947  0.00  0.00    -0.028 A 
ATOM     13  C   UNL     1       4.050   2.220  -2.363  0.00  0.00    +0.051 A 
ATOM     14  C   UNL     1       4.562   3.373  -2.942  0.00  0.00    -0.028 A 
ATOM     15  C   UNL     1       5.324   3.288  -4.091  0.00  0.00    +0.008 A 
ATOM     16  C   UNL     1       4.291   4.717  -2.315  0.00  0.00    +0.046 C 
ATOM     17  C   UNL     1       3.739  -0.269  -2.325  0.00  0.00    +0.046 C 
ENDBRANCH   1  13
BRANCH   4  18
ATOM     18  C   UNL     1       0.140   1.426   0.009  0.00  0.00    +0.072 C 
ATOM     19  N   UNL     1      -1.128   1.771   0.017  0.00  0.00    -0.389 N 
ATOM     20  H   UNL     1      -1.390   2.763   0.024  0.00  0.00    +0.159 HD
BRANCH  19  21
ATOM     21  C   UNL     1      -2.195   0.711   0.016  0.00  0.00    +0.085 C 
ATOM     22  C   UNL     1      -3.097   0.898   1.258  0.00  0.00    +0.029 C 
ATOM     23  C   UNL     1      -4.506   1.224   0.675  0.00  0.00    -0.003 C 
ATOM     24  C   UNL     1      -4.365   2.664   0.095  0.00  0.00    +0.005 C 
ATOM     25  C   UNL     1      -3.457   2.470  -1.165  0.00  0.00    +0.009 C 
ATOM     26  C   UNL     1      -3.144   0.942  -1.199  0.00  0.00    -0.006 C 
ATOM     27  C   UNL     1      -4.486   0.358  -0.634  0.00  0.00    -0.025 C 
ATOM     28  C   UNL     1      -4.379  -1.138  -0.331  0.00  0.00    +0.012 C 
ATOM     29  C   UNL     1      -5.677   0.667  -1.544  0.00  0.00    +0.012 C 
ATOM     30  C   UNL     1      -2.668   0.372  -2.537  0.00  0.00    +0.014 C 
ENDBRANCH  19  21
ENDBRANCH   4  18
BRANCH   5  31
ATOM     31  O   UNL     1       1.374   2.503   2.485  0.00  0.00    -0.496 OA
ATOM     32  H   UNL     1       1.946   2.435   3.261  0.00  0.00    +0.293 HD
ENDBRANCH   5  31
TORSDOF 4
