REMARK  Name = ZINC38785396
REMARK  7 active torsions:
REMARK  status: ('A' for Active; 'I' for Inactive)
REMARK    1  A    between atoms: C_1  and  C_2
REMARK    2  A    between atoms: C_2  and  C_3
REMARK    3  A    between atoms: C_4  and  C_26
REMARK    4  A    between atoms: C_5  and  N_25
REMARK    5  A    between atoms: C_7  and  S_9
REMARK    6  A    between atoms: S_9  and  C_10
REMARK    7  A    between atoms: C_10  and  C_11
REMARK                            x       y       z     vdW  Elec       q    Type
REMARK                         _______ _______ _______ _____ _____    ______ ____
ROOT
ATOM      1  C   UNL     1       0.731  -0.503   1.223  0.00  0.00    +0.055 A 
ATOM      2  C   UNL     1       2.108  -0.714   1.186  0.00  0.00    +0.043 A 
ATOM      3  C   UNL     1       2.742  -1.181   2.352  0.00  0.00    +0.129 A 
ATOM      4  N   UNL     1       2.009  -1.401   3.437  0.00  0.00    -0.207 NA
ATOM      5  C   UNL     1       0.701  -1.187   3.425  0.00  0.00    +0.191 A 
ATOM      6  N   UNL     1       0.073  -0.742   2.345  0.00  0.00    -0.226 NA
ENDROOT
BRANCH   2   7
ATOM      7  C   UNL     1       2.884  -0.454  -0.050  0.00  0.00    -0.013 A 
ATOM      8  C   UNL     1       2.653  -1.215  -1.195  0.00  0.00    +0.010 A 
ATOM      9  C   UNL     1       3.378  -0.969  -2.343  0.00  0.00    +0.020 A 
ATOM     10  C   UNL     1       4.335   0.032  -2.358  0.00  0.00    +0.041 A 
ATOM     11  C   UNL     1       4.569   0.790  -1.224  0.00  0.00    +0.020 A 
ATOM     12  C   UNL     1       3.844   0.556  -0.073  0.00  0.00    +0.010 A 
ATOM     13 CL   UNL     1       5.245   0.335  -3.805  0.00  0.00    -0.084 Cl
ENDBRANCH   2   7
BRANCH   3  14
ATOM     14  N   UNL     1       4.107  -1.407   2.368  0.00  0.00    -0.343 N 
ATOM     15  H   UNL     1       4.635  -1.244   1.571  0.00  0.00    +0.144 HD
ATOM     16  H   UNL     1       4.536  -1.729   3.177  0.00  0.00    +0.144 HD
ENDBRANCH   3  14
BRANCH   1  18
ATOM     17  C   UNL     1      -0.019   1.526   0.010  0.00  0.00    +0.010 C 
ATOM     18  C   UNL     1       0.002  -0.004   0.002  0.00  0.00    +0.053 C 
ENDBRANCH   1  18
BRANCH   5  19
ATOM     19  S   UNL     1      -0.230  -1.494   4.890  0.00  0.00    -0.078 S 
BRANCH  19  20
ATOM     20  C   UNL     1       1.009  -2.068   6.084  0.00  0.00    +0.151 C 
BRANCH  20  21
ATOM     21  C   UNL     1       0.337  -2.371   7.399  0.00  0.00    +0.134 C 
ATOM     22  N   UNL     1      -0.959  -2.195   7.489  0.00  0.00    -0.160 NA
ATOM     23  C   UNL     1      -1.645  -2.443   8.610  0.00  0.00    +0.271 C 
ATOM     24  O   UNL     1      -2.850  -2.262   8.661  0.00  0.00    -0.268 OA
ATOM     25  C   UNL     1      -0.892  -2.948   9.799  0.00  0.00    +0.071 C 
ATOM     26  C   UNL     1      -1.377  -3.377  10.977  0.00  0.00    -0.042 C 
ATOM     27  C   UNL     1      -2.675  -3.843  11.631  0.00  0.00    +0.033 C 
ATOM     28  C   UNL     1      -2.274  -4.969  12.608  0.00  0.00    +0.006 C 
ATOM     29  C   UNL     1      -0.726  -5.038  12.563  0.00  0.00    +0.019 C 
ATOM     30  C   UNL     1      -0.345  -3.627  12.079  0.00  0.00    +0.079 C 
ATOM     31  S   UNL     1       1.215  -3.648  11.125  0.00  0.00    -0.097 S 
ATOM     32  C   UNL     1       0.564  -3.085   9.571  0.00  0.00    +0.111 C 
ATOM     33  N   UNL     1       1.085  -2.805   8.401  0.00  0.00    -0.227 NA
ENDBRANCH  20  21
ENDBRANCH  19  20
ENDBRANCH   5  19
TORSDOF 6
