REMARK  Name = ZINC64870693
REMARK  8 active torsions:
REMARK  status: ('A' for Active; 'I' for Inactive)
REMARK    1  A    between atoms: C_1  and  C_2
REMARK    2  A    between atoms: C_5  and  C_8
REMARK    3  A    between atoms: C_10  and  C_14
REMARK    4  A    between atoms: N_24  and  C_27
REMARK    5  A    between atoms: C_27  and  C_28
REMARK    6  A    between atoms: C_28  and  C_29
REMARK    7  A    between atoms: C_29  and  C_30
REMARK    8  A    between atoms: C_29  and  C_31
REMARK                            x       y       z     vdW  Elec       q    Type
REMARK                         _______ _______ _______ _____ _____    ______ ____
ROOT
ATOM      1  C   UNL     1       0.567  -7.088   1.619  0.00  0.00    +0.006 A 
ATOM      2  C   UNL     1       1.487  -6.354   2.354  0.00  0.00    +0.009 A 
ATOM      3  C   UNL     1       2.244  -6.963   3.333  0.00  0.00    +0.016 A 
ATOM      4  C   UNL     1       2.079  -8.323   3.580  0.00  0.00    +0.063 A 
ATOM      5  C   UNL     1       1.146  -9.066   2.835  0.00  0.00    +0.056 A 
ATOM      6  C   UNL     1       0.390  -8.436   1.859  0.00  0.00    +0.034 A 
ATOM      7  N   UNL     1       1.003 -10.420   3.104  0.00  0.00    -0.307 N 
ATOM      8  H   UNL     1       0.364 -10.945   2.598  0.00  0.00    +0.170 HD
ATOM      9  C   UNL     1       1.742 -11.010   4.059  0.00  0.00    +0.330 A 
ATOM     10  O   UNL     1       1.587 -12.198   4.264  0.00  0.00    -0.246 OA
ATOM     11  N   UNL     1       2.644 -10.344   4.797  0.00  0.00    -0.261 N 
ATOM     12  C   UNL     1       2.861  -9.024   4.615  0.00  0.00    +0.264 A 
ATOM     13  O   UNL     1       3.680  -8.427   5.287  0.00  0.00    -0.267 OA
ENDROOT
BRANCH   1  16
ATOM     14  C   UNL     1       0.059  -4.253  -0.021  0.00  0.00    +0.134 C 
ATOM     15  N   UNL     1      -0.467  -4.996   0.903  0.00  0.00    -0.339 N 
ATOM     16  C   UNL     1      -0.251  -6.405   0.553  0.00  0.00    +0.274 C 
ATOM     17  O   UNL     1       0.467  -6.386  -0.690  0.00  0.00    -0.243 OA
ATOM     18  N   UNL     1       0.631  -5.014  -1.011  0.00  0.00    -0.247 N 
ATOM     19  H   UNL     1       1.078  -4.669  -1.800  0.00  0.00    +0.196 HD
ATOM     20  H   UNL     1      -0.926  -4.674   1.694  0.00  0.00    +0.164 HD
BRANCH  14  25
ATOM     21  C   UNL     1      -0.018   1.503   0.010  0.00  0.00    +0.044 C 
ATOM     22  C   UNL     1       0.002  -0.004   0.002  0.00  0.00    -0.050 A 
ATOM     23  C   UNL     1       0.006  -0.686  -1.201  0.00  0.00    +0.004 A 
ATOM     24  C   UNL     1       0.024  -2.066  -1.216  0.00  0.00    +0.012 A 
ATOM     25  C   UNL     1       0.040  -2.773  -0.013  0.00  0.00    +0.017 A 
ATOM     26  C   UNL     1       0.036  -2.079   1.197  0.00  0.00    +0.012 A 
ATOM     27  C   UNL     1       0.023  -0.699   1.198  0.00  0.00    +0.004 A 
ENDBRANCH  14  25
ENDBRANCH   1  16
BRANCH  11  28
ATOM     28  C   UNL     1       3.409 -11.064   5.819  0.00  0.00    +0.130 C 
BRANCH  28  29
ATOM     29  C   UNL     1       4.694 -11.616   5.199  0.00  0.00    +0.025 C 
BRANCH  29  30
ATOM     30  C   UNL     1       5.493 -12.367   6.266  0.00  0.00    -0.016 C 
ATOM     31  C   UNL     1       4.704 -13.596   6.723  0.00  0.00    +0.007 C 
ATOM     32  C   UNL     1       6.835 -12.812   5.681  0.00  0.00    +0.007 C 
ENDBRANCH  29  30
ENDBRANCH  28  29
ENDBRANCH  11  28
TORSDOF 5
