REMARK  Name = ZINC39685060
REMARK  6 active torsions:
REMARK  status: ('A' for Active; 'I' for Inactive)
REMARK    1  A    between atoms: C_5  and  O_7
REMARK    2  A    between atoms: O_7  and  C_8
REMARK    3  A    between atoms: C_8  and  C_9
REMARK    4  A    between atoms: C_9  and  N_10
REMARK    5  A    between atoms: C_11  and  C_13
REMARK    6  A    between atoms: C_24  and  C_26
REMARK                            x       y       z     vdW  Elec       q    Type
REMARK                         _______ _______ _______ _____ _____    ______ ____
ROOT
ATOM      1  C   UNL     1       2.141  -6.266   3.329  0.00  0.00    +0.100 C 
ATOM      2  C   UNL     1       1.025  -5.833   4.306  0.00  0.00    +0.121 C 
ATOM      3  N   UNL     1       0.235  -7.064   4.542  0.00  0.00    -0.296 N 
ATOM      4  C   UNL     1       1.250  -8.143   4.625  0.00  0.00    +0.115 C 
ATOM      5  C   UNL     1       2.287  -7.782   3.544  0.00  0.00    -0.004 C 
ATOM      6  C   UNL     1       1.982  -8.531   2.251  0.00  0.00    -0.010 C 
ATOM      7  C   UNL     1       2.190 -10.032   2.475  0.00  0.00    -0.082 C 
ATOM      8  N   UNL     1       3.576 -10.279   2.892  0.00  0.00    +0.379 N 
ATOM      9  C   UNL     1       3.833  -9.630   4.183  0.00  0.00    -0.082 C 
ATOM     10  C   UNL     1       3.695  -8.113   4.032  0.00  0.00    -0.010 C 
ATOM     11  C   UNL     1      -1.103  -7.179   4.656  0.00  0.00    +0.247 C 
ATOM     12  O   UNL     1      -1.816  -6.218   4.438  0.00  0.00    -0.270 OA
ATOM     13  H   UNL     1       3.727 -11.273   2.980  0.00  0.00    -0.086 HD
ATOM     14  H   UNL     1       4.206  -9.906   2.198  0.00  0.00    -0.086 HD
ENDROOT
BRANCH  11  15
ATOM     15  C   UNL     1      -1.704  -8.472   5.046  0.00  0.00    +0.040 A 
ATOM     16  C   UNL     1      -0.935  -9.432   5.706  0.00  0.00    +0.033 A 
ATOM     17  C   UNL     1      -1.502 -10.638   6.067  0.00  0.00    +0.043 A 
ATOM     18  C   UNL     1      -2.830 -10.896   5.776  0.00  0.00    +0.040 A 
ATOM     19  C   UNL     1      -3.599  -9.948   5.122  0.00  0.00    +0.043 A 
ATOM     20  C   UNL     1      -3.044  -8.736   4.761  0.00  0.00    +0.033 A 
ATOM     21 CL   UNL     1      -5.263 -10.282   4.760  0.00  0.00    -0.083 Cl
ATOM     22 CL   UNL     1      -0.546 -11.833   6.887  0.00  0.00    -0.083 Cl
ENDBRANCH  11  15
BRANCH   1  24
ATOM     23  N   UNL     1       2.678  -5.817   0.956  0.00  0.00    -0.312 N 
ATOM     24  C   UNL     1       1.735  -5.975   1.907  0.00  0.00    +0.218 C 
ATOM     25  O   UNL     1       0.561  -5.883   1.618  0.00  0.00    -0.275 OA
ATOM     26  H   UNL     1       3.617  -5.890   1.188  0.00  0.00    +0.149 HD
BRANCH  23  27
ATOM     27  C   UNL     1       2.284  -5.534  -0.426  0.00  0.00    +0.145 C 
BRANCH  27  28
ATOM     28  C   UNL     1       3.535  -5.400  -1.296  0.00  0.00    +0.248 C 
BRANCH  28  29
ATOM     29  O   UNL     1       4.216  -6.655  -1.346  0.00  0.00    -0.488 OA
BRANCH  29  34
ATOM     30  C   UNL     1       6.971  -5.635  -3.494  0.00  0.00    +0.004 A 
ATOM     31  C   UNL     1       7.680  -6.818  -3.585  0.00  0.00    +0.003 A 
ATOM     32  C   UNL     1       7.231  -7.949  -2.928  0.00  0.00    +0.042 A 
ATOM     33  C   UNL     1       6.070  -7.897  -2.176  0.00  0.00    +0.165 A 
ATOM     34  C   UNL     1       5.357  -6.709  -2.084  0.00  0.00    +0.156 A 
ATOM     35  C   UNL     1       5.811  -5.578  -2.745  0.00  0.00    +0.048 A 
ATOM     36  F   UNL     1       5.631  -9.002  -1.535  0.00  0.00    -0.202 F 
ENDBRANCH  29  34
ENDBRANCH  28  29
ENDBRANCH  27  28
ENDBRANCH  23  27
ENDBRANCH   1  24
TORSDOF 6
