REMARK  Name = ZINC41847035
REMARK  4 active torsions:
REMARK  status: ('A' for Active; 'I' for Inactive)
REMARK    1  A    between atoms: C_8  and  C_11
REMARK    2  A    between atoms: C_11  and  N_12
REMARK    3  A    between atoms: C_13  and  C_15
REMARK    4  A    between atoms: N_17  and  C_18
REMARK                            x       y       z     vdW  Elec       q    Type
REMARK                         _______ _______ _______ _____ _____    ______ ____
ROOT
ATOM      1  N   UNL     1       5.188  -3.285   0.133  0.00  0.00    -0.304 N 
ATOM      2  C   UNL     1       6.054  -4.179  -0.385  0.00  0.00    +0.299 C 
ATOM      3  O   UNL     1       5.683  -4.961  -1.235  0.00  0.00    -0.265 OA
ATOM      4  H   UNL     1       5.484  -2.660   0.813  0.00  0.00    +0.149 HD
ENDROOT
BRANCH   2   5
ATOM      5  C   UNL     1       7.470  -4.207   0.089  0.00  0.00    +0.303 C 
ATOM      6  O   UNL     1       7.840  -3.425   0.940  0.00  0.00    -0.265 OA
ATOM      7  N   UNL     1       8.336  -5.100  -0.428  0.00  0.00    -0.276 N 
ATOM      8  H   UNL     1       8.025  -5.768  -1.059  0.00  0.00    +0.155 HD
BRANCH   7   9
ATOM      9  C   UNL     1       9.683  -5.066  -0.054  0.00  0.00    +0.052 A 
ATOM     10  C   UNL     1      10.037  -4.706   1.240  0.00  0.00    +0.026 A 
ATOM     11  C   UNL     1      11.367  -4.673   1.607  0.00  0.00    +0.022 A 
ATOM     12  C   UNL     1      12.349  -4.997   0.687  0.00  0.00    +0.042 A 
ATOM     13  C   UNL     1      12.000  -5.357  -0.603  0.00  0.00    +0.041 A 
ATOM     14  C   UNL     1      10.670  -5.397  -0.975  0.00  0.00    +0.064 A 
ATOM     15 CL   UNL     1      10.232  -5.855  -2.591  0.00  0.00    -0.082 Cl
ATOM     16 CL   UNL     1      14.021  -4.954   1.152  0.00  0.00    -0.083 Cl
ENDBRANCH   7   9
ENDBRANCH   2   5
BRANCH   1  17
ATOM     17  C   UNL     1       3.799  -3.258  -0.332  0.00  0.00    +0.149 C 
BRANCH  17  25
ATOM     18  C   UNL     1      -0.044   1.340   0.055  0.00  0.00    +0.000 A 
ATOM     19  C   UNL     1       1.143   2.049   0.039  0.00  0.00    +0.004 A 
ATOM     20  C   UNL     1       2.351   1.383   0.014  0.00  0.00    +0.046 A 
ATOM     21  C   UNL     1       2.385  -0.009   0.003  0.00  0.00    +0.124 A 
ATOM     22  C   UNL     1       1.186  -0.709   0.026  0.00  0.00    -0.002 A 
ATOM     23  C   UNL     1      -0.019  -0.043   0.048  0.00  0.00    +0.007 A 
ATOM     24  C   UNL     1       1.534  -2.185   0.033  0.00  0.00    +0.085 C 
ATOM     25  C   UNL     1       3.034  -2.159   0.409  0.00  0.00    +0.195 C 
ATOM     26  O   UNL     1       3.450  -0.856  -0.033  0.00  0.00    -0.487 OA
ENDBRANCH  17  25
ENDBRANCH   1  17
TORSDOF 4
