REMARK  Name = ZINC21334412
REMARK  10 active torsions:
REMARK  status: ('A' for Active; 'I' for Inactive)
REMARK    1  A    between atoms: C_1  and  C_2
REMARK    2  A    between atoms: C_2  and  C_4
REMARK    3  A    between atoms: C_2  and  S_20
REMARK    4  A    between atoms: N_9  and  C_10
REMARK    5  A    between atoms: S_20  and  C_21
REMARK    6  A    between atoms: C_24  and  C_29
REMARK    7  A    between atoms: N_25  and  C_26
REMARK    8  A    between atoms: C_26  and  C_27
REMARK    9  A    between atoms: C_34  and  O_35
REMARK   10  A    between atoms: O_35  and  C_36
REMARK                            x       y       z     vdW  Elec       q    Type
REMARK                         _______ _______ _______ _____ _____    ______ ____
ROOT
ATOM      1  C   UNL     1       2.073  -6.713   1.527  0.00  0.00    +0.029 C 
ATOM      2  C   UNL     1       1.133  -6.953   0.344  0.00  0.00    +0.137 C 
ENDROOT
BRANCH   2   3
ATOM      3  C   UNL     1       0.570  -8.349   0.425  0.00  0.00    +0.233 C 
ATOM      4  O   UNL     1      -0.545  -8.528   0.865  0.00  0.00    -0.274 OA
ATOM      5  N   UNL     1       1.307  -9.398   0.009  0.00  0.00    -0.239 N 
ATOM      6  C   UNL     1       0.804 -10.646   0.081  0.00  0.00    +0.306 C 
ATOM      7  O   UNL     1      -0.314 -10.826   0.522  0.00  0.00    -0.252 OA
ATOM      8  N   UNL     1       1.541 -11.694  -0.335  0.00  0.00    -0.294 N 
ATOM      9  H   UNL     1       2.319  -9.235  -0.390  0.00  0.00    +0.159 HD
ATOM     10  H   UNL     1       2.553 -11.532  -0.734  0.00  0.00    +0.151 HD
BRANCH   8  11
ATOM     11  C   UNL     1       0.994 -13.051  -0.257  0.00  0.00    +0.037 C 
ATOM     12  C   UNL     1       0.666 -13.385   1.200  0.00  0.00    +0.029 C 
ATOM     13  C   UNL     1       0.095 -14.802   1.282  0.00  0.00    -0.008 C 
ATOM     14  C   UNL     1       1.126 -15.800   0.750  0.00  0.00    +0.007 C 
ATOM     15  C   UNL     1       1.454 -15.466  -0.707  0.00  0.00    -0.008 C 
ATOM     16  C   UNL     1       2.026 -14.049  -0.789  0.00  0.00    +0.029 C 
ATOM     17  C   UNL     1       0.180 -15.551  -1.549  0.00  0.00    +0.007 C 
ATOM     18  C   UNL     1      -0.851 -14.554  -1.017  0.00  0.00    -0.008 C 
ATOM     19  C   UNL     1      -1.179 -14.888   0.440  0.00  0.00    +0.007 C 
ATOM     20  C   UNL     1      -0.280 -13.137  -1.099  0.00  0.00    +0.029 C 
ENDBRANCH   8  11
ENDBRANCH   2   3
BRANCH   2  21
ATOM     21  S   UNL     1      -0.221  -5.753   0.397  0.00  0.00    -0.073 S 
BRANCH  21  22
ATOM     22  C   UNL     1       0.681  -4.262   0.139  0.00  0.00    +0.193 A 
ATOM     23  N   UNL     1       1.980  -4.157  -0.033  0.00  0.00    -0.122 NA
ATOM     24  N   UNL     1       2.305  -2.924  -0.194  0.00  0.00    -0.128 NA
ATOM     25  C   UNL     1       1.235  -2.166  -0.135  0.00  0.00    +0.169 A 
ATOM     26  N   UNL     1       0.162  -2.999   0.085  0.00  0.00    -0.298 N 
BRANCH  25  27
ATOM     27  C   UNL     1       1.191  -0.695  -0.272  0.00  0.00    +0.061 A 
ATOM     28  C   UNL     1       0.487   0.075   0.654  0.00  0.00    +0.015 A 
ATOM     29  C   UNL     1       0.449   1.447   0.520  0.00  0.00    +0.001 A 
ATOM     30  C   UNL     1       1.108   2.064  -0.529  0.00  0.00    +0.004 A 
ATOM     31  C   UNL     1       1.808   1.312  -1.453  0.00  0.00    +0.046 A 
ATOM     32  C   UNL     1       1.856  -0.068  -1.333  0.00  0.00    +0.131 A 
BRANCH  32  33
ATOM     33  O   UNL     1       2.545  -0.808  -2.239  0.00  0.00    -0.494 OA
ATOM     34  C   UNL     1       3.198  -0.099  -3.294  0.00  0.00    +0.277 C 
ENDBRANCH  32  33
ENDBRANCH  25  27
BRANCH  26  35
ATOM     35  C   UNL     1      -1.244  -2.613   0.230  0.00  0.00    +0.152 C 
BRANCH  35  36
ATOM     36  C   UNL     1      -1.901  -2.595  -1.126  0.00  0.00    -0.013 C 
ATOM     37  C   UNL     1      -2.984  -3.301  -1.339  0.00  0.00    +0.005 C 
ENDBRANCH  35  36
ENDBRANCH  26  35
ENDBRANCH  21  22
ENDBRANCH   2  21
TORSDOF 8
