REMARK  Name = ZINC22847098
REMARK  7 active torsions:
REMARK  status: ('A' for Active; 'I' for Inactive)
REMARK    1  A    between atoms: C_1  and  C_2
REMARK    2  A    between atoms: C_2  and  C_3
REMARK    3  A    between atoms: C_2  and  C_4
REMARK    4  A    between atoms: C_7  and  N_10
REMARK    5  A    between atoms: N_13  and  C_17
REMARK    6  A    between atoms: C_17  and  N_18
REMARK    7  A    between atoms: N_21  and  C_24
REMARK                            x       y       z     vdW  Elec       q    Type
REMARK                         _______ _______ _______ _____ _____    ______ ____
ROOT
ATOM      1  N   UNL     1      -0.497   9.401  -5.187  0.00  0.00    -0.292 N 
ATOM      2  C   UNL     1      -1.292   9.190  -4.068  0.00  0.00    +0.185 A 
ATOM      3  N   UNL     1      -2.341   8.421  -3.937  0.00  0.00    -0.146 NA
ATOM      4  N   UNL     1      -3.004   8.343  -2.733  0.00  0.00    -0.234 N 
ATOM      5  C   UNL     1      -2.550   9.084  -1.691  0.00  0.00    +0.146 A 
ATOM      6  S   UNL     1      -3.157   9.204  -0.095  0.00  0.00    -0.023 S 
ATOM      7  S   UNL     1      -1.145   9.899  -2.435  0.00  0.00    -0.026 S 
ATOM      8  H   UNL     1      -0.662   8.808  -6.098  0.00  0.00    +0.154 HD
ENDROOT
BRANCH   1  12
ATOM      9  C   UNL     1       2.511  12.280  -5.091  0.00  0.00    -0.045 A 
ATOM     10  C   UNL     1       2.689  11.120  -5.824  0.00  0.00    +0.006 A 
ATOM     11  C   UNL     1       1.693  10.164  -5.858  0.00  0.00    +0.023 A 
ATOM     12  C   UNL     1       0.512  10.367  -5.155  0.00  0.00    +0.033 A 
ATOM     13  C   UNL     1       0.335  11.536  -4.425  0.00  0.00    +0.023 A 
ATOM     14  C   UNL     1       1.337  12.485  -4.390  0.00  0.00    +0.006 A 
BRANCH   9  16
ATOM     15  C   UNL     1       3.062  14.640  -5.614  0.00  0.00    +0.012 C 
ATOM     16  C   UNL     1       3.600  13.321  -5.057  0.00  0.00    +0.013 C 
ATOM     17  C   UNL     1       4.062  13.528  -3.613  0.00  0.00    +0.012 C 
ENDBRANCH   9  16
ENDBRANCH   1  12
BRANCH   4  18
ATOM     18  C   UNL     1      -4.180   7.483  -2.582  0.00  0.00    +0.232 C 
BRANCH  18  19
ATOM     19  N   UNL     1      -3.756   6.145  -2.148  0.00  0.00    -0.287 NA
ATOM     20  C   UNL     1      -4.872   5.191  -2.214  0.00  0.00    +0.067 C 
ATOM     21  C   UNL     1      -4.410   3.833  -1.680  0.00  0.00    -0.063 C 
ATOM     22  N   UNL     1      -3.269   3.359  -2.475  0.00  0.00    +0.384 N 
ATOM     23  C   UNL     1      -2.153   4.313  -2.410  0.00  0.00    -0.063 C 
ATOM     24  C   UNL     1      -2.614   5.671  -2.944  0.00  0.00    +0.067 C 
ATOM     25  H   UNL     1      -3.593   3.286  -3.524  0.00  0.00    -0.081 HD
BRANCH  22  26
ATOM     26  C   UNL     1      -2.845   2.021  -2.042  0.00  0.00    -0.046 C 
ATOM     27  C   UNL     1      -1.686   1.542  -2.931  0.00  0.00    +0.009 C 
ATOM     28  C   UNL     1      -1.467   0.023  -2.667  0.00  0.00    +0.164 C 
ATOM     29  S   UNL     1      -3.213  -0.553  -2.556  0.00  0.00    -0.033 S 
ATOM     30  O   UNL     1      -3.341  -1.431  -1.446  0.00  0.00    -0.174 OA
ATOM     31  O   UNL     1      -3.640  -0.984  -3.841  0.00  0.00    -0.174 OA
ATOM     32  C   UNL     1      -4.037   1.042  -2.155  0.00  0.00    +0.151 C 
ENDBRANCH  22  26
ENDBRANCH  18  19
ENDBRANCH   4  18
TORSDOF 5
