REMARK  Name = ZINC10233439
REMARK  9 active torsions:
REMARK  status: ('A' for Active; 'I' for Inactive)
REMARK    1  A    between atoms: C_1  and  C_2
REMARK    2  A    between atoms: C_2  and  C_3
REMARK    3  A    between atoms: C_3  and  C_4
REMARK    4  A    between atoms: C_4  and  C_5
REMARK    5  A    between atoms: C_5  and  N_6
REMARK    6  A    between atoms: C_15  and  C_24
REMARK    7  A    between atoms: N_16  and  C_17
REMARK    8  A    between atoms: C_22  and  N_23
REMARK    9  A    between atoms: N_25  and  C_28
REMARK                            x       y       z     vdW  Elec       q    Type
REMARK                         _______ _______ _______ _____ _____    ______ ____
ROOT
ATOM      1  N   UNL     1      -2.691   2.196   2.280  0.00  0.00    -0.259 N 
ATOM      2  C   UNL     1      -2.044   2.442   3.438  0.00  0.00    +0.283 A 
ATOM      3  O   UNL     1      -2.658   2.834   4.415  0.00  0.00    -0.265 OA
ATOM      4  C   UNL     1      -0.655   2.242   3.507  0.00  0.00    +0.157 A 
ATOM      5  C   UNL     1       0.023   1.793   2.374  0.00  0.00    +0.170 A 
ATOM      6  N   UNL     1       1.310   1.684   2.694  0.00  0.00    -0.193 NA
ATOM      7  C   UNL     1       1.494   2.036   3.958  0.00  0.00    +0.223 A 
ATOM      8  N   UNL     1       0.299   2.390   4.501  0.00  0.00    -0.277 N 
ATOM      9  C   UNL     1       0.518   2.752   5.819  0.00  0.00    +0.116 A 
ATOM     10  C   UNL     1       1.815   2.624   6.080  0.00  0.00    +0.041 A 
ATOM     11  N   UNL     1       2.447   2.178   4.933  0.00  0.00    -0.281 N 
ATOM     12  C   UNL     1       2.483   2.915   7.399  0.00  0.00    +0.065 C 
ATOM     13  N   UNL     1      -0.698   1.558   1.213  0.00  0.00    -0.279 N 
ATOM     14  C   UNL     1      -2.028   1.770   1.192  0.00  0.00    +0.333 A 
ATOM     15  O   UNL     1      -2.645   1.564   0.165  0.00  0.00    -0.246 OA
ATOM     16  C   UNL     1      -0.013   1.086   0.008  0.00  0.00    +0.155 C 
ENDROOT
BRANCH  11  17
ATOM     17  C   UNL     1       3.818   1.918   4.793  0.00  0.00    +0.070 A 
ATOM     18  C   UNL     1       4.678   2.925   4.382  0.00  0.00    +0.028 A 
ATOM     19  C   UNL     1       6.029   2.667   4.246  0.00  0.00    +0.002 A 
ATOM     20  C   UNL     1       6.527   1.406   4.518  0.00  0.00    +0.002 A 
ATOM     21  C   UNL     1       5.677   0.396   4.927  0.00  0.00    +0.025 A 
ATOM     22  C   UNL     1       4.321   0.648   5.073  0.00  0.00    +0.049 A 
BRANCH  22  23
ATOM     23  N   UNL     1       3.460  -0.371   5.493  0.00  0.00    -0.356 N 
ATOM     24  H   UNL     1       2.511  -0.194   5.590  0.00  0.00    +0.142 HD
ATOM     25  H   UNL     1       3.811  -1.254   5.687  0.00  0.00    +0.142 HD
ENDBRANCH  22  23
ENDBRANCH  11  17
BRANCH   1  26
ATOM     26  C   UNL     1      -4.139   2.405   2.206  0.00  0.00    +0.130 C 
BRANCH  26  27
ATOM     27  C   UNL     1      -4.426   3.843   1.768  0.00  0.00    +0.022 C 
BRANCH  27  28
ATOM     28  C   UNL     1      -5.938   4.061   1.691  0.00  0.00    +0.001 C 
BRANCH  28  30
ATOM     29  C   UNL     1      -7.737   5.716   1.175  0.00  0.00    +0.004 C 
ATOM     30  C   UNL     1      -6.224   5.498   1.253  0.00  0.00    -0.003 C 
ENDBRANCH  28  30
ENDBRANCH  27  28
ENDBRANCH  26  27
ENDBRANCH   1  26
TORSDOF 6
