REMARK  Name = ZINC54621317
REMARK  8 active torsions:
REMARK  status: ('A' for Active; 'I' for Inactive)
REMARK    1  A    between atoms: C_1  and  C_2
REMARK    2  A    between atoms: C_5  and  N_9
REMARK    3  A    between atoms: C_7  and  C_8
REMARK    4  A    between atoms: N_9  and  C_10
REMARK    5  A    between atoms: C_10  and  C_12
REMARK    6  A    between atoms: C_10  and  C_24
REMARK    7  A    between atoms: C_18  and  C_23
REMARK    8  A    between atoms: C_21  and  O_22
REMARK                            x       y       z     vdW  Elec       q    Type
REMARK                         _______ _______ _______ _____ _____    ______ ____
ROOT
ATOM      1  C   UNL     1       0.061  -4.893  -1.294  0.00  0.00    +0.171 C 
ENDROOT
BRANCH   1   2
ATOM      2  C   UNL     1      -0.405  -6.308  -1.067  0.00  0.00    +0.024 A 
ATOM      3  C   UNL     1      -0.451  -6.815   0.230  0.00  0.00    +0.010 A 
ATOM      4  C   UNL     1      -0.868  -8.089   0.469  0.00  0.00    +0.010 A 
ATOM      5  C   UNL     1      -1.257  -8.907  -0.605  0.00  0.00    +0.004 A 
ATOM      6  C   UNL     1      -1.693 -10.229  -0.397  0.00  0.00    +0.012 A 
ATOM      7  C   UNL     1      -2.056 -10.967  -1.488  0.00  0.00    +0.023 A 
ATOM      8  C   UNL     1      -1.988 -10.405  -2.761  0.00  0.00    +0.039 A 
ATOM      9  N   UNL     1      -1.581  -9.173  -2.950  0.00  0.00    -0.248 NA
ATOM     10  C   UNL     1      -1.212  -8.399  -1.926  0.00  0.00    +0.113 A 
ATOM     11  C   UNL     1      -0.780  -7.072  -2.134  0.00  0.00    +0.148 A 
ATOM     12  C   UNL     1      -2.392 -11.235  -3.952  0.00  0.00    +0.065 C 
BRANCH  11  13
ATOM     13  O   UNL     1      -0.733  -6.559  -3.391  0.00  0.00    -0.504 OA
ATOM     14  H   UNL     1       0.111  -6.698  -3.842  0.00  0.00    +0.292 HD
ENDBRANCH  11  13
ENDBRANCH   1   2
BRANCH   1  15
ATOM     15  C   UNL     1       1.544  -4.890  -1.566  0.00  0.00    +0.129 A 
ATOM     16  C   UNL     1       2.121  -4.800  -2.778  0.00  0.00    +0.047 A 
ATOM     17  C   UNL     1       3.518  -4.834  -2.569  0.00  0.00    +0.041 A 
ATOM     18  C   UNL     1       3.712  -4.944  -1.243  0.00  0.00    +0.195 A 
ATOM     19  O   UNL     1       2.513  -4.971  -0.640  0.00  0.00    -0.466 OA
ENDBRANCH   1  15
BRANCH   1  20
ATOM     20  N   UNL     1      -0.217  -4.089  -0.101  0.00  0.00    -0.330 N 
ATOM     21  H   UNL     1      -0.300  -4.519   0.765  0.00  0.00    +0.147 HD
BRANCH  20  26
ATOM     22  C   UNL     1      -0.816   1.532  -0.545  0.00  0.00    +0.044 C 
ATOM     23  C   UNL     1      -0.657   0.038  -0.427  0.00  0.00    -0.047 A 
ATOM     24  C   UNL     1      -0.393  -0.719  -1.554  0.00  0.00    +0.005 A 
ATOM     25  C   UNL     1      -0.247  -2.088  -1.449  0.00  0.00    +0.023 A 
ATOM     26  C   UNL     1      -0.365  -2.705  -0.210  0.00  0.00    +0.028 A 
ATOM     27  C   UNL     1      -0.629  -1.942   0.920  0.00  0.00    +0.026 A 
ATOM     28  C   UNL     1      -0.769  -0.572   0.809  0.00  0.00    -0.046 A 
ATOM     29  C   UNL     1      -1.051   0.258   2.035  0.00  0.00    +0.044 C 
ENDBRANCH  20  26
ENDBRANCH   1  20
TORSDOF 5
