REMARK  Name = ZINC38963990
REMARK  9 active torsions:
REMARK  status: ('A' for Active; 'I' for Inactive)
REMARK    1  A    between atoms: C_1  and  C_2
REMARK    2  A    between atoms: C_7  and  C_14
REMARK    3  A    between atoms: C_14  and  N_15
REMARK    4  A    between atoms: N_15  and  C_16
REMARK    5  A    between atoms: C_22  and  C_24
REMARK    6  A    between atoms: C_27  and  C_30
REMARK    7  A    between atoms: C_30  and  C_31
REMARK    8  A    between atoms: C_30  and  C_32
REMARK    9  A    between atoms: C_30  and  C_33
REMARK                            x       y       z     vdW  Elec       q    Type
REMARK                         _______ _______ _______ _____ _____    ______ ____
ROOT
ATOM      1  N   UNL     1      -0.267  -6.064   2.196  0.00  0.00    -0.293 N 
ATOM      2  C   UNL     1       0.602  -7.084   2.343  0.00  0.00    +0.247 C 
ATOM      3  O   UNL     1       0.524  -8.058   1.620  0.00  0.00    -0.270 OA
ENDROOT
BRANCH   1   4
ATOM      4  C   UNL     1      -0.258  -4.951   3.148  0.00  0.00    +0.076 C 
ATOM      5  C   UNL     1      -1.577  -4.931   3.923  0.00  0.00    +0.022 C 
ATOM      6  C   UNL     1      -1.567  -3.768   4.917  0.00  0.00    +0.002 C 
ATOM      7  C   UNL     1      -1.401  -2.450   4.158  0.00  0.00    +0.000 C 
ATOM      8  C   UNL     1      -0.082  -2.470   3.384  0.00  0.00    +0.002 C 
ATOM      9  C   UNL     1      -0.092  -3.632   2.389  0.00  0.00    +0.022 C 
ENDBRANCH   1   4
BRANCH   2  10
ATOM     10  C   UNL     1       1.651  -7.017   3.383  0.00  0.00    +0.037 A 
ATOM     11  C   UNL     1       1.297  -6.901   4.728  0.00  0.00    +0.013 A 
ATOM     12  C   UNL     1       2.280  -6.840   5.694  0.00  0.00    +0.005 A 
ATOM     13  C   UNL     1       3.614  -6.894   5.332  0.00  0.00    -0.042 A 
ATOM     14  C   UNL     1       3.972  -7.008   4.000  0.00  0.00    +0.005 A 
ATOM     15  C   UNL     1       2.998  -7.077   3.025  0.00  0.00    +0.013 A 
BRANCH  13  16
ATOM     16  C   UNL     1       4.683  -6.826   6.392  0.00  0.00    -0.013 C 
ATOM     17  C   UNL     1       4.514  -7.997   7.362  0.00  0.00    +0.015 C 
ATOM     18  C   UNL     1       6.061  -6.905   5.733  0.00  0.00    +0.015 C 
ATOM     19  C   UNL     1       4.559  -5.508   7.158  0.00  0.00    +0.015 C 
ENDBRANCH  13  16
ENDBRANCH   2  10
BRANCH   1  20
ATOM     20  C   UNL     1      -1.221  -6.069   1.084  0.00  0.00    +0.125 C 
BRANCH  20  27
ATOM     21  C   UNL     1      -0.638  -2.017  -5.197  0.00  0.00    +0.044 C 
ATOM     22  C   UNL     1      -0.847  -3.099  -4.169  0.00  0.00    -0.049 A 
ATOM     23  C   UNL     1      -1.950  -3.944  -4.302  0.00  0.00    +0.004 A 
ATOM     24  C   UNL     1      -2.192  -4.937  -3.408  0.00  0.00    +0.010 A 
ATOM     25  C   UNL     1      -1.269  -5.117  -2.287  0.00  0.00    -0.007 A 
ATOM     26  C   UNL     1      -1.471  -6.101  -1.365  0.00  0.00    -0.003 C 
ATOM     27  C   UNL     1      -0.464  -6.215  -0.237  0.00  0.00    +0.116 C 
ATOM     28  C   UNL     1       0.681  -5.228  -0.226  0.00  0.00    +0.226 C 
ATOM     29  O   UNL     1       1.518  -5.274   0.656  0.00  0.00    -0.275 OA
ATOM     30  N   UNL     1       0.770  -4.315  -1.179  0.00  0.00    -0.284 N 
ATOM     31  C   UNL     1      -0.112  -4.212  -2.172  0.00  0.00    +0.041 A 
ATOM     32  C   UNL     1       0.049  -3.217  -3.155  0.00  0.00    +0.027 A 
ATOM     33  H   UNL     1       1.513  -3.691  -1.153  0.00  0.00    +0.155 HD
ENDBRANCH  20  27
ENDBRANCH   1  20
TORSDOF 5
