REMARK  Name = ZINC35492704
REMARK  14 active torsions:
REMARK  status: ('A' for Active; 'I' for Inactive)
REMARK    1  A    between atoms: C_1  and  C_2
REMARK    2  A    between atoms: C_2  and  N_3
REMARK    3  A    between atoms: N_3  and  C_4
REMARK    4  A    between atoms: N_3  and  C_6
REMARK    5  A    between atoms: C_4  and  C_5
REMARK    6  A    between atoms: C_6  and  C_7
REMARK    7  A    between atoms: C_7  and  C_8
REMARK    8  A    between atoms: C_8  and  C_9
REMARK    9  A    between atoms: C_9  and  C_11
REMARK   10  A    between atoms: C_9  and  N_12
REMARK   11  A    between atoms: C_13  and  C_15
REMARK   12  A    between atoms: C_15  and  N_16
REMARK   13  A    between atoms: N_23  and  S_26
REMARK   14  A    between atoms: S_26  and  C_29
REMARK                            x       y       z     vdW  Elec       q    Type
REMARK                         _______ _______ _______ _____ _____    ______ ____
ROOT
ATOM      1  N   UNL     1      -8.713  -3.411   1.853  0.00  0.00    -0.282 N 
ATOM      2  C   UNL     1      -9.363  -2.342   1.240  0.00  0.00    +0.072 A 
ATOM      3  C   UNL     1      -8.947  -1.085   0.828  0.00  0.00    +0.028 A 
ATOM      4  C   UNL     1      -9.848  -0.223   0.235  0.00  0.00    +0.002 A 
ATOM      5  C   UNL     1     -11.165  -0.608   0.051  0.00  0.00    +0.002 A 
ATOM      6  C   UNL     1     -11.589  -1.858   0.459  0.00  0.00    +0.030 A 
ATOM      7  C   UNL     1     -10.691  -2.731   1.054  0.00  0.00    +0.094 A 
ATOM      8  N   UNL     1     -10.807  -4.023   1.560  0.00  0.00    -0.159 N 
ATOM      9  C   UNL     1      -9.603  -4.406   2.026  0.00  0.00    +0.351 A 
ATOM     10  O   UNL     1      -9.357  -5.485   2.531  0.00  0.00    -0.245 OA
ENDROOT
BRANCH   8  11
ATOM     11  S   UNL     1     -12.188  -4.937   1.578  0.00  0.00    +0.088 S 
ATOM     12  O   UNL     1     -12.034  -5.885   2.625  0.00  0.00    -0.147 OA
ATOM     13  O   UNL     1     -13.278  -4.026   1.529  0.00  0.00    -0.147 OA
BRANCH  11  14
ATOM     14  C   UNL     1     -12.227  -5.851   0.072  0.00  0.00    +0.113 A 
ATOM     15  C   UNL     1     -12.836  -5.313  -1.047  0.00  0.00    +0.029 A 
ATOM     16  C   UNL     1     -12.868  -6.029  -2.228  0.00  0.00    +0.003 A 
ATOM     17  C   UNL     1     -12.291  -7.284  -2.292  0.00  0.00    +0.020 A 
ATOM     18  C   UNL     1     -11.682  -7.823  -1.173  0.00  0.00    +0.043 A 
ATOM     19  C   UNL     1     -11.645  -7.102   0.008  0.00  0.00    +0.049 A 
ATOM     20 CL   UNL     1     -10.957  -9.398  -1.252  0.00  0.00    -0.083 Cl
ENDBRANCH  11  14
ENDBRANCH   8  11
BRANCH   1  21
ATOM     21  C   UNL     1      -7.299  -3.448   2.237  0.00  0.00    +0.222 C 
BRANCH  21  23
ATOM     22  N   UNL     1      -5.145  -4.107   1.217  0.00  0.00    -0.311 N 
ATOM     23  C   UNL     1      -6.481  -3.983   1.091  0.00  0.00    +0.233 C 
ATOM     24  O   UNL     1      -7.024  -4.302   0.054  0.00  0.00    -0.274 OA
ATOM     25  H   UNL     1      -4.710  -3.852   2.046  0.00  0.00    +0.149 HD
BRANCH  22  26
ATOM     26  C   UNL     1      -4.349  -4.628   0.102  0.00  0.00    +0.070 C 
ATOM     27  C   UNL     1      -4.348  -6.157   0.146  0.00  0.00    +0.028 C 
BRANCH  26  28
ATOM     28  C   UNL     1      -2.913  -4.113   0.217  0.00  0.00    +0.020 C 
BRANCH  28  29
ATOM     29  C   UNL     1      -2.901  -2.592   0.048  0.00  0.00    -0.017 C 
BRANCH  29  30
ATOM     30  C   UNL     1      -1.464  -2.078   0.163  0.00  0.00    -0.079 C 
BRANCH  30  31
ATOM     31  N   UNL     1      -1.438  -0.634  -0.108  0.00  0.00    +0.379 N 
ATOM     32  H   UNL     1      -1.863  -0.453  -1.004  0.00  0.00    -0.082 HD
BRANCH  31  34
ATOM     33  C   UNL     1      -2.263   1.562   0.594  0.00  0.00    -0.017 C 
ATOM     34  C   UNL     1      -2.184   0.074   0.941  0.00  0.00    -0.082 C 
ENDBRANCH  31  34
BRANCH  31  35
ATOM     35  C   UNL     1      -0.046  -0.164  -0.121  0.00  0.00    -0.082 C 
ATOM     36  C   UNL     1       0.689  -0.780  -1.313  0.00  0.00    -0.017 C 
ENDBRANCH  31  35
ENDBRANCH  30  31
ENDBRANCH  29  30
ENDBRANCH  28  29
ENDBRANCH  26  28
ENDBRANCH  22  26
ENDBRANCH  21  23
ENDBRANCH   1  21
TORSDOF 11
