REMARK  Name = ZINC16839626
REMARK  13 active torsions:
REMARK  status: ('A' for Active; 'I' for Inactive)
REMARK    1  A    between atoms: C_1  and  C_2
REMARK    2  A    between atoms: C_5  and  S_8
REMARK    3  A    between atoms: S_8  and  N_11
REMARK    4  A    between atoms: N_11  and  C_12
REMARK    5  A    between atoms: N_11  and  C_26
REMARK    6  A    between atoms: C_12  and  C_13
REMARK    7  A    between atoms: C_13  and  C_15
REMARK    8  A    between atoms: C_13  and  O_25
REMARK    9  A    between atoms: C_15  and  N_65
REMARK   10  A    between atoms: C_16  and  C_24
REMARK   11  A    between atoms: C_21  and  C_23
REMARK   12  A    between atoms: C_29  and  O_32
REMARK   13  A    between atoms: O_32  and  C_33
REMARK                            x       y       z     vdW  Elec       q    Type
REMARK                         _______ _______ _______ _____ _____    ______ ____
ROOT
ATOM      1  N   UNL     1      -2.215   2.199  -1.402  0.00  0.00    -0.201 N 
ENDROOT
BRANCH   1   2
ATOM      2  C   UNL     1      -3.303   1.339  -1.586  0.00  0.00    +0.052 A 
ATOM      3  C   UNL     1      -3.089  -0.012  -1.827  0.00  0.00    +0.028 A 
ATOM      4  C   UNL     1      -4.164  -0.861  -2.003  0.00  0.00    +0.047 A 
ATOM      5  C   UNL     1      -5.457  -0.362  -1.952  0.00  0.00    +0.120 A 
ATOM      6  C   UNL     1      -5.672   0.988  -1.716  0.00  0.00    +0.047 A 
ATOM      7  C   UNL     1      -4.598   1.837  -1.534  0.00  0.00    +0.028 A 
BRANCH   5   8
ATOM      8  O   UNL     1      -6.515  -1.198  -2.131  0.00  0.00    -0.495 OA
ATOM      9  C   UNL     1      -6.221  -2.575  -2.369  0.00  0.00    +0.277 C 
ENDBRANCH   5   8
ENDBRANCH   1   2
BRANCH   1  10
ATOM     10  S   UNL     1      -1.905   3.392  -2.508  0.00  0.00    +0.075 S 
ATOM     11  O   UNL     1      -3.158   3.763  -3.066  0.00  0.00    -0.150 OA
ATOM     12  O   UNL     1      -1.049   4.328  -1.867  0.00  0.00    -0.150 OA
BRANCH  10  17
ATOM     13  C   UNL     1       1.302   0.899  -6.970  0.00  0.00    +0.044 C 
ATOM     14  C   UNL     1       0.501   1.522  -5.856  0.00  0.00    -0.050 A 
ATOM     15  C   UNL     1      -0.880   1.536  -5.921  0.00  0.00    +0.005 A 
ATOM     16  C   UNL     1      -1.615   2.107  -4.899  0.00  0.00    +0.029 A 
ATOM     17  C   UNL     1      -0.969   2.664  -3.811  0.00  0.00    +0.109 A 
ATOM     18  C   UNL     1       0.412   2.655  -3.748  0.00  0.00    +0.029 A 
ATOM     19  C   UNL     1       1.147   2.080  -4.769  0.00  0.00    +0.005 A 
ENDBRANCH  10  17
ENDBRANCH   1  10
BRANCH   1  20
ATOM     20  C   UNL     1      -1.349   2.043  -0.230  0.00  0.00    +0.161 C 
BRANCH  20  21
ATOM     21  C   UNL     1      -1.956   2.795   0.956  0.00  0.00    +0.117 C 
BRANCH  21  22
ATOM     22  O   UNL     1      -2.073   4.182   0.631  0.00  0.00    -0.392 OA
ATOM     23  H   UNL     1      -1.225   4.633   0.519  0.00  0.00    +0.210 HD
ENDBRANCH  21  22
BRANCH  21  24
ATOM     24  C   UNL     1      -1.051   2.633   2.179  0.00  0.00    -0.045 C 
BRANCH  24  32
ATOM     25  C   UNL     1      -0.706   3.399   4.450  0.00  0.00    -0.071 C 
ATOM     26  C   UNL     1      -1.304   4.255   5.568  0.00  0.00    -0.016 C 
ATOM     27  C   UNL     1      -2.629   3.637   6.025  0.00  0.00    -0.003 C 
ATOM     28  C   UNL     1      -3.575   3.533   4.825  0.00  0.00    -0.016 C 
ATOM     29  C   UNL     1      -2.910   2.697   3.728  0.00  0.00    -0.071 C 
ATOM     30  C   UNL     1      -2.628   1.291   4.260  0.00  0.00    -0.013 C 
ATOM     31  C   UNL     1       0.608   4.024   3.976  0.00  0.00    -0.013 C 
ATOM     32  N   UNL     1      -1.654   3.359   3.316  0.00  0.00    +0.385 N 
ATOM     33  H   UNL     1      -1.864   4.320   3.024  0.00  0.00    -0.081 HD
ENDBRANCH  24  32
ENDBRANCH  21  24
ENDBRANCH  20  21
ENDBRANCH   1  20
TORSDOF 9
