REMARK  Name = ZINC12340725
REMARK  8 active torsions:
REMARK  status: ('A' for Active; 'I' for Inactive)
REMARK    1  A    between atoms: C_1  and  O_2
REMARK    2  A    between atoms: O_2  and  C_3
REMARK    3  A    between atoms: C_7  and  C_9
REMARK    4  A    between atoms: N_10  and  N_11
REMARK    5  A    between atoms: C_12  and  C_14
REMARK    6  A    between atoms: C_15  and  N_34
REMARK    7  A    between atoms: C_17  and  C_29
REMARK    8  A    between atoms: C_19  and  C_23
REMARK                            x       y       z     vdW  Elec       q    Type
REMARK                         _______ _______ _______ _____ _____    ______ ____
ROOT
ATOM      1  C   UNL     1      -4.795   5.158  -0.227  0.00  0.00    +0.215 A 
ATOM      2  C   UNL     1      -6.053   5.704  -0.403  0.00  0.00    +0.086 A 
ATOM      3  C   UNL     1      -6.986   4.580  -0.319  0.00  0.00    +0.072 A 
ATOM      4  C   UNL     1      -8.389   4.459  -0.415  0.00  0.00    +0.033 A 
ATOM      5  C   UNL     1      -8.944   3.186  -0.274  0.00  0.00    +0.040 A 
ATOM      6  C   UNL     1      -8.099   2.102  -0.045  0.00  0.00    +0.076 A 
ATOM      7  N   UNL     1      -6.784   2.253   0.039  0.00  0.00    -0.212 NA
ATOM      8  C   UNL     1      -6.202   3.437  -0.088  0.00  0.00    +0.231 A 
ATOM      9  O   UNL     1      -4.911   3.823  -0.040  0.00  0.00    -0.430 OA
ENDROOT
BRANCH   6  10
ATOM     10  C   UNL     1      -8.684   0.748   0.106  0.00  0.00    +0.000 A 
ATOM     11  C   UNL     1     -10.064   0.569   0.026  0.00  0.00    +0.010 A 
ATOM     12  C   UNL     1     -10.601  -0.695   0.162  0.00  0.00    +0.001 A 
ATOM     13  C   UNL     1      -9.775  -1.781   0.388  0.00  0.00    +0.000 A 
ATOM     14  C   UNL     1      -8.405  -1.608   0.474  0.00  0.00    +0.001 A 
ATOM     15  C   UNL     1      -7.855  -0.350   0.334  0.00  0.00    +0.010 A 
ENDBRANCH   6  10
BRANCH   4  16
ATOM     16  C   UNL     1      -9.240   5.638  -0.657  0.00  0.00    +0.136 A 
ATOM     17  C   UNL     1     -10.206   5.744  -1.611  0.00  0.00    +0.050 A 
ATOM     18  C   UNL     1     -10.763   7.030  -1.483  0.00  0.00    +0.042 A 
ATOM     19  C   UNL     1     -10.112   7.643  -0.473  0.00  0.00    +0.196 A 
ATOM     20  O   UNL     1      -9.193   6.800   0.023  0.00  0.00    -0.463 OA
ENDBRANCH   4  16
BRANCH   1  22
ATOM     21  N   UNL     1      -2.411   5.237  -0.047  0.00  0.00    -0.200 N 
ATOM     22  C   UNL     1      -3.580   5.881  -0.236  0.00  0.00    +0.300 C 
ATOM     23  O   UNL     1      -3.589   7.087  -0.413  0.00  0.00    -0.265 OA
ATOM     24  H   UNL     1      -2.403   4.278   0.094  0.00  0.00    +0.178 HD
BRANCH  21  26
ATOM     25  C   UNL     1      -0.075   5.321  -0.001  0.00  0.00    +0.138 C 
ATOM     26  N   UNL     1      -1.207   5.954  -0.056  0.00  0.00    -0.187 NA
BRANCH  25  31
ATOM     27  C   UNL     1       1.204   1.843  -0.616  0.00  0.00    +0.121 A 
ATOM     28  C   UNL     1       0.185   1.319  -1.401  0.00  0.00    +0.045 A 
ATOM     29  C   UNL     1      -0.909   2.097  -1.732  0.00  0.00    +0.004 A 
ATOM     30  C   UNL     1      -1.002   3.395  -1.276  0.00  0.00    +0.010 A 
ATOM     31  C   UNL     1       0.017   3.932  -0.486  0.00  0.00    -0.002 A 
ATOM     32  C   UNL     1       1.124   3.147  -0.157  0.00  0.00    +0.055 A 
BRANCH  27  34
ATOM     33  C   UNL     1       2.296  -0.260  -0.807  0.00  0.00    +0.277 C 
ATOM     34  O   UNL     1       2.280   1.076  -0.299  0.00  0.00    -0.495 OA
ENDBRANCH  27  34
ENDBRANCH  25  31
ENDBRANCH  21  26
ENDBRANCH   1  22
BRANCH   2  35
ATOM     35  N   UNL     1      -6.365   7.037  -0.617  0.00  0.00    -0.354 N 
ATOM     36  H   UNL     1      -5.658   7.701  -0.656  0.00  0.00    +0.142 HD
ATOM     37  H   UNL     1      -7.290   7.308  -0.727  0.00  0.00    +0.142 HD
ENDBRANCH   2  35
TORSDOF 7
