REMARK  Name = ZINC40986346
REMARK  13 active torsions:
REMARK  status: ('A' for Active; 'I' for Inactive)
REMARK    1  A    between atoms: C_1  and  C_2
REMARK    2  A    between atoms: C_2  and  N_3
REMARK    3  A    between atoms: N_3  and  C_4
REMARK    4  A    between atoms: N_3  and  C_6
REMARK    5  A    between atoms: C_4  and  C_5
REMARK    6  A    between atoms: C_6  and  C_8
REMARK    7  A    between atoms: C_6  and  C_30
REMARK    8  A    between atoms: C_8  and  N_9
REMARK    9  A    between atoms: C_10  and  C_12
REMARK   10  A    between atoms: C_15  and  S_19
REMARK   11  A    between atoms: S_19  and  C_22
REMARK   12  A    between atoms: C_22  and  C_23
REMARK   13  A    between atoms: C_26  and  C_29
REMARK                            x       y       z     vdW  Elec       q    Type
REMARK                         _______ _______ _______ _____ _____    ______ ____
ROOT
ATOM      1  N   UNL     1       1.586  -2.375   1.067  0.00  0.00    -0.312 N 
ATOM      2  C   UNL     1       0.758  -3.437   1.138  0.00  0.00    +0.248 C 
ATOM      3  O   UNL     1      -0.376  -3.296   1.553  0.00  0.00    -0.270 OA
ATOM      4  H   UNL     1       2.465  -2.472   0.669  0.00  0.00    +0.149 HD
ENDROOT
BRANCH   2   5
ATOM      5  C   UNL     1       1.229  -4.771   0.713  0.00  0.00    +0.092 A 
ATOM      6  C   UNL     1       2.562  -4.979   0.341  0.00  0.00    +0.130 A 
ATOM      7  N   UNL     1       2.940  -6.189  -0.033  0.00  0.00    -0.219 NA
ATOM      8  C   UNL     1       2.083  -7.191  -0.058  0.00  0.00    +0.272 A 
ATOM      9  N   UNL     1       0.818  -7.041   0.283  0.00  0.00    -0.199 NA
ATOM     10  C   UNL     1       0.354  -5.865   0.675  0.00  0.00    +0.146 A 
ATOM     11 CL   UNL     1      -1.311  -5.681   1.130  0.00  0.00    -0.061 Cl
BRANCH   8  12
ATOM     12  S   UNL     1       2.646  -8.782  -0.566  0.00  0.00    +0.036 S 
ATOM     13  O   UNL     1       1.488  -9.431  -1.072  0.00  0.00    -0.166 OA
ATOM     14  O   UNL     1       3.757  -8.520  -1.411  0.00  0.00    -0.166 OA
BRANCH  12  15
ATOM     15  C   UNL     1       3.198  -9.590   0.961  0.00  0.00    +0.210 C 
BRANCH  15  16
ATOM     16  C   UNL     1       3.706 -10.972   0.642  0.00  0.00    -0.026 A 
ATOM     17  C   UNL     1       2.837 -12.048   0.655  0.00  0.00    +0.005 A 
ATOM     18  C   UNL     1       3.303 -13.316   0.363  0.00  0.00    +0.003 A 
ATOM     19  C   UNL     1       4.637 -13.509   0.057  0.00  0.00    -0.050 A 
ATOM     20  C   UNL     1       5.506 -12.434   0.043  0.00  0.00    +0.003 A 
ATOM     21  C   UNL     1       5.039 -11.165   0.332  0.00  0.00    +0.005 A 
ATOM     22  C   UNL     1       5.145 -14.892  -0.261  0.00  0.00    +0.044 C 
ENDBRANCH  15  16
ENDBRANCH  12  15
ENDBRANCH   8  12
ENDBRANCH   2   5
BRANCH   1  23
ATOM     23  C   UNL     1       1.158  -1.076   1.590  0.00  0.00    +0.094 C 
BRANCH  23  24
ATOM     24  C   UNL     1       2.215  -0.020   1.259  0.00  0.00    -0.020 C 
BRANCH  24  25
ATOM     25  C   UNL     1       1.720   1.337   1.688  0.00  0.00    -0.059 A 
ATOM     26  C   UNL     1       0.743   1.441   2.661  0.00  0.00    +0.002 A 
ATOM     27  C   UNL     1       0.290   2.686   3.055  0.00  0.00    +0.000 A 
ATOM     28  C   UNL     1       0.813   3.828   2.476  0.00  0.00    +0.000 A 
ATOM     29  C   UNL     1       1.790   3.724   1.504  0.00  0.00    +0.000 A 
ATOM     30  C   UNL     1       2.247   2.479   1.113  0.00  0.00    +0.002 A 
ENDBRANCH  24  25
BRANCH  24  31
ATOM     31  N   UNL     1       2.466  -0.014  -0.188  0.00  0.00    +0.385 N 
ATOM     32  H   UNL     1       2.355  -0.949  -0.552  0.00  0.00    -0.081 HD
BRANCH  31  34
ATOM     33  C   UNL     1       0.082   0.445  -0.513  0.00  0.00    -0.017 C 
ATOM     34  C   UNL     1       1.509   0.884  -0.848  0.00  0.00    -0.081 C 
ENDBRANCH  31  34
BRANCH  31  35
ATOM     35  C   UNL     1       3.834   0.453  -0.446  0.00  0.00    -0.081 C 
ATOM     36  C   UNL     1       4.833  -0.593   0.054  0.00  0.00    -0.017 C 
ENDBRANCH  31  35
ENDBRANCH  24  31
ENDBRANCH  23  24
ENDBRANCH   1  23
TORSDOF 10
