REMARK  Name = ZINC40988023
REMARK  6 active torsions:
REMARK  status: ('A' for Active; 'I' for Inactive)
REMARK    1  A    between atoms: C_6  and  C_7
REMARK    2  A    between atoms: C_7  and  C_9
REMARK    3  A    between atoms: C_7  and  N_30
REMARK    4  A    between atoms: C_9  and  N_10
REMARK    5  A    between atoms: C_11  and  C_13
REMARK    6  A    between atoms: N_16  and  C_18
REMARK                            x       y       z     vdW  Elec       q    Type
REMARK                         _______ _______ _______ _____ _____    ______ ____
ROOT
ATOM      1  N   UNL     1      -2.829  -2.107   1.409  0.00  0.00    -0.311 N 
ATOM      2  C   UNL     1      -3.332  -2.623   2.548  0.00  0.00    +0.264 C 
ATOM      3  O   UNL     1      -2.743  -2.464   3.599  0.00  0.00    -0.268 OA
ATOM      4  H   UNL     1      -3.300  -2.234   0.570  0.00  0.00    +0.149 HD
ENDROOT
BRANCH   2   5
ATOM      5  C   UNL     1      -4.600  -3.380   2.520  0.00  0.00    +0.150 A 
ATOM      6  C   UNL     1      -5.250  -3.969   3.617  0.00  0.00    +0.006 A 
ATOM      7  C   UNL     1      -6.368  -4.553   3.118  0.00  0.00    +0.044 A 
ATOM      8  N   UNL     1      -6.381  -4.321   1.795  0.00  0.00    -0.263 N 
ATOM      9  N   UNL     1      -5.347  -3.631   1.458  0.00  0.00    -0.166 NA
ATOM     10  C   UNL     1      -7.365  -5.311   3.956  0.00  0.00    +0.055 C 
ATOM     11  C   UNL     1      -6.708  -5.652   5.299  0.00  0.00    +0.006 C 
ATOM     12  C   UNL     1      -6.077  -4.391   5.898  0.00  0.00    +0.005 C 
ATOM     13  C   UNL     1      -4.852  -3.987   5.067  0.00  0.00    +0.039 C 
BRANCH   8  14
ATOM     14  C   UNL     1      -7.422  -4.779   0.872  0.00  0.00    +0.130 C 
ATOM     15  C   UNL     1      -8.065  -3.564   0.183  0.00  0.00    +0.051 C 
ATOM     16  C   UNL     1      -8.930  -4.081  -1.002  0.00  0.00    +0.168 C 
ATOM     17  S   UNL     1      -7.829  -5.398  -1.673  0.00  0.00    -0.029 S 
ATOM     18  O   UNL     1      -7.013  -4.843  -2.696  0.00  0.00    -0.174 OA
ATOM     19  O   UNL     1      -8.608  -6.554  -1.951  0.00  0.00    -0.174 OA
ATOM     20  C   UNL     1      -6.793  -5.715  -0.189  0.00  0.00    +0.192 C 
ENDBRANCH   8  14
ENDBRANCH   2   5
BRANCH   1  21
ATOM     21  C   UNL     1      -1.572  -1.356   1.437  0.00  0.00    +0.094 C 
BRANCH  21  22
ATOM     22  C   UNL     1      -1.295  -0.773   0.050  0.00  0.00    -0.020 C 
BRANCH  22  28
ATOM     23  C   UNL     1      -3.411  -0.154  -1.136  0.00  0.00    +0.003 A 
ATOM     24  C   UNL     1      -4.400   0.755  -1.459  0.00  0.00    +0.020 A 
ATOM     25  C   UNL     1      -4.353   2.040  -0.947  0.00  0.00    +0.041 A 
ATOM     26  C   UNL     1      -3.315   2.413  -0.112  0.00  0.00    +0.020 A 
ATOM     27  C   UNL     1      -2.326   1.503   0.210  0.00  0.00    +0.003 A 
ATOM     28  C   UNL     1      -2.373   0.220  -0.302  0.00  0.00    -0.059 A 
ATOM     29 CL   UNL     1      -5.595   3.183  -1.352  0.00  0.00    -0.084 Cl
ENDBRANCH  22  28
BRANCH  22  30
ATOM     30  N   UNL     1       0.009  -0.097   0.054  0.00  0.00    +0.385 N 
ATOM     31  C   UNL     1       0.248   0.510  -1.260  0.00  0.00    -0.078 C 
ATOM     32  C   UNL     1       1.568   1.284  -1.236  0.00  0.00    -0.019 C 
ATOM     33  C   UNL     1       2.712   0.322  -0.902  0.00  0.00    -0.004 C 
ATOM     34  C   UNL     1       2.415  -0.362   0.436  0.00  0.00    -0.019 C 
ATOM     35  C   UNL     1       1.064  -1.074   0.350  0.00  0.00    -0.078 C 
ATOM     36  H   UNL     1       0.011   0.623   0.761  0.00  0.00    -0.081 HD
ENDBRANCH  22  30
ENDBRANCH  21  22
ENDBRANCH   1  21
TORSDOF 6
