REMARK  Name = ZINC65329931
REMARK  9 active torsions:
REMARK  status: ('A' for Active; 'I' for Inactive)
REMARK    1  A    between atoms: C_1  and  C_2
REMARK    2  A    between atoms: C_2  and  C_3
REMARK    3  A    between atoms: C_8  and  N_9
REMARK    4  A    between atoms: N_11  and  C_12
REMARK    5  A    between atoms: C_12  and  C_13
REMARK    6  A    between atoms: C_13  and  C_14
REMARK    7  A    between atoms: N_23  and  C_24
REMARK    8  A    between atoms: C_24  and  C_26
REMARK    9  A    between atoms: C_31  and  C_32
REMARK                            x       y       z     vdW  Elec       q    Type
REMARK                         _______ _______ _______ _____ _____    ______ ____
ROOT
ATOM      1  N   UNL     1       2.312   0.084  -0.571  0.00  0.00    -0.328 N 
ATOM      2  C   UNL     1       3.325   0.849  -1.075  0.00  0.00    +0.194 C 
ATOM      3  N   UNL     1       3.477   2.139  -0.659  0.00  0.00    -0.357 N 
ATOM      4  N   UNL     1       4.158   0.338  -1.969  0.00  0.00    -0.143 NA
ATOM      5  H   UNL     1       4.196   2.682  -1.018  0.00  0.00    +0.162 HD
ATOM      6  H   UNL     1       1.446   0.077  -1.007  0.00  0.00    +0.169 HD
ENDROOT
BRANCH   1  12
ATOM      7  C   UNL     1       1.457  -1.328   1.192  0.00  0.00    -0.024 A 
ATOM      8  C   UNL     1       1.671  -2.095   2.320  0.00  0.00    +0.005 A 
ATOM      9  C   UNL     1       2.946  -2.223   2.840  0.00  0.00    +0.000 A 
ATOM     10  C   UNL     1       4.011  -1.584   2.231  0.00  0.00    +0.002 A 
ATOM     11  C   UNL     1       3.804  -0.815   1.103  0.00  0.00    +0.026 A 
ATOM     12  C   UNL     1       2.525  -0.689   0.576  0.00  0.00    +0.045 A 
BRANCH   7  14
ATOM     13  C   UNL     1      -0.140  -2.227  -0.478  0.00  0.00    +0.009 C 
ATOM     14  C   UNL     1       0.067  -1.189   0.626  0.00  0.00    +0.034 C 
ENDBRANCH   7  14
ENDBRANCH   1  12
BRANCH   4  15
ATOM     15  C   UNL     1       3.834  -0.786  -2.622  0.00  0.00    +0.270 C 
ATOM     16  O   UNL     1       2.825  -1.398  -2.318  0.00  0.00    -0.268 OA
BRANCH  15  17
ATOM     17  C   UNL     1       4.702  -1.285  -3.713  0.00  0.00    +0.042 A 
ATOM     18  C   UNL     1       5.788  -0.526  -4.147  0.00  0.00    +0.013 A 
ATOM     19  C   UNL     1       6.593  -0.996  -5.164  0.00  0.00    +0.001 A 
ATOM     20  C   UNL     1       6.324  -2.218  -5.754  0.00  0.00    +0.000 A 
ATOM     21  C   UNL     1       5.248  -2.976  -5.328  0.00  0.00    +0.004 A 
ATOM     22  C   UNL     1       4.439  -2.519  -4.308  0.00  0.00    -0.038 A 
ATOM     23  C   UNL     1       3.270  -3.349  -3.841  0.00  0.00    +0.044 C 
ENDBRANCH  15  17
ENDBRANCH   4  15
BRANCH   3  24
ATOM     24  C   UNL     1       2.555   2.704   0.329  0.00  0.00    +0.120 C 
BRANCH  24  25
ATOM     25  C   UNL     1       2.945   4.154   0.619  0.00  0.00    +0.054 C 
BRANCH  25  26
ATOM     26  C   UNL     1       1.997   4.736   1.636  0.00  0.00    -0.040 C 
ATOM     27  C   UNL     1       2.181   4.803   2.974  0.00  0.00    -0.001 A 
ATOM     28  C   UNL     1       3.277   4.372   3.850  0.00  0.00    +0.010 A 
ATOM     29  C   UNL     1       3.172   4.579   5.183  0.00  0.00    +0.001 A 
ATOM     30  C   UNL     1       2.046   5.194   5.746  0.00  0.00    +0.002 A 
ATOM     31  C   UNL     1       0.999   5.617   5.007  0.00  0.00    +0.026 A 
ATOM     32  C   UNL     1       1.003   5.450   3.594  0.00  0.00    +0.043 A 
ATOM     33  N   UNL     1       0.124   5.770   2.675  0.00  0.00    -0.380 N 
ATOM     34  C   UNL     1       0.649   5.367   1.366  0.00  0.00    +0.144 C 
ATOM     35  H   UNL     1      -0.729   6.204   2.834  0.00  0.00    +0.160 HD
ENDBRANCH  25  26
ENDBRANCH  24  25
ENDBRANCH   3  24
TORSDOF 7
