REMARK  Name = ZINC62817200
REMARK  6 active torsions:
REMARK  status: ('A' for Active; 'I' for Inactive)
REMARK    1  A    between atoms: C_1  and  C_2
REMARK    2  A    between atoms: N_7  and  C_9
REMARK    3  A    between atoms: C_9  and  C_19
REMARK    4  A    between atoms: C_11  and  C_18
REMARK    5  A    between atoms: C_14  and  C_16
REMARK    6  A    between atoms: C_14  and  C_17
REMARK                            x       y       z     vdW  Elec       q    Type
REMARK                         _______ _______ _______ _____ _____    ______ ____
ROOT
ATOM      1  C   UNL     1       3.100  -1.458   1.803  0.00  0.00    +0.139 C 
ATOM      2  C   UNL     1       3.051  -2.824   2.491  0.00  0.00    +0.041 C 
ATOM      3  C   UNL     1       3.038  -3.928   1.433  0.00  0.00    -0.011 C 
ATOM      4  C   UNL     1       4.304  -3.832   0.579  0.00  0.00    +0.009 C 
ATOM      5  C   UNL     1       4.353  -2.466  -0.109  0.00  0.00    -0.032 C 
ATOM      6  C   UNL     1       4.366  -1.362   0.950  0.00  0.00    +0.044 C 
ATOM      7  C   UNL     1       3.122  -2.302  -1.002  0.00  0.00    +0.011 C 
ATOM      8  C   UNL     1       5.619  -2.370  -0.963  0.00  0.00    +0.011 C 
ATOM      9  C   UNL     1       2.990  -5.294   2.121  0.00  0.00    +0.007 C 
ENDROOT
BRANCH   1  15
ATOM     10  C   UNL     1      -1.204  -0.565   1.258  0.00  0.00    +0.009 C 
ATOM     11  C   UNL     1      -0.377  -1.389   0.269  0.00  0.00    +0.012 C 
ATOM     12  C   UNL     1       0.441  -0.471  -0.669  0.00  0.00    +0.100 C 
ATOM     13  C   UNL     1       1.783  -0.341   0.017  0.00  0.00    +0.217 C 
ATOM     14  O   UNL     1       2.613   0.506  -0.237  0.00  0.00    -0.276 OA
ATOM     15  N   UNL     1       1.921  -1.300   0.948  0.00  0.00    -0.285 N 
ATOM     16  C   UNL     1       0.739  -2.171   0.997  0.00  0.00    +0.112 C 
ENDBRANCH   1  15
BRANCH   1  17
ATOM     17  C   UNL     1       3.113  -0.370   2.846  0.00  0.00    +0.379 C 
ATOM     18  O   UNL     1       2.220   0.460   2.872  0.00  0.00    -0.244 OA
ATOM     19  O   UNL     1       4.016  -0.321   3.663  0.00  0.00    -0.244 OA
ENDBRANCH   1  17
TORSDOF 2
