REMARK  Name = ZINC16022073
REMARK  7 active torsions:
REMARK  status: ('A' for Active; 'I' for Inactive)
REMARK    1  A    between atoms: C_1  and  C_2
REMARK    2  A    between atoms: C_2  and  C_3
REMARK    3  A    between atoms: C_2  and  C_4
REMARK    4  A    between atoms: C_4  and  C_5
REMARK    5  A    between atoms: N_13  and  C_16
REMARK    6  A    between atoms: C_16  and  C_17
REMARK    7  A    between atoms: C_17  and  C_18
REMARK                            x       y       z     vdW  Elec       q    Type
REMARK                         _______ _______ _______ _____ _____    ______ ____
ROOT
ATOM      1  C   UNL     1      -2.050  -0.348  -1.381  0.00  0.00    -0.057 C 
ATOM      2  C   UNL     1      -3.471  -0.951  -1.424  0.00  0.00    +0.073 C 
ATOM      3  C   UNL     1      -4.320   0.088  -2.209  0.00  0.00    +0.088 C 
ATOM      4  C   UNL     1      -4.695  -0.653  -3.473  0.00  0.00    +0.225 C 
ATOM      5  O   UNL     1      -5.363  -0.201  -4.377  0.00  0.00    -0.275 OA
ATOM      6  N   UNL     1      -4.175  -1.885  -3.437  0.00  0.00    -0.241 N 
ATOM      7  C   UNL     1      -3.466  -2.169  -2.320  0.00  0.00    +0.224 C 
ATOM      8  O   UNL     1      -2.914  -3.219  -2.071  0.00  0.00    -0.275 OA
ATOM      9  C   UNL     1      -3.342   1.225  -2.529  0.00  0.00    +0.050 C 
ATOM     10  N   UNL     1      -2.249   1.115  -1.551  0.00  0.00    +0.394 N 
ATOM     11  C   UNL     1      -4.017   2.566  -2.475  0.00  0.00    -0.028 A 
ATOM     12  C   UNL     1      -4.693   3.248  -1.488  0.00  0.00    +0.004 A 
ATOM     13  C   UNL     1      -5.216   4.502  -1.748  0.00  0.00    +0.000 A 
ATOM     14  C   UNL     1      -5.059   5.068  -3.000  0.00  0.00    +0.002 A 
ATOM     15  C   UNL     1      -4.384   4.387  -3.992  0.00  0.00    +0.023 A 
ATOM     16  C   UNL     1      -3.854   3.124  -3.739  0.00  0.00    +0.036 A 
ATOM     17  N   UNL     1      -3.143   2.251  -4.565  0.00  0.00    -0.286 N 
ATOM     18  C   UNL     1      -2.806   1.112  -3.930  0.00  0.00    +0.211 C 
ATOM     19  O   UNL     1      -2.189   0.178  -4.396  0.00  0.00    -0.277 OA
ATOM     20  H   UNL     1      -2.526   1.538  -0.678  0.00  0.00    -0.083 HD
ATOM     21  H   UNL     1      -2.918   2.442  -5.489  0.00  0.00    +0.155 HD
ATOM     22  H   UNL     1      -1.408   1.547  -1.903  0.00  0.00    -0.083 HD
ENDROOT
BRANCH   1  23
ATOM     23  C   UNL     1      -1.388  -0.642  -0.033  0.00  0.00    -0.012 C 
BRANCH  23  25
ATOM     24  C   UNL     1       0.632  -0.219   1.375  0.00  0.00    +0.007 C 
ATOM     25  C   UNL     1       0.024  -0.053  -0.019  0.00  0.00    -0.019 C 
ATOM     26  C   UNL     1       0.892  -0.784  -1.045  0.00  0.00    +0.007 C 
ENDBRANCH  23  25
ENDBRANCH   1  23
BRANCH   6  27
ATOM     27  C   UNL     1      -4.361  -2.855  -4.519  0.00  0.00    +0.121 C 
BRANCH  27  28
ATOM     28  C   UNL     1      -3.230  -2.707  -5.538  0.00  0.00    +0.054 C 
BRANCH  28  29
ATOM     29  C   UNL     1      -3.422  -3.705  -6.651  0.00  0.00    -0.046 A 
ATOM     30  C   UNL     1      -2.863  -4.965  -6.552  0.00  0.00    +0.004 A 
ATOM     31  C   UNL     1      -3.039  -5.881  -7.573  0.00  0.00    +0.000 A 
ATOM     32  C   UNL     1      -3.775  -5.536  -8.692  0.00  0.00    +0.000 A 
ATOM     33  C   UNL     1      -4.334  -4.276  -8.790  0.00  0.00    +0.000 A 
ATOM     34  C   UNL     1      -4.162  -3.362  -7.767  0.00  0.00    +0.004 A 
ENDBRANCH  28  29
ENDBRANCH  27  28
ENDBRANCH   6  27
TORSDOF 5
