REMARK  Name = ZINC14990372
REMARK  5 active torsions:
REMARK  status: ('A' for Active; 'I' for Inactive)
REMARK    1  A    between atoms: C_8  and  C_10
REMARK    2  A    between atoms: C_10  and  N_67
REMARK    3  A    between atoms: C_22  and  C_24
REMARK    4  A    between atoms: C_24  and  C_25
REMARK    5  A    between atoms: C_28  and  N_31
REMARK                            x       y       z     vdW  Elec       q    Type
REMARK                         _______ _______ _______ _____ _____    ______ ____
ROOT
ATOM      1  C   UNL     1       4.979   6.885  -4.731  0.00  0.00    -0.077 C 
ATOM      2  C   UNL     1       4.424   6.607  -3.333  0.00  0.00    +0.004 C 
ATOM      3  C   UNL     1       4.454   5.101  -3.062  0.00  0.00    +0.076 C 
ATOM      4  C   UNL     1       5.884   4.591  -3.227  0.00  0.00    -0.007 C 
ATOM      5  C   UNL     1       6.399   4.941  -4.622  0.00  0.00    -0.073 C 
ATOM      6  C   UNL     1       6.780   5.235  -2.168  0.00  0.00    +0.005 C 
ATOM      7  C   UNL     1       6.285   4.844  -0.773  0.00  0.00    +0.019 C 
ATOM      8  C   UNL     1       4.855   5.357  -0.580  0.00  0.00    +0.108 C 
ATOM      9  N   UNL     1       4.019   4.856  -1.679  0.00  0.00    -0.298 N 
ATOM     10  C   UNL     1       2.880   4.182  -1.425  0.00  0.00    +0.220 C 
ATOM     11  O   UNL     1       2.199   3.774  -2.343  0.00  0.00    -0.275 OA
ATOM     12  N   UNL     1       6.371   6.397  -4.798  0.00  0.00    +0.383 N 
ATOM     13  H   UNL     1       6.915   6.835  -4.044  0.00  0.00    -0.081 HD
ENDROOT
BRANCH  12  14
ATOM     14  C   UNL     1       6.973   6.761  -6.098  0.00  0.00    -0.036 C 
BRANCH  14  22
ATOM     15  C   UNL     1       3.212   4.948 -10.784  0.00  0.00    +0.001 A 
ATOM     16  C   UNL     1       3.903   3.753 -10.935  0.00  0.00    +0.001 A 
ATOM     17  C   UNL     1       4.980   3.482 -10.116  0.00  0.00    +0.015 A 
ATOM     18  C   UNL     1       5.355   4.401  -9.160  0.00  0.00    +0.020 A 
ATOM     19  C   UNL     1       4.671   5.623  -8.985  0.00  0.00    -0.011 A 
ATOM     20  C   UNL     1       3.572   5.863  -9.844  0.00  0.00    +0.009 A 
ATOM     21  C   UNL     1       5.200   6.469  -7.926  0.00  0.00    +0.017 A 
ATOM     22  C   UNL     1       6.264   6.053  -7.223  0.00  0.00    -0.026 A 
ATOM     23  S   UNL     1       6.636   4.461  -7.934  0.00  0.00    -0.095 S 
ENDBRANCH  14  22
ENDBRANCH  12  14
BRANCH  10  24
ATOM     24  C   UNL     1       2.452   3.935  -0.002  0.00  0.00    +0.131 C 
BRANCH  24  25
ATOM     25  C   UNL     1       1.156   3.166   0.007  0.00  0.00    -0.039 A 
ATOM     26  C   UNL     1       1.174   1.783   0.016  0.00  0.00    +0.006 A 
ATOM     27  C   UNL     1      -0.013   1.076   0.023  0.00  0.00    +0.024 A 
ATOM     28  C   UNL     1      -1.224   1.754   0.017  0.00  0.00    +0.038 A 
ATOM     29  C   UNL     1      -1.239   3.143   0.014  0.00  0.00    +0.024 A 
ATOM     30  C   UNL     1      -0.049   3.845   0.006  0.00  0.00    +0.006 A 
BRANCH  28  31
ATOM     31  N   UNL     1      -2.428   1.040   0.020  0.00  0.00    -0.254 N 
ATOM     32  C   UNL     1      -3.769   1.632   0.140  0.00  0.00    +0.134 C 
ATOM     33  C   UNL     1      -4.715   0.416   0.083  0.00  0.00    +0.125 C 
ATOM     34  N   UNL     1      -3.805  -0.731  -0.054  0.00  0.00    -0.297 N 
ATOM     35  C   UNL     1      -2.541  -0.290  -0.082  0.00  0.00    +0.307 C 
ATOM     36  O   UNL     1      -1.583  -1.031  -0.189  0.00  0.00    -0.252 OA
ATOM     37  H   UNL     1      -4.078  -1.660  -0.116  0.00  0.00    +0.150 HD
ENDBRANCH  28  31
ENDBRANCH  24  25
ENDBRANCH  10  24
TORSDOF 5
