REMARK  Name = ZINC36313636
REMARK  12 active torsions:
REMARK  status: ('A' for Active; 'I' for Inactive)
REMARK    1  A    between atoms: C_1  and  C_2
REMARK    2  A    between atoms: C_2  and  C_3
REMARK    3  A    between atoms: C_2  and  C_4
REMARK    4  A    between atoms: C_4  and  C_5
REMARK    5  A    between atoms: C_5  and  N_6
REMARK    6  A    between atoms: N_6  and  C_7
REMARK    7  A    between atoms: N_6  and  C_24
REMARK    8  A    between atoms: C_7  and  C_8
REMARK    9  A    between atoms: C_24  and  C_25
REMARK   10  A    between atoms: C_25  and  C_26
REMARK   11  A    between atoms: C_25  and  C_27
REMARK   12  A    between atoms: C_25  and  O_29
REMARK                            x       y       z     vdW  Elec       q    Type
REMARK                         _______ _______ _______ _____ _____    ______ ____
ROOT
ATOM      1  C   UNL     1      -3.825  -4.689  -0.883  0.00  0.00    +0.094 A 
ATOM      2  N   UNL     1      -3.762  -5.967  -1.338  0.00  0.00    -0.312 N 
ATOM      3  H   UNL     1      -2.896  -6.383  -1.466  0.00  0.00    +0.170 HD
ATOM      4  C   UNL     1      -4.878  -6.667  -1.615  0.00  0.00    +0.260 A 
ATOM      5  O   UNL     1      -4.805  -7.814  -2.022  0.00  0.00    -0.267 OA
ATOM      6  C   UNL     1      -6.153  -6.042  -1.422  0.00  0.00    +0.075 A 
ATOM      7  C   UNL     1      -7.484  -6.609  -1.656  0.00  0.00    -0.023 A 
ATOM      8  C   UNL     1      -8.538  -5.807  -1.400  0.00  0.00    -0.004 A 
ATOM      9  S   UNL     1      -7.832  -4.282  -0.831  0.00  0.00    -0.073 S 
ATOM     10  C   UNL     1      -6.118  -4.722  -0.949  0.00  0.00    +0.116 A 
ATOM     11  N   UNL     1      -4.973  -4.095  -0.692  0.00  0.00    -0.229 NA
ATOM     12  C   UNL     1      -9.993  -6.120  -1.568  0.00  0.00    +0.043 C 
ATOM     13  C   UNL     1     -10.299  -7.471  -0.909  0.00  0.00    +0.005 C 
ATOM     14  C   UNL     1     -10.096  -8.570  -1.947  0.00  0.00    +0.001 C 
ATOM     15  C   UNL     1      -8.971  -8.182  -2.905  0.00  0.00    +0.005 C 
ATOM     16  C   UNL     1      -7.653  -8.042  -2.154  0.00  0.00    +0.037 C 
ENDROOT
BRANCH   1  17
ATOM     17  C   UNL     1      -2.549  -3.945  -0.588  0.00  0.00    -0.003 C 
BRANCH  17  18
ATOM     18  N   UNL     1      -2.862  -2.552  -0.241  0.00  0.00    +0.386 N 
ATOM     19  H   UNL     1      -3.545  -2.537   0.502  0.00  0.00    -0.081 HD
BRANCH  18  20
ATOM     20  C   UNL     1      -1.639  -1.871   0.204  0.00  0.00    -0.078 C 
BRANCH  20  21
ATOM     21  C   UNL     1      -1.992  -0.474   0.718  0.00  0.00    -0.016 C 
BRANCH  21  23
ATOM     22  C   UNL     1      -1.052   1.675   1.578  0.00  0.00    +0.007 C 
ATOM     23  C   UNL     1      -0.718   0.236   1.181  0.00  0.00    -0.019 C 
ATOM     24  C   UNL     1      -0.132  -0.503   2.386  0.00  0.00    +0.007 C 
ENDBRANCH  21  23
ENDBRANCH  20  21
ENDBRANCH  18  20
BRANCH  18  25
ATOM     25  C   UNL     1      -3.405  -1.864  -1.419  0.00  0.00    -0.039 C 
BRANCH  25  26
ATOM     26  C   UNL     1      -2.652  -2.322  -2.670  0.00  0.00    +0.067 C 
ATOM     27  C   UNL     1      -1.149  -2.137  -2.456  0.00  0.00    +0.044 C 
BRANCH  26  28
ATOM     28  C   UNL     1      -3.096  -1.501  -3.853  0.00  0.00    -0.003 C 
ATOM     29  C   UNL     1      -3.643  -2.088  -4.889  0.00  0.00    +0.006 C 
ENDBRANCH  26  28
BRANCH  26  30
ATOM     30  O   UNL     1      -2.932  -3.702  -2.915  0.00  0.00    -0.387 OA
ATOM     31  H   UNL     1      -3.869  -3.894  -3.060  0.00  0.00    +0.210 HD
ENDBRANCH  26  30
ENDBRANCH  25  26
ENDBRANCH  18  25
ENDBRANCH  17  18
ENDBRANCH   1  17
TORSDOF 9
