REMARK  Name = ZINC38970716
REMARK  7 active torsions:
REMARK  status: ('A' for Active; 'I' for Inactive)
REMARK    1  A    between atoms: C_1  and  C_2
REMARK    2  A    between atoms: C_5  and  N_8
REMARK    3  A    between atoms: N_8  and  C_9
REMARK    4  A    between atoms: N_12  and  S_13
REMARK    5  A    between atoms: S_13  and  C_16
REMARK    6  A    between atoms: C_19  and  C_23
REMARK    7  A    between atoms: C_20  and  C_22
REMARK                            x       y       z     vdW  Elec       q    Type
REMARK                         _______ _______ _______ _____ _____    ______ ____
ROOT
ATOM      1  C   UNL     1       0.185  -4.905   1.238  0.00  0.00    +0.237 C 
ATOM      2  C   UNL     1       1.356  -5.852   1.103  0.00  0.00    +0.192 C 
ATOM      3  N   UNL     1       2.542  -5.398   0.824  0.00  0.00    -0.110 NA
ATOM      4  N   UNL     1       1.153  -7.168   1.275  0.00  0.00    -0.226 NA
ATOM      5  C   UNL     1      -0.038  -7.652   1.558  0.00  0.00    +0.089 A 
ATOM      6  C   UNL     1      -0.216  -9.048   1.733  0.00  0.00    +0.030 A 
ATOM      7  C   UNL     1      -1.436  -9.550   2.023  0.00  0.00    +0.002 A 
ATOM      8  C   UNL     1      -2.576  -8.741   2.166  0.00  0.00    +0.002 A 
ATOM      9  C   UNL     1      -2.518  -7.399   2.019  0.00  0.00    +0.027 A 
ATOM     10  C   UNL     1      -1.226  -6.774   1.703  0.00  0.00    +0.063 A 
ATOM     11  N   UNL     1      -1.131  -5.482   1.555  0.00  0.00    -0.359 N 
ATOM     12  H   UNL     1      -1.912  -4.915   1.651  0.00  0.00    +0.162 HD
ENDROOT
BRANCH   3  13
ATOM     13  S   UNL     1       3.816  -6.446   0.679  0.00  0.00    +0.100 S 
ATOM     14  O   UNL     1       4.032  -7.004   1.967  0.00  0.00    -0.146 OA
ATOM     15  O   UNL     1       3.554  -7.248  -0.465  0.00  0.00    -0.146 OA
BRANCH  13  16
ATOM     16  C   UNL     1       5.243  -5.482   0.302  0.00  0.00    +0.113 A 
ATOM     17  C   UNL     1       5.569  -5.216  -1.015  0.00  0.00    +0.029 A 
ATOM     18  C   UNL     1       6.688  -4.461  -1.311  0.00  0.00    +0.005 A 
ATOM     19  C   UNL     1       7.480  -3.970  -0.290  0.00  0.00    -0.047 A 
ATOM     20  C   UNL     1       7.153  -4.235   1.027  0.00  0.00    -0.046 A 
ATOM     21  C   UNL     1       6.032  -4.987   1.323  0.00  0.00    +0.032 A 
ATOM     22  C   UNL     1       8.017  -3.700   2.140  0.00  0.00    +0.044 C 
ATOM     23  C   UNL     1       8.701  -3.147  -0.612  0.00  0.00    +0.044 C 
ENDBRANCH  13  16
ENDBRANCH   3  13
BRANCH   1  24
ATOM     24  N   UNL     1       0.058  -4.167  -0.021  0.00  0.00    -0.318 N 
ATOM     25  H   UNL     1       0.023  -4.648  -0.863  0.00  0.00    +0.148 HD
BRANCH  24  30
ATOM     26  C   UNL     1      -0.226   1.496   0.028  0.00  0.00    +0.044 C 
ATOM     27  C   UNL     1      -0.151  -0.009   0.015  0.00  0.00    -0.050 A 
ATOM     28  C   UNL     1      -0.200  -0.712   1.204  0.00  0.00    +0.005 A 
ATOM     29  C   UNL     1      -0.132  -2.092   1.196  0.00  0.00    +0.023 A 
ATOM     30  C   UNL     1      -0.012  -2.772  -0.009  0.00  0.00    +0.029 A 
ATOM     31  C   UNL     1       0.037  -2.063  -1.202  0.00  0.00    +0.023 A 
ATOM     32  C   UNL     1      -0.038  -0.684  -1.187  0.00  0.00    +0.005 A 
ENDBRANCH  24  30
ENDBRANCH   1  24
TORSDOF 4
