REMARK  Name = ZINC10774975
REMARK  10 active torsions:
REMARK  status: ('A' for Active; 'I' for Inactive)
REMARK    1  A    between atoms: C_1  and  C_2
REMARK    2  A    between atoms: C_2  and  C_3
REMARK    3  A    between atoms: C_2  and  N_62
REMARK    4  A    between atoms: C_9  and  N_15
REMARK    5  A    between atoms: C_10  and  C_11
REMARK    6  A    between atoms: C_11  and  O_13
REMARK    7  A    between atoms: O_13  and  C_14
REMARK    8  A    between atoms: C_16  and  C_18
REMARK    9  A    between atoms: N_24  and  S_25
REMARK   10  A    between atoms: S_25  and  C_28
REMARK                            x       y       z     vdW  Elec       q    Type
REMARK                         _______ _______ _______ _____ _____    ______ ____
ROOT
ATOM      1  N   UNL     1       3.963  -0.353   0.113  0.00  0.00    -0.278 N 
ATOM      2  C   UNL     1       4.804   0.696   0.015  0.00  0.00    +0.236 C 
ATOM      3  O   UNL     1       4.361   1.822  -0.074  0.00  0.00    -0.274 OA
ATOM      4  H   UNL     1       4.318  -1.253   0.184  0.00  0.00    +0.155 HD
ENDROOT
BRANCH   1  10
ATOM      5  C   UNL     1      -2.219  -0.611   0.656  0.00  0.00    -0.073 C 
ATOM      6  C   UNL     1      -1.026  -1.491   0.275  0.00  0.00    +0.018 C 
ATOM      7  C   UNL     1       0.210  -0.603   0.182  0.00  0.00    -0.025 A 
ATOM      8  C   UNL     1       0.075   0.737   0.071  0.00  0.00    -0.021 A 
ATOM      9  S   UNL     1       1.731   1.354  -0.001  0.00  0.00    -0.079 S 
ATOM     10  C   UNL     1       2.593  -0.145   0.113  0.00  0.00    +0.086 A 
ATOM     11  C   UNL     1       1.577  -1.089   0.204  0.00  0.00    +0.091 A 
ATOM     12  C   UNL     1      -1.212   1.500   0.018  0.00  0.00    -0.035 C 
ATOM     13  N   UNL     1      -2.300   0.535  -0.274  0.00  0.00    +0.384 N 
ATOM     14  H   UNL     1      -2.193   0.192  -1.236  0.00  0.00    -0.081 HD
BRANCH  13  16
ATOM     15  C   UNL     1      -3.664   2.394  -1.099  0.00  0.00    -0.014 C 
ATOM     16  C   UNL     1      -3.614   1.200  -0.144  0.00  0.00    -0.074 C 
ATOM     17  C   UNL     1      -4.714   0.203  -0.517  0.00  0.00    -0.014 C 
ENDBRANCH  13  16
BRANCH  11  18
ATOM     18  C   UNL     1       1.875  -2.518   0.320  0.00  0.00    +0.342 C 
ATOM     19  O   UNL     1       1.984  -3.200  -0.682  0.00  0.00    -0.245 OA
BRANCH  18  20
ATOM     20  O   UNL     1       2.027  -3.080   1.537  0.00  0.00    -0.464 OA
ATOM     21  C   UNL     1       2.321  -4.501   1.575  0.00  0.00    +0.280 C 
ENDBRANCH  18  20
ENDBRANCH  11  18
ENDBRANCH   1  10
BRANCH   2  22
ATOM     22  C   UNL     1       6.294   0.471   0.015  0.00  0.00    +0.166 C 
ATOM     23  C   UNL     1       6.885   0.943  -1.317  0.00  0.00    +0.030 C 
ATOM     24  C   UNL     1       8.411   0.841  -1.258  0.00  0.00    +0.003 C 
ATOM     25  C   UNL     1       8.942   1.748  -0.146  0.00  0.00    +0.017 C 
ATOM     26  C   UNL     1       8.374   1.285   1.200  0.00  0.00    +0.110 C 
ATOM     27  N   UNL     1       6.908   1.239   1.107  0.00  0.00    -0.164 NA
BRANCH  27  28
ATOM     28  S   UNL     1       5.966   2.040   2.208  0.00  0.00    +0.068 S 
ATOM     29  O   UNL     1       4.699   1.398   2.202  0.00  0.00    -0.152 OA
ATOM     30  O   UNL     1       6.747   2.174   3.388  0.00  0.00    -0.152 OA
BRANCH  28  31
ATOM     31  C   UNL     1       5.709   3.668   1.587  0.00  0.00    +0.143 A 
ATOM     32  C   UNL     1       4.645   4.165   0.910  0.00  0.00    +0.036 A 
ATOM     33  C   UNL     1       4.660   5.490   0.516  0.00  0.00    +0.010 A 
ATOM     34  C   UNL     1       5.739   6.254   0.820  0.00  0.00    +0.047 A 
ATOM     35  S   UNL     1       6.778   5.094   1.693  0.00  0.00    -0.077 S 
ENDBRANCH  28  31
ENDBRANCH  27  28
ENDBRANCH   2  22
TORSDOF 7
