REMARK  Name = ZINC10211411
REMARK  11 active torsions:
REMARK  status: ('A' for Active; 'I' for Inactive)
REMARK    1  A    between atoms: C_1  and  C_2
REMARK    2  A    between atoms: C_5  and  N_9
REMARK    3  A    between atoms: C_6  and  C_8
REMARK    4  A    between atoms: C_19  and  S_20
REMARK    5  A    between atoms: S_20  and  C_21
REMARK    6  A    between atoms: C_21  and  C_23
REMARK    7  A    between atoms: C_21  and  C_24
REMARK    8  A    between atoms: C_24  and  C_26
REMARK    9  A    between atoms: C_27  and  N_36
REMARK   10  A    between atoms: N_28  and  C_35
REMARK   11  A    between atoms: N_31  and  C_34
REMARK                            x       y       z     vdW  Elec       q    Type
REMARK                         _______ _______ _______ _____ _____    ______ ____
ROOT
ATOM      1  N   UNL     1      -2.091   5.658  -0.321  0.00  0.00    -0.255 N 
ATOM      2  C   UNL     1      -2.653   6.064   0.841  0.00  0.00    +0.267 A 
ATOM      3  O   UNL     1      -2.018   6.075   1.879  0.00  0.00    -0.267 OA
ATOM      4  C   UNL     1      -4.057   6.495   0.803  0.00  0.00    +0.065 A 
ATOM      5  C   UNL     1      -4.724   6.934   1.946  0.00  0.00    +0.015 A 
ATOM      6  C   UNL     1      -6.033   7.319   1.856  0.00  0.00    +0.001 A 
ATOM      7  C   UNL     1      -6.703   7.278   0.640  0.00  0.00    +0.002 A 
ATOM      8  C   UNL     1      -6.074   6.852  -0.495  0.00  0.00    +0.028 A 
ATOM      9  C   UNL     1      -4.736   6.452  -0.436  0.00  0.00    +0.079 A 
ATOM     10  N   UNL     1      -4.074   6.022  -1.536  0.00  0.00    -0.223 NA
ATOM     11  C   UNL     1      -2.820   5.647  -1.478  0.00  0.00    +0.177 A 
ENDROOT
BRANCH   1  16
ATOM     12  C   UNL     1       3.326   3.970  -0.390  0.00  0.00    +0.044 C 
ATOM     13  C   UNL     1       1.887   4.418  -0.372  0.00  0.00    -0.050 A 
ATOM     14  C   UNL     1       1.576   5.747  -0.594  0.00  0.00    +0.005 A 
ATOM     15  C   UNL     1       0.259   6.161  -0.577  0.00  0.00    +0.027 A 
ATOM     16  C   UNL     1      -0.754   5.242  -0.338  0.00  0.00    +0.055 A 
ATOM     17  C   UNL     1      -0.439   3.907  -0.122  0.00  0.00    -0.026 A 
ATOM     18  C   UNL     1       0.881   3.500  -0.134  0.00  0.00    +0.008 A 
ATOM     19  C   UNL     1      -1.535   2.904   0.131  0.00  0.00    +0.046 C 
ENDBRANCH   1  16
BRANCH  11  20
ATOM     20  S   UNL     1      -2.037   5.103  -2.960  0.00  0.00    -0.076 S 
BRANCH  20  21
ATOM     21  C   UNL     1      -3.409   5.287  -4.126  0.00  0.00    +0.122 C 
ATOM     22  C   UNL     1      -3.773   6.767  -4.254  0.00  0.00    +0.028 C 
BRANCH  21  23
ATOM     23  C   UNL     1      -2.997   4.753  -5.474  0.00  0.00    +0.185 C 
ATOM     24  O   UNL     1      -1.822   4.717  -5.780  0.00  0.00    -0.291 OA
BRANCH  23  25
ATOM     25  C   UNL     1      -3.977   4.294  -6.380  0.00  0.00    +0.121 A 
ATOM     26  C   UNL     1      -3.613   3.676  -7.589  0.00  0.00    +0.116 A 
ATOM     27  N   UNL     1      -4.598   3.243  -8.431  0.00  0.00    -0.284 N 
ATOM     28  C   UNL     1      -5.895   3.407  -8.131  0.00  0.00    +0.333 A 
ATOM     29  O   UNL     1      -6.733   3.008  -8.916  0.00  0.00    -0.246 OA
ATOM     30  N   UNL     1      -6.302   3.994  -6.994  0.00  0.00    -0.263 N 
ATOM     31  C   UNL     1      -5.408   4.451  -6.093  0.00  0.00    +0.269 A 
ATOM     32  O   UNL     1      -5.780   4.983  -5.063  0.00  0.00    -0.267 OA
ATOM     33  C   UNL     1      -7.735   4.141  -6.729  0.00  0.00    +0.157 C 
ATOM     34  C   UNL     1      -4.229   2.592  -9.691  0.00  0.00    +0.155 C 
BRANCH  26  35
ATOM     35  N   UNL     1      -2.303   3.507  -7.913  0.00  0.00    -0.344 N 
ATOM     36  H   UNL     1      -1.630   3.485  -7.215  0.00  0.00    +0.144 HD
ATOM     37  H   UNL     1      -2.041   3.408  -8.842  0.00  0.00    +0.144 HD
ENDBRANCH  26  35
ENDBRANCH  23  25
ENDBRANCH  21  23
ENDBRANCH  20  21
ENDBRANCH  11  20
TORSDOF 6
