REMARK  Name = ZINC13008786
REMARK  12 active torsions:
REMARK  status: ('A' for Active; 'I' for Inactive)
REMARK    1  A    between atoms: C_1  and  N_61
REMARK    2  A    between atoms: C_2  and  N_61
REMARK    3  A    between atoms: C_3  and  C_5
REMARK    4  A    between atoms: C_3  and  C_30
REMARK    5  A    between atoms: C_3  and  N_61
REMARK    6  A    between atoms: C_5  and  N_6
REMARK    7  A    between atoms: C_7  and  C_9
REMARK    8  A    between atoms: C_9  and  C_10
REMARK    9  A    between atoms: C_10  and  C_11
REMARK   10  A    between atoms: C_20  and  C_21
REMARK   11  A    between atoms: C_24  and  O_27
REMARK   12  A    between atoms: O_27  and  C_28
REMARK                            x       y       z     vdW  Elec       q    Type
REMARK                         _______ _______ _______ _____ _____    ______ ____
ROOT
ATOM      1  C   UNL     1      -3.502   4.540   4.684  0.00  0.00    -0.014 A 
ATOM      2  C   UNL     1      -4.750   5.275   4.481  0.00  0.00    +0.006 A 
ATOM      3  C   UNL     1      -6.021   4.915   4.026  0.00  0.00    +0.048 A 
ATOM      4  C   UNL     1      -7.013   5.868   3.949  0.00  0.00    +0.124 A 
ATOM      5  C   UNL     1      -6.754   7.183   4.321  0.00  0.00    +0.040 A 
ATOM      6  C   UNL     1      -5.505   7.552   4.771  0.00  0.00    +0.029 A 
ATOM      7  C   UNL     1      -4.489   6.606   4.858  0.00  0.00    +0.047 A 
ATOM      8  N   UNL     1      -3.172   6.671   5.261  0.00  0.00    -0.354 N 
ATOM      9  H   UNL     1      -2.723   7.472   5.574  0.00  0.00    +0.166 HD
ATOM     10  C   UNL     1      -2.592   5.428   5.158  0.00  0.00    +0.051 A 
ATOM     11  F   UNL     1      -8.243   5.524   3.509  0.00  0.00    -0.205 F 
ENDROOT
BRANCH  10  12
ATOM     12  C   UNL     1      -1.192   5.109   5.508  0.00  0.00    -0.001 A 
ATOM     13  C   UNL     1      -0.900   3.966   6.254  0.00  0.00    +0.013 A 
ATOM     14  C   UNL     1       0.408   3.669   6.573  0.00  0.00    +0.046 A 
ATOM     15  C   UNL     1       1.433   4.511   6.163  0.00  0.00    +0.120 A 
ATOM     16  C   UNL     1       1.146   5.651   5.425  0.00  0.00    +0.046 A 
ATOM     17  C   UNL     1      -0.158   5.952   5.097  0.00  0.00    +0.013 A 
BRANCH  15  18
ATOM     18  O   UNL     1       2.720   4.218   6.485  0.00  0.00    -0.495 OA
ATOM     19  C   UNL     1       2.945   3.029   7.245  0.00  0.00    +0.277 C 
ENDBRANCH  15  18
ENDBRANCH  10  12
BRANCH   1  20
ATOM     20  C   UNL     1      -3.272   3.074   4.421  0.00  0.00    +0.047 C 
BRANCH  20  21
ATOM     21  C   UNL     1      -2.795   2.883   2.980  0.00  0.00    +0.100 C 
BRANCH  21  23
ATOM     22  N   UNL     1      -2.139   1.008   1.507  0.00  0.00    -0.316 N 
ATOM     23  C   UNL     1      -2.565   1.417   2.718  0.00  0.00    +0.213 C 
ATOM     24  O   UNL     1      -2.764   0.605   3.597  0.00  0.00    -0.276 OA
ATOM     25  H   UNL     1      -1.980   1.657   0.804  0.00  0.00    +0.149 HD
BRANCH  22  26
ATOM     26  C   UNL     1      -1.916  -0.418   1.252  0.00  0.00    +0.096 C 
BRANCH  26  27
ATOM     27  C   UNL     1      -1.318  -0.598  -0.145  0.00  0.00    +0.016 C 
BRANCH  27  28
ATOM     28  C   UNL     1      -0.966  -2.048  -0.357  0.00  0.00    +0.093 A 
ATOM     29  C   UNL     1      -1.619  -2.907  -1.161  0.00  0.00    +0.043 A 
ATOM     30  C   UNL     1      -0.954  -4.151  -1.057  0.00  0.00    +0.041 A 
ATOM     31  C   UNL     1       0.065  -3.977  -0.197  0.00  0.00    +0.195 A 
ATOM     32  O   UNL     1       0.057  -2.700   0.219  0.00  0.00    -0.469 OA
ENDBRANCH  27  28
BRANCH  27  35
ATOM     33  C   UNL     1       0.911  -0.189   0.706  0.00  0.00    -0.096 C 
ATOM     34  C   UNL     1       0.425   0.173  -1.638  0.00  0.00    -0.096 C 
ATOM     35  N   UNL     1      -0.114   0.250  -0.264  0.00  0.00    +0.384 N 
ATOM     36  H   UNL     1      -0.370   1.224  -0.060  0.00  0.00    -0.082 HD
ENDBRANCH  27  35
ENDBRANCH  26  27
ENDBRANCH  22  26
ENDBRANCH  21  23
ENDBRANCH  20  21
ENDBRANCH   1  20
TORSDOF 9
