REMARK  Name = ZINC16104001
REMARK  5 active torsions:
REMARK  status: ('A' for Active; 'I' for Inactive)
REMARK    1  A    between atoms: C_6  and  C_7
REMARK    2  A    between atoms: C_10  and  S_12
REMARK    3  A    between atoms: S_12  and  C_13
REMARK    4  A    between atoms: C_13  and  C_14
REMARK    5  A    between atoms: N_16  and  C_17
REMARK                            x       y       z     vdW  Elec       q    Type
REMARK                         _______ _______ _______ _____ _____    ______ ____
ROOT
ATOM      1  C   UNL     1       3.538   3.227   0.086  0.00  0.00    +0.228 C 
ATOM      2  O   UNL     1       3.556   2.014   0.080  0.00  0.00    -0.275 OA
ATOM      3  N   UNL     1       2.365   3.884  -0.001  0.00  0.00    -0.285 N 
ATOM      4  H   UNL     1       2.355   4.851  -0.073  0.00  0.00    +0.155 HD
ENDROOT
BRANCH   3   5
ATOM      5  C   UNL     1       1.159   3.170   0.013  0.00  0.00    +0.037 A 
ATOM      6  C   UNL     1       1.052   2.004   0.759  0.00  0.00    +0.027 A 
ATOM      7  C   UNL     1      -0.136   1.299   0.774  0.00  0.00    +0.051 A 
ATOM      8  C   UNL     1      -1.222   1.750   0.040  0.00  0.00    +0.173 A 
ATOM      9  C   UNL     1      -1.119   2.922  -0.704  0.00  0.00    +0.174 A 
ATOM     10  C   UNL     1       0.072   3.629  -0.719  0.00  0.00    +0.073 A 
ATOM     11  O   UNL     1      -2.313   3.152  -1.324  0.00  0.00    -0.395 OA
ATOM     12  C   UNL     1      -3.013   1.890  -1.287  0.00  0.00    +0.589 C 
ATOM     13  O   UNL     1      -2.481   1.243  -0.116  0.00  0.00    -0.395 OA
ATOM     14  F   UNL     1      -2.743   1.133  -2.432  0.00  0.00    -0.125 F 
ATOM     15  F   UNL     1      -4.389   2.099  -1.150  0.00  0.00    -0.125 F 
ENDBRANCH   3   5
BRANCH   1  16
ATOM     16  C   UNL     1       4.828   3.999   0.190  0.00  0.00    +0.175 C 
BRANCH  16  17
ATOM     17  S   UNL     1       6.217   2.843   0.290  0.00  0.00    -0.056 S 
BRANCH  17  21
ATOM     18  C   UNL     1       9.531   4.843   0.558  0.00  0.00    +0.249 A 
ATOM     19  N   UNL     1       8.641   5.803   0.496  0.00  0.00    -0.106 NA
ATOM     20  N   UNL     1       7.465   5.292   0.402  0.00  0.00    -0.101 NA
ATOM     21  C   UNL     1       7.556   3.982   0.401  0.00  0.00    +0.278 A 
ATOM     22  O   UNL     1       8.862   3.669   0.505  0.00  0.00    -0.411 OA
BRANCH  18  28
ATOM     23  C   UNL     1      11.826   3.892   0.735  0.00  0.00    +0.014 A 
ATOM     24  C   UNL     1      13.191   4.056   0.837  0.00  0.00    +0.021 A 
ATOM     25  C   UNL     1      13.737   5.328   0.886  0.00  0.00    +0.041 A 
ATOM     26  C   UNL     1      12.917   6.442   0.829  0.00  0.00    +0.021 A 
ATOM     27  C   UNL     1      11.550   6.291   0.722  0.00  0.00    +0.014 A 
ATOM     28  C   UNL     1      10.994   5.011   0.672  0.00  0.00    +0.039 A 
ATOM     29 CL   UNL     1      15.457   5.526   1.021  0.00  0.00    -0.084 Cl
ENDBRANCH  18  28
ENDBRANCH  17  21
ENDBRANCH  16  17
ENDBRANCH   1  16
TORSDOF 5
