REMARK  Name = ZINC39636003
REMARK  6 active torsions:
REMARK  status: ('A' for Active; 'I' for Inactive)
REMARK    1  A    between atoms: C_1  and  C_2
REMARK    2  A    between atoms: C_8  and  N_10
REMARK    3  A    between atoms: C_11  and  C_13
REMARK    4  A    between atoms: C_24  and  C_26
REMARK    5  A    between atoms: C_28  and  O_33
REMARK    6  A    between atoms: O_33  and  C_34
REMARK                            x       y       z     vdW  Elec       q    Type
REMARK                         _______ _______ _______ _____ _____    ______ ____
ROOT
ATOM      1  C   UNL     1      -0.301   0.257   5.310  0.00  0.00    +0.100 C 
ATOM      2  C   UNL     1      -0.609   1.722   4.928  0.00  0.00    +0.121 C 
ATOM      3  N   UNL     1      -0.280   2.503   6.145  0.00  0.00    -0.296 N 
ATOM      4  C   UNL     1       0.948   1.862   6.674  0.00  0.00    +0.115 C 
ATOM      5  C   UNL     1       0.721   0.353   6.455  0.00  0.00    -0.004 C 
ATOM      6  C   UNL     1       2.028  -0.324   6.055  0.00  0.00    -0.010 C 
ATOM      7  C   UNL     1       3.008  -0.267   7.230  0.00  0.00    -0.082 C 
ATOM      8  N   UNL     1       2.420  -0.943   8.393  0.00  0.00    +0.379 N 
ATOM      9  C   UNL     1       1.214  -0.230   8.829  0.00  0.00    -0.082 C 
ATOM     10  C   UNL     1       0.158  -0.285   7.721  0.00  0.00    -0.010 C 
ATOM     11  C   UNL     1      -0.948   3.557   6.655  0.00  0.00    +0.248 C 
ATOM     12  O   UNL     1      -0.497   4.155   7.612  0.00  0.00    -0.270 OA
ATOM     13  H   UNL     1       2.178  -1.890   8.143  0.00  0.00    -0.086 HD
ATOM     14  H   UNL     1       3.091  -0.957   9.146  0.00  0.00    -0.086 HD
ENDROOT
BRANCH  11  15
ATOM     15  C   UNL     1      -2.227   3.984   6.051  0.00  0.00    +0.054 A 
ATOM     16  C   UNL     1      -2.412   3.901   4.670  0.00  0.00    +0.059 A 
ATOM     17  C   UNL     1      -3.613   4.303   4.111  0.00  0.00    +0.121 A 
ATOM     18  C   UNL     1      -4.630   4.787   4.923  0.00  0.00    +0.047 A 
ATOM     19  C   UNL     1      -4.450   4.870   6.291  0.00  0.00    +0.019 A 
ATOM     20  C   UNL     1      -3.258   4.467   6.860  0.00  0.00    +0.030 A 
ATOM     21 BR   UNL     1      -3.018   4.576   8.733  0.00  0.00    -0.050 Br
BRANCH  17  22
ATOM     22  O   UNL     1      -3.796   4.224   2.767  0.00  0.00    -0.495 OA
ATOM     23  C   UNL     1      -5.060   4.656   2.258  0.00  0.00    +0.277 C 
ENDBRANCH  17  22
ENDBRANCH  11  15
BRANCH   1  25
ATOM     24  N   UNL     1       0.104  -1.806   4.007  0.00  0.00    -0.312 N 
ATOM     25  C   UNL     1       0.293  -0.477   4.136  0.00  0.00    +0.218 C 
ATOM     26  O   UNL     1       0.941   0.127   3.308  0.00  0.00    -0.275 OA
ATOM     27  H   UNL     1      -0.414  -2.289   4.669  0.00  0.00    +0.149 HD
BRANCH  24  34
ATOM     28  C   UNL     1      -1.579  -3.400   2.271  0.00  0.00    +0.009 C 
ATOM     29  C   UNL     1      -0.133  -3.785   2.589  0.00  0.00    +0.006 C 
ATOM     30  C   UNL     1       0.470  -4.530   1.397  0.00  0.00    +0.005 C 
ATOM     31  C   UNL     1       1.917  -4.915   1.716  0.00  0.00    +0.000 C 
ATOM     32  C   UNL     1       2.732  -3.650   1.992  0.00  0.00    +0.002 C 
ATOM     33  C   UNL     1       2.128  -2.905   3.184  0.00  0.00    +0.022 C 
ATOM     34  C   UNL     1       0.682  -2.520   2.866  0.00  0.00    +0.076 C 
ENDBRANCH  24  34
ENDBRANCH   1  25
TORSDOF 4
