REMARK  Name = ZINC07058129
REMARK  6 active torsions:
REMARK  status: ('A' for Active; 'I' for Inactive)
REMARK    1  A    between atoms: C_1  and  N_2
REMARK    2  A    between atoms: C_3  and  C_23
REMARK    3  A    between atoms: N_7  and  C_17
REMARK    4  A    between atoms: C_9  and  C_11
REMARK    5  A    between atoms: C_26  and  O_29
REMARK    6  A    between atoms: O_29  and  C_30
REMARK                            x       y       z     vdW  Elec       q    Type
REMARK                         _______ _______ _______ _____ _____    ______ ____
ROOT
ATOM      1  C   UNL     1       0.786   1.347  -0.107  0.00  0.00    +0.135 C 
ATOM      2  N   UNL     1       0.368  -0.055  -0.051  0.00  0.00    -0.269 N 
ATOM      3  C   UNL     1      -0.088  -0.845  -1.113  0.00  0.00    +0.149 C 
ATOM      4  N   UNL     1      -0.377  -2.046  -0.724  0.00  0.00    -0.167 NA
ATOM      5  N   UNL     1      -0.148  -2.208   0.654  0.00  0.00    -0.217 N 
ATOM      6  C   UNL     1       0.345  -0.920   1.119  0.00  0.00    +0.263 C 
ATOM      7  N   UNL     1       1.629  -0.998   1.815  0.00  0.00    -0.172 N 
ATOM      8  N   UNL     1       1.605  -0.563   3.127  0.00  0.00    -0.168 NA
ATOM      9  C   UNL     1       0.527  -0.116   3.708  0.00  0.00    +0.127 C 
ATOM     10  S   UNL     1      -0.724  -0.235   2.436  0.00  0.00    -0.035 S 
ATOM     11  H   UNL     1      -0.286  -3.010   1.182  0.00  0.00    +0.173 HD
ENDROOT
BRANCH   9  12
ATOM     12  C   UNL     1       0.374   0.373   5.094  0.00  0.00    +0.009 A 
ATOM     13  C   UNL     1      -0.871   0.811   5.550  0.00  0.00    +0.010 A 
ATOM     14  C   UNL     1      -1.007   1.266   6.845  0.00  0.00    +0.001 A 
ATOM     15  C   UNL     1       0.087   1.289   7.692  0.00  0.00    +0.000 A 
ATOM     16  C   UNL     1       1.324   0.857   7.247  0.00  0.00    +0.001 A 
ATOM     17  C   UNL     1       1.472   0.394   5.956  0.00  0.00    +0.010 A 
ENDBRANCH   9  12
BRANCH   7  18
ATOM     18  C   UNL     1       2.787  -1.475   1.203  0.00  0.00    +0.056 A 
ATOM     19  C   UNL     1       2.753  -1.895  -0.122  0.00  0.00    +0.025 A 
ATOM     20  C   UNL     1       3.902  -2.366  -0.725  0.00  0.00    +0.002 A 
ATOM     21  C   UNL     1       5.086  -2.421  -0.012  0.00  0.00    +0.000 A 
ATOM     22  C   UNL     1       5.124  -2.005   1.306  0.00  0.00    +0.002 A 
ATOM     23  C   UNL     1       3.981  -1.526   1.914  0.00  0.00    +0.025 A 
ENDBRANCH   7  18
BRANCH   3  24
ATOM     24  C   UNL     1      -0.224  -0.367  -2.505  0.00  0.00    +0.017 A 
ATOM     25  C   UNL     1       0.422   0.802  -2.910  0.00  0.00    +0.015 A 
ATOM     26  C   UNL     1       0.293   1.245  -4.209  0.00  0.00    +0.046 A 
ATOM     27  C   UNL     1      -0.479   0.529  -5.115  0.00  0.00    +0.120 A 
ATOM     28  C   UNL     1      -1.123  -0.635  -4.716  0.00  0.00    +0.046 A 
ATOM     29  C   UNL     1      -0.994  -1.087  -3.420  0.00  0.00    +0.015 A 
BRANCH  27  30
ATOM     30  O   UNL     1      -0.604   0.968  -6.394  0.00  0.00    -0.495 OA
ATOM     31  C   UNL     1      -1.413   0.184  -7.273  0.00  0.00    +0.277 C 
ENDBRANCH  27  30
ENDBRANCH   3  24
TORSDOF 4
