REMARK  Name = ZINC13639567
REMARK  6 active torsions:
REMARK  status: ('A' for Active; 'I' for Inactive)
REMARK    1  A    between atoms: C_4  and  N_7
REMARK    2  A    between atoms: N_7  and  S_8
REMARK    3  A    between atoms: S_8  and  C_11
REMARK    4  A    between atoms: C_24  and  C_27
REMARK    5  A    between atoms: C_30  and  O_34
REMARK    6  A    between atoms: C_32  and  O_33
REMARK                            x       y       z     vdW  Elec       q    Type
REMARK                         _______ _______ _______ _____ _____    ______ ____
ROOT
ATOM      1  C   UNL     1      -0.152   1.218  -7.273  0.00  0.00    +0.109 A 
ATOM      2  C   UNL     1       0.851   0.700  -6.474  0.00  0.00    +0.030 A 
ATOM      3  C   UNL     1       0.535  -0.106  -5.400  0.00  0.00    +0.025 A 
ATOM      4  C   UNL     1      -0.792  -0.403  -5.112  0.00  0.00    +0.031 A 
ATOM      5  C   UNL     1      -1.801   0.116  -5.931  0.00  0.00    -0.018 A 
ATOM      6  C   UNL     1      -1.475   0.924  -6.999  0.00  0.00    +0.034 A 
ATOM      7  C   UNL     1      -3.198  -0.240  -5.602  0.00  0.00    +0.049 C 
ATOM      8  C   UNL     1      -4.339   0.633  -5.979  0.00  0.00    -0.023 C 
ATOM      9  C   UNL     1      -5.294   0.500  -5.066  0.00  0.00    -0.030 C 
ATOM     10  C   UNL     1      -4.841  -0.467  -3.971  0.00  0.00    +0.033 C 
ATOM     11  C   UNL     1      -3.315  -0.330  -4.051  0.00  0.00    +0.029 C 
ATOM     12  C   UNL     1      -2.487  -1.538  -3.652  0.00  0.00    +0.108 C 
ATOM     13  N   UNL     1      -1.090  -1.195  -3.996  0.00  0.00    -0.336 N 
ATOM     14  H   UNL     1      -0.367  -1.524  -3.439  0.00  0.00    +0.147 HD
ENDROOT
BRANCH  12  15
ATOM     15  C   UNL     1      -2.612  -1.788  -2.171  0.00  0.00    +0.015 A 
ATOM     16  C   UNL     1      -1.666  -1.277  -1.302  0.00  0.00    +0.012 A 
ATOM     17  C   UNL     1      -1.778  -1.505   0.056  0.00  0.00    +0.046 A 
ATOM     18  C   UNL     1      -2.840  -2.249   0.551  0.00  0.00    +0.120 A 
ATOM     19  C   UNL     1      -3.792  -2.758  -0.318  0.00  0.00    +0.091 A 
ATOM     20  C   UNL     1      -3.675  -2.532  -1.681  0.00  0.00    +0.125 A 
BRANCH  20  21
ATOM     21  O   UNL     1      -4.605  -3.034  -2.536  0.00  0.00    -0.506 OA
ATOM     22  H   UNL     1      -4.397  -3.918  -2.868  0.00  0.00    +0.292 HD
ENDBRANCH  20  21
BRANCH  18  23
ATOM     23  O   UNL     1      -2.949  -2.473   1.887  0.00  0.00    -0.507 OA
ATOM     24  H   UNL     1      -3.458  -1.800   2.359  0.00  0.00    +0.292 HD
ENDBRANCH  18  23
ENDBRANCH  12  15
BRANCH   1  25
ATOM     25  S   UNL     1       0.256   2.254  -8.638  0.00  0.00    +0.072 S 
ATOM     26  O   UNL     1      -0.842   3.138  -8.820  0.00  0.00    -0.150 OA
ATOM     27  O   UNL     1       1.580   2.720  -8.414  0.00  0.00    -0.150 OA
BRANCH  25  28
ATOM     28  N   UNL     1       0.315   1.290  -9.983  0.00  0.00    -0.216 N 
ATOM     29  H   UNL     1      -0.304   1.439 -10.715  0.00  0.00    +0.174 HD
BRANCH  28  33
ATOM     30  C   UNL     1       3.124  -1.774 -10.228  0.00  0.00    +0.000 A 
ATOM     31  C   UNL     1       1.798  -2.072  -9.972  0.00  0.00    +0.002 A 
ATOM     32  C   UNL     1       0.864  -1.058  -9.890  0.00  0.00    +0.024 A 
ATOM     33  C   UNL     1       1.258   0.262 -10.065  0.00  0.00    +0.048 A 
ATOM     34  C   UNL     1       2.589   0.558 -10.328  0.00  0.00    +0.024 A 
ATOM     35  C   UNL     1       3.519  -0.461 -10.403  0.00  0.00    +0.002 A 
ENDBRANCH  28  33
ENDBRANCH  25  28
ENDBRANCH   1  25
TORSDOF 6
