REMARK  Name = ZINC28294125
REMARK  10 active torsions:
REMARK  status: ('A' for Active; 'I' for Inactive)
REMARK    1  A    between atoms: C_1  and  C_2
REMARK    2  A    between atoms: C_2  and  N_3
REMARK    3  A    between atoms: N_3  and  C_4
REMARK    4  A    between atoms: C_4  and  C_5
REMARK    5  A    between atoms: N_8  and  C_9
REMARK    6  A    between atoms: C_9  and  C_11
REMARK    7  A    between atoms: C_9  and  N_15
REMARK    8  A    between atoms: N_15  and  C_16
REMARK    9  A    between atoms: C_16  and  N_18
REMARK   10  A    between atoms: N_18  and  C_19
REMARK                            x       y       z     vdW  Elec       q    Type
REMARK                         _______ _______ _______ _____ _____    ______ ____
ROOT
ATOM      1  C   UNL     1       3.553   6.262   0.315  0.00  0.00    +0.212 C 
ENDROOT
BRANCH   1   5
ATOM      2  N   UNL     1       5.041   7.045  -2.955  0.00  0.00    -0.286 N 
ATOM      3  C   UNL     1       4.784   6.435  -1.781  0.00  0.00    +0.304 C 
ATOM      4  O   UNL     1       5.410   5.444  -1.461  0.00  0.00    -0.253 OA
ATOM      5  N   UNL     1       3.832   6.925  -0.961  0.00  0.00    -0.277 N 
ATOM      6  H   UNL     1       3.266   7.822  -1.251  0.00  0.00    +0.152 HD
BRANCH   2   8
ATOM      7  C   UNL     1       5.450   5.497  -4.803  0.00  0.00    +0.024 C 
ATOM      8  C   UNL     1       6.075   6.513  -3.845  0.00  0.00    +0.106 C 
ENDBRANCH   2   8
BRANCH   2   9
ATOM      9  C   UNL     1       4.286   8.240  -3.340  0.00  0.00    +0.106 C 
ATOM     10  C   UNL     1       5.009   9.488  -2.826  0.00  0.00    +0.024 C 
ENDBRANCH   2   9
ENDBRANCH   1   5
BRANCH   1  11
ATOM     11  C   UNL     1       3.433   7.313   1.420  0.00  0.00    +0.225 C 
ATOM     12 CL   UNL     1       3.088   6.497   2.991  0.00  0.00    -0.080 Cl
ATOM     13 CL   UNL     1       4.979   8.231   1.546  0.00  0.00    -0.080 Cl
ATOM     14 CL   UNL     1       2.089   8.449   1.026  0.00  0.00    -0.080 Cl
ENDBRANCH   1  11
BRANCH   1  15
ATOM     15  N   UNL     1       2.296   5.515   0.212  0.00  0.00    -0.305 N 
ATOM     16  H   UNL     1       1.335   6.051   0.224  0.00  0.00    +0.150 HD
BRANCH  15  17
ATOM     17  C   UNL     1       2.317   4.172   0.104  0.00  0.00    +0.136 C 
ATOM     18  S   UNL     1       3.812   3.338   0.086  0.00  0.00    -0.019 S 
BRANCH  17  19
ATOM     19  N   UNL     1       1.161   3.485   0.009  0.00  0.00    -0.297 N 
ATOM     20  H   UNL     1       0.206   4.025  -0.071  0.00  0.00    +0.154 HD
BRANCH  19  21
ATOM     21  C   UNL     1       1.176   2.086   0.013  0.00  0.00    +0.033 A 
ATOM     22  C   UNL     1       2.010   1.402   0.888  0.00  0.00    +0.024 A 
ATOM     23  C   UNL     1       2.023   0.021   0.890  0.00  0.00    +0.017 A 
ATOM     24  C   UNL     1       1.206  -0.681   0.022  0.00  0.00    +0.018 A 
ATOM     25  C   UNL     1       0.374  -0.002  -0.851  0.00  0.00    +0.017 A 
ATOM     26  C   UNL     1       0.358   1.379  -0.858  0.00  0.00    +0.024 A 
ATOM     27 BR   UNL     1       1.225  -2.572   0.028  0.00  0.00    -0.050 Br
ENDBRANCH  19  21
ENDBRANCH  17  19
ENDBRANCH  15  17
ENDBRANCH   1  15
TORSDOF 8
