REMARK  Name = ZINC19833628
REMARK  3 active torsions:
REMARK  status: ('A' for Active; 'I' for Inactive)
REMARK    1  A    between atoms: C_4  and  C_7
REMARK    2  A    between atoms: C_9  and  C_14
REMARK    3  A    between atoms: N_16  and  C_17
REMARK                            x       y       z     vdW  Elec       q    Type
REMARK                         _______ _______ _______ _____ _____    ______ ____
ROOT
ATOM      1  C   UNL     1      -2.744   9.338  -1.926  0.00  0.00    +0.077 A 
ATOM      2  C   UNL     1      -2.751   7.940  -1.979  0.00  0.00    +0.061 A 
ATOM      3  C   UNL     1      -2.132   7.236  -0.950  0.00  0.00    +0.131 A 
ATOM      4  N   UNL     1      -1.562   7.914   0.045  0.00  0.00    -0.210 NA
ATOM      5  C   UNL     1      -1.571   9.237   0.059  0.00  0.00    +0.214 A 
ATOM      6  N   UNL     1      -2.150   9.942  -0.901  0.00  0.00    -0.215 NA
ATOM      7  N   UNL     1      -0.963   9.903   1.109  0.00  0.00    -0.327 N 
ATOM      8  H   UNL     1      -0.962  11.002   1.136  0.00  0.00    +0.145 HD
ATOM      9  H   UNL     1      -0.482   9.332   1.917  0.00  0.00    +0.145 HD
ENDROOT
BRANCH   1  13
ATOM     10  C   UNL     1      -4.595  11.623  -4.997  0.00  0.00    +0.000 A 
ATOM     11  C   UNL     1      -3.981  12.264  -3.936  0.00  0.00    +0.001 A 
ATOM     12  C   UNL     1      -3.378  11.527  -2.937  0.00  0.00    +0.010 A 
ATOM     13  C   UNL     1      -3.390  10.135  -2.997  0.00  0.00    +0.001 A 
ATOM     14  C   UNL     1      -4.006   9.494  -4.071  0.00  0.00    +0.010 A 
ATOM     15  C   UNL     1      -4.609  10.241  -5.062  0.00  0.00    +0.001 A 
ENDBRANCH   1  13
BRANCH   3  16
ATOM     16  C   UNL     1      -2.112   5.752  -0.958  0.00  0.00    +0.263 C 
ATOM     17  O   UNL     1      -2.638   5.142  -1.867  0.00  0.00    -0.269 OA
ATOM     18  N   UNL     1      -1.510   5.081   0.044  0.00  0.00    -0.305 N 
ATOM     19  H   UNL     1      -1.033   5.633   0.867  0.00  0.00    +0.150 HD
BRANCH  18  20
ATOM     20  C   UNL     1      -1.490   3.616   0.036  0.00  0.00    +0.036 C 
ATOM     21  C   UNL     1      -0.773   3.123  -1.223  0.00  0.00    +0.029 C 
ATOM     22  C   UNL     1      -0.753   1.593  -1.232  0.00  0.00    -0.008 C 
ATOM     23  C   UNL     1      -0.013   1.086   0.008  0.00  0.00    +0.007 C 
ATOM     24  C   UNL     1      -0.729   1.579   1.267  0.00  0.00    -0.008 C 
ATOM     25  C   UNL     1      -0.750   3.109   1.275  0.00  0.00    +0.029 C 
ATOM     26  C   UNL     1      -2.164   1.050   1.278  0.00  0.00    +0.007 C 
ATOM     27  C   UNL     1      -2.904   1.556   0.038  0.00  0.00    -0.008 C 
ATOM     28  C   UNL     1      -2.188   1.063  -1.221  0.00  0.00    +0.007 C 
ATOM     29  C   UNL     1      -2.925   3.086   0.047  0.00  0.00    +0.029 C 
ENDBRANCH  18  20
ENDBRANCH   3  16
TORSDOF 3
