REMARK  Name = ZINC59461791
REMARK  9 active torsions:
REMARK  status: ('A' for Active; 'I' for Inactive)
REMARK    1  A    between atoms: C_1  and  C_2
REMARK    2  A    between atoms: C_3  and  C_11
REMARK    3  A    between atoms: C_4  and  O_10
REMARK    4  A    between atoms: N_5  and  C_7
REMARK    5  A    between atoms: C_7  and  N_9
REMARK    6  A    between atoms: C_11  and  C_13
REMARK    7  A    between atoms: C_11  and  C_20
REMARK    8  A    between atoms: C_20  and  C_21
REMARK    9  A    between atoms: C_20  and  C_23
REMARK                            x       y       z     vdW  Elec       q    Type
REMARK                         _______ _______ _______ _____ _____    ______ ____
ROOT
ATOM      1  C   UNL     1      -0.487   2.165  -0.686  0.00  0.00    +0.068 C 
ATOM      2  C   UNL     1      -0.475   0.722  -0.250  0.00  0.00    +0.068 A 
ATOM      3  C   UNL     1      -0.262  -0.382  -1.083  0.00  0.00    +0.046 A 
ATOM      4  C   UNL     1      -0.328  -1.502  -0.318  0.00  0.00    +0.221 A 
ATOM      5  N   UNL     1      -0.576  -1.107   0.964  0.00  0.00    -0.179 N 
ATOM      6  N   UNL     1      -0.657   0.292   0.971  0.00  0.00    -0.167 NA
ENDROOT
BRANCH   5   7
ATOM      7  C   UNL     1      -0.714  -1.916   2.033  0.00  0.00    +0.167 C 
ATOM      8  S   UNL     1      -0.578  -3.612   1.845  0.00  0.00    -0.014 S 
BRANCH   7   9
ATOM      9  N   UNL     1      -0.959  -1.390   3.249  0.00  0.00    -0.337 N 
ATOM     10  H   UNL     1      -1.036  -0.429   3.356  0.00  0.00    +0.144 HD
ATOM     11  H   UNL     1      -1.058  -1.973   4.018  0.00  0.00    +0.144 HD
ENDBRANCH   7   9
ENDBRANCH   5   7
BRANCH   4  12
ATOM     12  O   UNL     1      -0.175  -2.780  -0.748  0.00  0.00    -0.492 OA
ATOM     13  H   UNL     1       0.738  -3.097  -0.722  0.00  0.00    +0.294 HD
ENDBRANCH   4  12
BRANCH   3  14
ATOM     14  C   UNL     1      -0.005  -0.337  -2.568  0.00  0.00    +0.087 C 
BRANCH  14  15
ATOM     15  C   UNL     1      -1.164  -0.966  -3.297  0.00  0.00    -0.037 A 
ATOM     16  C   UNL     1      -1.307  -2.341  -3.312  0.00  0.00    +0.005 A 
ATOM     17  C   UNL     1      -2.370  -2.918  -3.981  0.00  0.00    +0.015 A 
ATOM     18  C   UNL     1      -3.290  -2.120  -4.636  0.00  0.00    +0.018 A 
ATOM     19  C   UNL     1      -3.147  -0.744  -4.621  0.00  0.00    +0.015 A 
ATOM     20  C   UNL     1      -2.086  -0.168  -3.947  0.00  0.00    +0.005 A 
ATOM     21 BR   UNL     1      -4.744  -2.909  -5.552  0.00  0.00    -0.050 Br
ENDBRANCH  14  15
BRANCH  14  22
ATOM     22  C   UNL     1       1.278  -1.107  -2.887  0.00  0.00    +0.205 C 
BRANCH  22  23
ATOM     23  C   UNL     1       1.529  -1.063  -4.337  0.00  0.00    +0.082 C 
ATOM     24  N   UNL     1       1.722  -1.029  -5.456  0.00  0.00    -0.195 NA
ENDBRANCH  22  23
BRANCH  22  25
ATOM     25  C   UNL     1       2.409  -0.493  -2.174  0.00  0.00    +0.082 C 
ATOM     26  N   UNL     1       3.283  -0.019  -1.624  0.00  0.00    -0.195 NA
ENDBRANCH  22  25
ENDBRANCH  14  22
ENDBRANCH   3  14
TORSDOF 8
