REMARK  Name = ZINC35330372
REMARK  5 active torsions:
REMARK  status: ('A' for Active; 'I' for Inactive)
REMARK    1  A    between atoms: C_1  and  C_2
REMARK    2  A    between atoms: C_7  and  N_10
REMARK    3  A    between atoms: N_10  and  C_11
REMARK    4  A    between atoms: C_14  and  N_21
REMARK    5  A    between atoms: C_15  and  C_17
REMARK                            x       y       z     vdW  Elec       q    Type
REMARK                         _______ _______ _______ _____ _____    ______ ____
ROOT
ATOM      1  C   UNL     1       1.197  -3.799   2.925  0.00  0.00    +0.028 A 
ATOM      2  C   UNL     1       0.257  -4.609   2.300  0.00  0.00    +0.025 A 
ATOM      3  C   UNL     1      -0.011  -5.867   2.802  0.00  0.00    +0.035 A 
ATOM      4  C   UNL     1       0.655  -6.321   3.925  0.00  0.00    +0.138 A 
ATOM      5  C   UNL     1       1.591  -5.518   4.550  0.00  0.00    +0.087 A 
ATOM      6  C   UNL     1       1.868  -4.261   4.050  0.00  0.00    +0.037 A 
ENDROOT
BRANCH   5   7
ATOM      7  C   UNL     1       2.313  -6.017   5.775  0.00  0.00    +0.420 C 
ATOM      8  F   UNL     1       3.203  -5.035   6.224  0.00  0.00    -0.166 F 
ATOM      9  F   UNL     1       1.384  -6.300   6.782  0.00  0.00    -0.166 F 
ATOM     10  F   UNL     1       3.024  -7.179   5.456  0.00  0.00    -0.166 F 
ENDBRANCH   5   7
BRANCH   4  11
ATOM     11  N   UNL     1       0.365  -7.670   4.460  0.00  0.00    +0.057 N 
ATOM     12  O   UNL     1      -0.454  -8.374   3.915  0.00  0.00    -0.126 OA
ATOM     13  O   UNL     1       0.946  -8.069   5.442  0.00  0.00    -0.126 OA
ENDBRANCH   4  11
BRANCH   1  14
ATOM     14  N   UNL     1       1.471  -2.526   2.420  0.00  0.00    -0.341 N 
ATOM     15  H   UNL     1       2.131  -1.963   2.855  0.00  0.00    +0.146 HD
BRANCH  14  21
ATOM     16  C   UNL     1      -0.019   1.526   0.010  0.00  0.00    +0.007 C 
ATOM     17  C   UNL     1       0.002  -0.004   0.002  0.00  0.00    -0.012 C 
ATOM     18  C   UNL     1       0.718  -0.497  -1.257  0.00  0.00    +0.003 C 
ATOM     19  C   UNL     1       0.739  -2.027  -1.265  0.00  0.00    +0.002 C 
ATOM     20  C   UNL     1       1.479  -2.534  -0.026  0.00  0.00    +0.022 C 
ATOM     21  C   UNL     1       0.763  -2.041   1.233  0.00  0.00    +0.071 C 
ATOM     22  C   UNL     1       0.742  -0.511   1.242  0.00  0.00    +0.025 C 
ENDBRANCH  14  21
ENDBRANCH   1  14
TORSDOF 4
