REMARK  Name = ZINC09331766
REMARK  6 active torsions:
REMARK  status: ('A' for Active; 'I' for Inactive)
REMARK    1  A    between atoms: C_1  and  C_2
REMARK    2  A    between atoms: C_2  and  C_3
REMARK    3  A    between atoms: C_2  and  C_4
REMARK    4  A    between atoms: C_6  and  C_10
REMARK    5  A    between atoms: N_12  and  N_13
REMARK    6  A    between atoms: C_14  and  C_15
REMARK                            x       y       z     vdW  Elec       q    Type
REMARK                         _______ _______ _______ _____ _____    ______ ____
ROOT
ATOM      1  C   UNL     1      -4.601  -1.557   1.458  0.00  0.00    +0.281 C 
ATOM      2  O   UNL     1      -4.583  -1.434   2.668  0.00  0.00    -0.267 OA
ATOM      3  N   UNL     1      -5.705  -2.027   0.844  0.00  0.00    -0.202 N 
ATOM      4  H   UNL     1      -5.720  -2.125  -0.121  0.00  0.00    +0.178 HD
ENDROOT
BRANCH   1   7
ATOM      5  C   UNL     1      -1.419  -0.507   0.011  0.00  0.00    +0.066 A 
ATOM      6  C   UNL     1      -2.217  -0.697   1.141  0.00  0.00    +0.057 A 
ATOM      7  C   UNL     1      -3.418  -1.191   0.663  0.00  0.00    +0.122 A 
ATOM      8  N   UNL     1      -3.285  -1.271  -0.694  0.00  0.00    -0.272 N 
ATOM      9  H   UNL     1      -3.969  -1.585  -1.305  0.00  0.00    +0.189 HD
ATOM     10  N   UNL     1      -2.117  -0.863  -1.037  0.00  0.00    -0.178 NA
BRANCH   5  12
ATOM     11  C   UNL     1      -0.033   1.550  -0.000  0.00  0.00    +0.014 C 
ATOM     12  C   UNL     1      -0.007   0.020  -0.000  0.00  0.00    +0.033 C 
ATOM     13  C   UNL     1       0.733  -0.477   1.243  0.00  0.00    +0.014 C 
ENDBRANCH   5  12
ENDBRANCH   1   7
BRANCH   3  14
ATOM     14  N   UNL     1      -6.832  -2.376   1.601  0.00  0.00    -0.187 NA
ATOM     15  C   UNL     1      -7.896  -2.830   1.010  0.00  0.00    +0.139 C 
BRANCH  15  16
ATOM     16  C   UNL     1      -9.079  -3.195   1.804  0.00  0.00    +0.002 A 
ATOM     17  C   UNL     1     -10.262  -3.576   1.181  0.00  0.00    +0.010 A 
ATOM     18  C   UNL     1     -11.377  -3.921   1.933  0.00  0.00    +0.001 A 
ATOM     19  C   UNL     1     -11.359  -3.900   3.294  0.00  0.00    +0.008 A 
ATOM     20  C   UNL     1     -10.197  -3.526   3.990  0.00  0.00    -0.017 A 
ATOM     21  C   UNL     1      -9.034  -3.172   3.264  0.00  0.00    -0.009 A 
ATOM     22  C   UNL     1      -7.873  -2.803   3.955  0.00  0.00    +0.009 A 
ATOM     23  C   UNL     1      -7.874  -2.795   5.318  0.00  0.00    +0.001 A 
ATOM     24  C   UNL     1      -9.015  -3.147   6.035  0.00  0.00    +0.001 A 
ATOM     25  C   UNL     1     -10.164  -3.500   5.396  0.00  0.00    +0.008 A 
ENDBRANCH  15  16
ENDBRANCH   3  14
TORSDOF 4
