REMARK  Name = ZINC28949892
REMARK  6 active torsions:
REMARK  status: ('A' for Active; 'I' for Inactive)
REMARK    1  A    between atoms: C_1  and  C_2
REMARK    2  A    between atoms: C_2  and  C_4
REMARK    3  A    between atoms: C_7  and  O_39
REMARK    4  A    between atoms: C_17  and  C_22
REMARK    5  A    between atoms: N_20  and  C_21
REMARK    6  A    between atoms: O_39  and  C_40
REMARK                            x       y       z     vdW  Elec       q    Type
REMARK                         _______ _______ _______ _____ _____    ______ ____
ROOT
ATOM      1  C   UNL     1      -9.784   3.751  -7.003  0.00  0.00    +0.021 A 
ATOM      2  C   UNL     1     -10.075   4.588  -8.084  0.00  0.00    +0.015 A 
ATOM      3  C   UNL     1      -9.520   5.835  -8.145  0.00  0.00    +0.046 A 
ATOM      4  C   UNL     1      -8.673   6.269  -7.135  0.00  0.00    +0.124 A 
ATOM      5  C   UNL     1      -8.378   5.444  -6.046  0.00  0.00    -0.002 A 
ATOM      6  C   UNL     1      -8.924   4.188  -5.979  0.00  0.00    -0.032 A 
ATOM      7  C   UNL     1      -8.640   3.242  -4.846  0.00  0.00    +0.021 C 
ATOM      8  C   UNL     1      -8.068   3.985  -3.634  0.00  0.00    -0.061 C 
ATOM      9  C   UNL     1      -6.906   4.870  -4.098  0.00  0.00    -0.019 C 
ATOM     10  C   UNL     1      -7.468   5.986  -4.979  0.00  0.00    +0.041 C 
ATOM     11  C   UNL     1      -6.205   5.497  -2.903  0.00  0.00    +0.013 C 
ATOM     12  C   UNL     1      -5.752   4.408  -1.929  0.00  0.00    +0.059 C 
ATOM     13  C   UNL     1      -6.977   3.599  -1.492  0.00  0.00    -0.066 C 
ATOM     14  N   UNL     1      -7.585   2.981  -2.674  0.00  0.00    +0.381 N 
ATOM     15  C   UNL     1      -8.662   2.058  -2.291  0.00  0.00    -0.096 C 
ATOM     16  H   UNL     1      -6.797   2.402  -3.177  0.00  0.00    -0.082 HD
ENDROOT
BRANCH  12  17
ATOM     17  C   UNL     1      -5.109   5.043  -0.724  0.00  0.00    +0.217 C 
ATOM     18  O   UNL     1      -5.249   6.230  -0.517  0.00  0.00    -0.275 OA
ATOM     19  N   UNL     1      -4.379   4.293   0.125  0.00  0.00    -0.298 N 
ATOM     20  C   UNL     1      -3.637   4.913   1.233  0.00  0.00    +0.126 C 
ATOM     21  C   UNL     1      -2.188   4.417   1.187  0.00  0.00    +0.125 C 
ATOM     22  N   UNL     1      -2.176   2.948   1.175  0.00  0.00    -0.312 N 
ATOM     23  C   UNL     1      -2.827   2.419  -0.030  0.00  0.00    +0.125 C 
ATOM     24  C   UNL     1      -4.302   2.833  -0.034  0.00  0.00    +0.126 C 
ATOM     25  C   UNL     1      -0.883   2.461   1.297  0.00  0.00    +0.124 A 
ATOM     26  C   UNL     1      -0.679   1.073   1.305  0.00  0.00    +0.046 A 
ATOM     27  C   UNL     1       0.573   0.563   1.416  0.00  0.00    +0.035 A 
ATOM     28  C   UNL     1       1.669   1.464   1.524  0.00  0.00    +0.119 A 
ATOM     29  C   UNL     1       1.391   2.896   1.510  0.00  0.00    +0.190 A 
ATOM     30  N   UNL     1       0.110   3.312   1.395  0.00  0.00    -0.211 NA
ATOM     31  N   UNL     1       2.502   3.620   1.619  0.00  0.00    -0.171 NA
ATOM     32  S   UNL     1       3.685   2.598   1.720  0.00  0.00    +0.118 S 
ATOM     33  N   UNL     1       2.969   1.206   1.643  0.00  0.00    -0.189 NA
ENDBRANCH  12  17
BRANCH   1  35
ATOM     34  C   UNL     1     -11.407   1.990  -7.953  0.00  0.00    +0.091 C 
ATOM     35  C   UNL     1     -10.378   2.410  -6.935  0.00  0.00    +0.160 C 
ATOM     36  O   UNL     1     -10.041   1.641  -6.061  0.00  0.00    -0.292 OA
ENDBRANCH   1  35
BRANCH   4  37
ATOM     37  O   UNL     1      -8.127   7.508  -7.205  0.00  0.00    -0.495 OA
ATOM     38  C   UNL     1      -8.467   8.305  -8.341  0.00  0.00    +0.277 C 
ENDBRANCH   4  37
TORSDOF 3
