REMARK  Name = ZINC08858071
REMARK  7 active torsions:
REMARK  status: ('A' for Active; 'I' for Inactive)
REMARK    1  A    between atoms: C_1  and  C_2
REMARK    2  A    between atoms: C_2  and  N_62
REMARK    3  A    between atoms: N_5  and  C_8
REMARK    4  A    between atoms: C_9  and  C_20
REMARK    5  A    between atoms: C_14  and  C_19
REMARK    6  A    between atoms: N_24  and  C_28
REMARK    7  A    between atoms: C_28  and  C_29
REMARK                            x       y       z     vdW  Elec       q    Type
REMARK                         _______ _______ _______ _____ _____    ______ ____
ROOT
ATOM      1  C   UNL     1      -1.012  -0.590   0.479  0.00  0.00    +0.136 A 
ATOM      2  C   UNL     1      -1.371  -1.820  -0.121  0.00  0.00    +0.081 A 
ATOM      3  C   UNL     1      -2.743  -2.076  -0.358  0.00  0.00    +0.267 A 
ATOM      4  O   UNL     1      -3.098  -3.124  -0.870  0.00  0.00    -0.267 OA
ATOM      5  N   UNL     1      -3.651  -1.138  -0.013  0.00  0.00    -0.267 N 
ATOM      6  C   UNL     1      -4.974  -1.375  -0.243  0.00  0.00    +0.099 A 
ATOM      7  C   UNL     1      -5.909  -0.457   0.091  0.00  0.00    -0.034 A 
ATOM      8  C   UNL     1      -5.525   0.755   0.681  0.00  0.00    +0.008 A 
ATOM      9  C   UNL     1      -4.205   1.001   0.914  0.00  0.00    +0.047 A 
ATOM     10  C   UNL     1      -3.246   0.035   0.560  0.00  0.00    +0.142 A 
ATOM     11  N   UNL     1      -1.957   0.285   0.792  0.00  0.00    -0.214 NA
ATOM     12  C   UNL     1      -7.366  -0.738  -0.171  0.00  0.00    +0.045 C 
ENDROOT
BRANCH   2  13
ATOM     13  C   UNL     1      -0.385  -2.771  -0.472  0.00  0.00    +0.037 C 
ATOM     14  C   UNL     1       0.655  -2.410  -1.280  0.00  0.00    +0.077 C 
ATOM     15  C   UNL     1       1.802  -3.159  -1.669  0.00  0.00    +0.259 C 
ATOM     16  O   UNL     1       1.969  -4.299  -1.275  0.00  0.00    -0.269 OA
ATOM     17  N   UNL     1       2.678  -2.583  -2.474  0.00  0.00    -0.251 N 
ATOM     18  C   UNL     1       2.496  -1.315  -2.906  0.00  0.00    +0.121 C 
ATOM     19  S   UNL     1       3.493  -0.378  -3.934  0.00  0.00    -0.027 S 
ATOM     20  S   UNL     1       0.951  -0.866  -2.130  0.00  0.00    -0.061 S 
BRANCH  17  21
ATOM     21  C   UNL     1       3.865  -3.327  -2.900  0.00  0.00    +0.150 C 
BRANCH  21  22
ATOM     22  C   UNL     1       4.982  -3.096  -1.915  0.00  0.00    -0.029 A 
ATOM     23  C   UNL     1       5.863  -2.047  -2.103  0.00  0.00    +0.008 A 
ATOM     24  C   UNL     1       6.884  -1.831  -1.197  0.00  0.00    +0.038 A 
ATOM     25  C   UNL     1       7.032  -2.672  -0.107  0.00  0.00    +0.123 A 
ATOM     26  C   UNL     1       6.153  -3.726   0.077  0.00  0.00    +0.038 A 
ATOM     27  C   UNL     1       5.129  -3.937  -0.827  0.00  0.00    +0.008 A 
ATOM     28  F   UNL     1       8.033  -2.465   0.776  0.00  0.00    -0.205 F 
ENDBRANCH  21  22
ENDBRANCH  17  21
ENDBRANCH   2  13
BRANCH   1  31
ATOM     29  C   UNL     1       1.962   1.398   1.348  0.00  0.00    -0.060 C 
ATOM     30  C   UNL     1       0.474   1.096   1.155  0.00  0.00    +0.088 C 
ATOM     31  N   UNL     1       0.311  -0.301   0.731  0.00  0.00    -0.318 N 
ATOM     32  C   UNL     1       0.870  -1.221   1.732  0.00  0.00    +0.088 C 
ATOM     33  C   UNL     1       2.357  -0.919   1.925  0.00  0.00    -0.060 C 
ATOM     34  N   UNL     1       2.505   0.482   2.372  0.00  0.00    +0.382 N 
ATOM     35  H   UNL     1       1.982   0.610   3.246  0.00  0.00    -0.082 HD
BRANCH  34  37
ATOM     36  C   UNL     1       4.096   2.295   2.811  0.00  0.00    -0.017 C 
ATOM     37  C   UNL     1       3.931   0.786   2.618  0.00  0.00    -0.082 C 
ENDBRANCH  34  37
ENDBRANCH   1  31
TORSDOF 5
