REMARK  Name = ZINC17431007
REMARK  2 active torsions:
REMARK  status: ('A' for Active; 'I' for Inactive)
REMARK    1  A    between atoms: C_1  and  S_2
REMARK    2  A    between atoms: S_2  and  C_3
REMARK                            x       y       z     vdW  Elec       q    Type
REMARK                         _______ _______ _______ _____ _____    ______ ____
ROOT
ATOM      1  C   UNL     1      -1.702  -0.454   0.016  0.00  0.00    +0.183 A 
ATOM      2  C   UNL     1      -2.085  -1.823   0.018  0.00  0.00    +0.286 A 
ATOM      3  O   UNL     1      -1.249  -2.710   0.011  0.00  0.00    -0.265 OA
ATOM      4  N   UNL     1      -3.407  -2.111   0.029  0.00  0.00    -0.270 N 
ATOM      5  H   UNL     1      -3.714  -3.032   0.032  0.00  0.00    +0.174 HD
ATOM      6  C   UNL     1      -4.299  -1.081   0.038  0.00  0.00    +0.367 A 
ATOM      7  O   UNL     1      -5.623  -1.343   0.049  0.00  0.00    -0.243 OA
ATOM      8  N   UNL     1      -3.882   0.166   0.036  0.00  0.00    -0.089 NA
ATOM      9  N   UNL     1      -2.635   0.473   0.030  0.00  0.00    -0.133 NA
ENDROOT
BRANCH   1  11
ATOM     10  C   UNL     1      -0.022   1.810   0.012  0.00  0.00    +0.091 C 
ATOM     11  S   UNL     1       0.002  -0.004   0.002  0.00  0.00    -0.102 S 
ENDBRANCH   1  11
TORSDOF 1
