REMARK  Name = ZINC64609214
REMARK  8 active torsions:
REMARK  status: ('A' for Active; 'I' for Inactive)
REMARK    1  A    between atoms: C_1  and  C_2
REMARK    2  A    between atoms: C_5  and  N_9
REMARK    3  A    between atoms: C_10  and  C_12
REMARK    4  A    between atoms: C_12  and  C_13
REMARK    5  A    between atoms: C_12  and  N_14
REMARK    6  A    between atoms: N_14  and  C_15
REMARK    7  A    between atoms: N_21  and  C_26
REMARK    8  A    between atoms: N_24  and  C_25
REMARK                            x       y       z     vdW  Elec       q    Type
REMARK                         _______ _______ _______ _____ _____    ______ ____
ROOT
ATOM      1  C   UNL     1      -0.136  -6.343  -1.191  0.00  0.00    +0.154 C 
ATOM      2  C   UNL     1      -1.378  -6.777  -0.409  0.00  0.00    +0.038 C 
ENDROOT
BRANCH   1   4
ATOM      3  N   UNL     1       0.057  -4.171  -0.023  0.00  0.00    -0.283 N 
ATOM      4  C   UNL     1      -0.042  -4.839  -1.190  0.00  0.00    +0.237 C 
ATOM      5  O   UNL     1      -0.055  -4.230  -2.238  0.00  0.00    -0.273 OA
ATOM      6  H   UNL     1       0.149  -4.660   0.809  0.00  0.00    +0.155 HD
BRANCH   3  11
ATOM      7  C   UNL     1      -0.064   1.502   0.016  0.00  0.00    +0.044 C 
ATOM      8  C   UNL     1      -0.031  -0.005   0.006  0.00  0.00    -0.049 A 
ATOM      9  C   UNL     1      -0.622  -0.701  -1.033  0.00  0.00    +0.005 A 
ATOM     10  C   UNL     1      -0.594  -2.082  -1.045  0.00  0.00    +0.025 A 
ATOM     11  C   UNL     1       0.028  -2.772  -0.014  0.00  0.00    +0.052 A 
ATOM     12  C   UNL     1       0.621  -2.070   1.029  0.00  0.00    +0.062 A 
ATOM     13  C   UNL     1       0.594  -0.688   1.032  0.00  0.00    +0.025 A 
ATOM     14 CL   UNL     1       1.401  -2.928   2.321  0.00  0.00    -0.082 Cl
ENDBRANCH   3  11
ENDBRANCH   1   4
BRANCH   1  15
ATOM     15  N   UNL     1      -0.234  -6.825  -2.571  0.00  0.00    -0.333 N 
ATOM     16  H   UNL     1      -0.588  -6.245  -3.263  0.00  0.00    +0.147 HD
BRANCH  15  17
ATOM     17  C   UNL     1       0.183  -8.122  -2.890  0.00  0.00    +0.030 A 
ATOM     18  C   UNL     1       0.685  -8.954  -1.895  0.00  0.00    +0.025 A 
ATOM     19  C   UNL     1       1.097 -10.235  -2.204  0.00  0.00    +0.030 A 
ATOM     20  C   UNL     1       1.012 -10.694  -3.509  0.00  0.00    +0.070 A 
ATOM     21  C   UNL     1       0.508  -9.861  -4.511  0.00  0.00    +0.071 A 
ATOM     22  C   UNL     1       0.090  -8.577  -4.197  0.00  0.00    +0.051 A 
ATOM     23  N   UNL     1       0.545 -10.589  -5.697  0.00  0.00    -0.295 N 
ATOM     24  C   UNL     1       1.048 -11.810  -5.431  0.00  0.00    +0.330 A 
ATOM     25  O   UNL     1       1.213 -12.693  -6.252  0.00  0.00    -0.246 OA
ATOM     26  N   UNL     1       1.339 -11.905  -4.120  0.00  0.00    -0.295 N 
ATOM     27  C   UNL     1       1.904 -13.079  -3.450  0.00  0.00    +0.154 C 
ATOM     28  C   UNL     1       0.110 -10.109  -7.011  0.00  0.00    +0.154 C 
ENDBRANCH  15  17
ENDBRANCH   1  15
TORSDOF 4
