REMARK  Name = ZINC39898064
REMARK  10 active torsions:
REMARK  status: ('A' for Active; 'I' for Inactive)
REMARK    1  A    between atoms: C_2  and  C_3
REMARK    2  A    between atoms: C_3  and  O_4
REMARK    3  A    between atoms: O_4  and  C_5
REMARK    4  A    between atoms: C_8  and  C_11
REMARK    5  A    between atoms: C_14  and  C_26
REMARK    6  A    between atoms: N_21  and  C_22
REMARK    7  A    between atoms: C_22  and  C_23
REMARK    8  A    between atoms: C_23  and  C_24
REMARK    9  A    between atoms: C_24  and  O_25
REMARK   10  A    between atoms: C_31  and  O_32
REMARK                            x       y       z     vdW  Elec       q    Type
REMARK                         _______ _______ _______ _____ _____    ______ ____
ROOT
ATOM      1  C   UNL     1       5.505  -4.817   1.672  0.00  0.00    +0.141 C 
ATOM      2  C   UNL     1       6.564  -4.455   2.677  0.00  0.00    +0.035 A 
ATOM      3  C   UNL     1       7.465  -3.493   3.146  0.00  0.00    +0.102 A 
ATOM      4  N   UNL     1       8.097  -4.014   4.179  0.00  0.00    -0.173 NA
ATOM      5  N   UNL     1       7.684  -5.210   4.409  0.00  0.00    -0.272 N 
ATOM      6  H   UNL     1       8.008  -5.784   5.120  0.00  0.00    +0.189 HD
ATOM      7  C   UNL     1       6.721  -5.551   3.503  0.00  0.00    +0.126 A 
ATOM      8  C   UNL     1       5.798  -6.603   3.061  0.00  0.00    +0.265 C 
ATOM      9  O   UNL     1       5.691  -7.697   3.583  0.00  0.00    -0.268 OA
ATOM     10  N   UNL     1       5.087  -6.187   1.996  0.00  0.00    -0.285 N 
ENDROOT
BRANCH   3  11
ATOM     11  C   UNL     1       7.673  -2.135   2.583  0.00  0.00    +0.045 A 
ATOM     12  C   UNL     1       7.024  -1.758   1.410  0.00  0.00    +0.033 A 
ATOM     13  C   UNL     1       7.220  -0.493   0.891  0.00  0.00    +0.042 A 
ATOM     14  C   UNL     1       8.060   0.401   1.532  0.00  0.00    +0.023 A 
ATOM     15  C   UNL     1       8.709   0.036   2.697  0.00  0.00    +0.047 A 
ATOM     16  C   UNL     1       8.515  -1.228   3.232  0.00  0.00    +0.126 A 
ATOM     17 CL   UNL     1       6.411  -0.023  -0.572  0.00  0.00    -0.084 Cl
BRANCH  16  18
ATOM     18  O   UNL     1       9.148  -1.586   4.380  0.00  0.00    -0.506 OA
ATOM     19  H   UNL     1      10.016  -1.990   4.241  0.00  0.00    +0.292 HD
ENDBRANCH  16  18
ENDBRANCH   3  11
BRANCH   1  23
ATOM     20  C   UNL     1       2.186  -2.147   2.005  0.00  0.00    +0.121 A 
ATOM     21  C   UNL     1       2.455  -3.051   3.022  0.00  0.00    +0.046 A 
ATOM     22  C   UNL     1       3.529  -3.914   2.912  0.00  0.00    +0.009 A 
ATOM     23  C   UNL     1       4.335  -3.876   1.789  0.00  0.00    -0.022 A 
ATOM     24  C   UNL     1       4.069  -2.975   0.774  0.00  0.00    +0.009 A 
ATOM     25  C   UNL     1       2.993  -2.115   0.877  0.00  0.00    +0.046 A 
BRANCH  20  26
ATOM     26  O   UNL     1       1.130  -1.298   2.111  0.00  0.00    -0.488 OA
BRANCH  26  27
ATOM     27  C   UNL     1       0.343  -1.387   3.300  0.00  0.00    +0.256 C 
BRANCH  27  29
ATOM     28  C   UNL     1      -1.991  -0.724   3.580  0.00  0.00    +0.007 C 
ATOM     29  C   UNL     1      -0.774  -0.377   3.240  0.00  0.00    +0.006 C 
ENDBRANCH  27  29
ENDBRANCH  26  27
ENDBRANCH  20  26
ENDBRANCH   1  23
BRANCH  10  30
ATOM     30  C   UNL     1       4.071  -6.965   1.284  0.00  0.00    +0.111 C 
BRANCH  30  31
ATOM     31  C   UNL     1       4.733  -7.755   0.153  0.00  0.00    +0.047 C 
BRANCH  31  32
ATOM     32  C   UNL     1       3.671  -8.568  -0.591  0.00  0.00    +0.157 C 
BRANCH  32  33
ATOM     33  O   UNL     1       4.289  -9.306  -1.647  0.00  0.00    -0.395 OA
ATOM     34  H   UNL     1       3.674  -9.845  -2.162  0.00  0.00    +0.209 HD
ENDBRANCH  32  33
ENDBRANCH  31  32
ENDBRANCH  30  31
ENDBRANCH  10  30
TORSDOF 10
