REMARK  Name = ZINC39899032
REMARK  9 active torsions:
REMARK  status: ('A' for Active; 'I' for Inactive)
REMARK    1  A    between atoms: C_1  and  C_2
REMARK    2  A    between atoms: C_2  and  C_3
REMARK    3  A    between atoms: C_2  and  C_4
REMARK    4  A    between atoms: C_2  and  C_5
REMARK    5  A    between atoms: C_8  and  C_11
REMARK    6  A    between atoms: C_14  and  C_30
REMARK    7  A    between atoms: N_21  and  C_22
REMARK    8  A    between atoms: C_22  and  C_23
REMARK    9  A    between atoms: C_35  and  O_36
REMARK                            x       y       z     vdW  Elec       q    Type
REMARK                         _______ _______ _______ _____ _____    ______ ____
ROOT
ATOM      1  C   UNL     1       2.693  -1.468  -4.431  0.00  0.00    +0.142 C 
ATOM      2  C   UNL     1       2.642  -0.647  -5.690  0.00  0.00    +0.035 A 
ATOM      3  C   UNL     1       1.851  -0.032  -6.666  0.00  0.00    +0.102 A 
ATOM      4  N   UNL     1       2.665   0.552  -7.523  0.00  0.00    -0.173 NA
ATOM      5  N   UNL     1       3.891   0.368  -7.185  0.00  0.00    -0.272 N 
ATOM      6  H   UNL     1       4.660   0.707  -7.670  0.00  0.00    +0.189 HD
ATOM      7  C   UNL     1       3.951  -0.378  -6.042  0.00  0.00    +0.126 A 
ATOM      8  C   UNL     1       4.837  -0.999  -5.052  0.00  0.00    +0.266 C 
ATOM      9  O   UNL     1       6.052  -0.947  -5.078  0.00  0.00    -0.268 OA
ATOM     10  N   UNL     1       4.116  -1.637  -4.111  0.00  0.00    -0.281 N 
ENDROOT
BRANCH   3  11
ATOM     11  C   UNL     1       0.368  -0.037  -6.726  0.00  0.00    +0.045 A 
ATOM     12  C   UNL     1      -0.366  -0.800  -5.821  0.00  0.00    +0.033 A 
ATOM     13  C   UNL     1      -1.746  -0.802  -5.881  0.00  0.00    +0.042 A 
ATOM     14  C   UNL     1      -2.402  -0.047  -6.839  0.00  0.00    +0.023 A 
ATOM     15  C   UNL     1      -1.683   0.713  -7.741  0.00  0.00    +0.047 A 
ATOM     16  C   UNL     1      -0.298   0.728  -7.688  0.00  0.00    +0.126 A 
ATOM     17 CL   UNL     1      -2.660  -1.753  -4.753  0.00  0.00    -0.084 Cl
BRANCH  16  18
ATOM     18  O   UNL     1       0.410   1.479  -8.571  0.00  0.00    -0.506 OA
ATOM     19  H   UNL     1       0.640   1.014  -9.387  0.00  0.00    +0.292 HD
ENDBRANCH  16  18
ENDBRANCH   3  11
BRANCH   1  23
ATOM     20  C   UNL     1       0.702   0.584  -1.257  0.00  0.00    -0.042 A 
ATOM     21  C   UNL     1       1.894   1.074  -1.757  0.00  0.00    +0.004 A 
ATOM     22  C   UNL     1       2.538   0.410  -2.784  0.00  0.00    +0.006 A 
ATOM     23  C   UNL     1       1.991  -0.745  -3.311  0.00  0.00    -0.022 A 
ATOM     24  C   UNL     1       0.799  -1.236  -2.810  0.00  0.00    +0.006 A 
ATOM     25  C   UNL     1       0.158  -0.574  -1.780  0.00  0.00    +0.004 A 
BRANCH  20  27
ATOM     26  C   UNL     1      -0.124   0.379   1.072  0.00  0.00    +0.015 C 
ATOM     27  C   UNL     1       0.000   1.308  -0.137  0.00  0.00    -0.013 C 
ATOM     28  C   UNL     1      -1.395   1.732  -0.600  0.00  0.00    +0.015 C 
ATOM     29  C   UNL     1       0.807   2.548   0.254  0.00  0.00    +0.015 C 
ENDBRANCH  20  27
ENDBRANCH   1  23
BRANCH  10  30
ATOM     30  C   UNL     1       4.656  -2.372  -2.964  0.00  0.00    +0.144 C 
BRANCH  30  31
ATOM     31  C   UNL     1       4.876  -3.812  -3.348  0.00  0.00    -0.030 A 
ATOM     32  C   UNL     1       3.862  -4.736  -3.175  0.00  0.00    +0.008 A 
ATOM     33  C   UNL     1       4.062  -6.057  -3.527  0.00  0.00    +0.038 A 
ATOM     34  C   UNL     1       5.278  -6.456  -4.054  0.00  0.00    +0.123 A 
ATOM     35  C   UNL     1       6.293  -5.530  -4.228  0.00  0.00    +0.038 A 
ATOM     36  C   UNL     1       6.089  -4.208  -3.880  0.00  0.00    +0.008 A 
ATOM     37  F   UNL     1       5.475  -7.747  -4.399  0.00  0.00    -0.205 F 
ENDBRANCH  30  31
ENDBRANCH  10  30
TORSDOF 6
