REMARK  Name = ZINC42010518
REMARK  4 active torsions:
REMARK  status: ('A' for Active; 'I' for Inactive)
REMARK    1  A    between atoms: C_1  and  C_2
REMARK    2  A    between atoms: C_5  and  S_8
REMARK    3  A    between atoms: S_8  and  C_9
REMARK    4  A    between atoms: C_9  and  C_14
REMARK                            x       y       z     vdW  Elec       q    Type
REMARK                         _______ _______ _______ _____ _____    ______ ____
ROOT
ATOM      1  S   UNL     1      -3.964   2.692  -3.064  0.00  0.00    -0.067 S 
ENDROOT
BRANCH   1   6
ATOM      2  C   UNL     1      -0.013   1.086   0.008  0.00  0.00    +0.090 C 
ATOM      3  C   UNL     1      -0.742   1.585  -1.213  0.00  0.00    +0.149 A 
ATOM      4  N   UNL     1      -2.051   1.825  -1.287  0.00  0.00    -0.206 NA
ATOM      5  H   UNL     1      -1.127   2.558  -4.147  0.00  0.00    +0.191 HD
ATOM      6  C   UNL     1      -2.356   2.250  -2.495  0.00  0.00    +0.185 A 
ATOM      7  N   UNL     1      -1.218   2.286  -3.221  0.00  0.00    -0.254 N 
ATOM      8  N   UNL     1      -0.191   1.857  -2.365  0.00  0.00    -0.157 NA
ENDBRANCH   1   6
BRANCH   1   9
ATOM      9  C   UNL     1      -5.030   2.422  -1.621  0.00  0.00    +0.134 C 
ATOM     10  C   UNL     1      -6.441   2.905  -1.957  0.00  0.00    +0.041 C 
ATOM     11  C   UNL     1      -7.276   1.744  -2.567  0.00  0.00    +0.071 C 
ATOM     12  S   UNL     1      -6.694   0.353  -1.501  0.00  0.00    -0.159 S 
ATOM     13  C   UNL     1      -4.967   0.932  -1.232  0.00  0.00    +0.098 C 
BRANCH   9  14
ATOM     14  C   UNL     1      -4.503   3.244  -0.473  0.00  0.00    +0.373 C 
ATOM     15  O   UNL     1      -3.519   3.946  -0.627  0.00  0.00    -0.245 OA
ATOM     16  O   UNL     1      -5.062   3.207   0.610  0.00  0.00    -0.245 OA
ENDBRANCH   9  14
ENDBRANCH   1   9
TORSDOF 3
