REMARK  Name = ZINC13549816
REMARK  13 active torsions:
REMARK  status: ('A' for Active; 'I' for Inactive)
REMARK    1  A    between atoms: C_4  and  N_7
REMARK    2  A    between atoms: N_7  and  C_8
REMARK    3  A    between atoms: C_10  and  O_39
REMARK    4  A    between atoms: C_12  and  O_38
REMARK    5  A    between atoms: C_14  and  O_21
REMARK    6  A    between atoms: C_16  and  C_19
REMARK    7  A    between atoms: C_19  and  O_20
REMARK    8  A    between atoms: O_21  and  C_22
REMARK    9  A    between atoms: C_24  and  O_37
REMARK   10  A    between atoms: C_26  and  O_36
REMARK   11  A    between atoms: C_28  and  O_35
REMARK   12  A    between atoms: C_30  and  C_33
REMARK   13  A    between atoms: C_33  and  O_34
REMARK                            x       y       z     vdW  Elec       q    Type
REMARK                         _______ _______ _______ _____ _____    ______ ____
ROOT
ATOM      1  C   UNL     1       3.006  -3.090   4.221  0.00  0.00    +0.235 C 
ATOM      2  C   UNL     1       2.152  -1.882   4.614  0.00  0.00    +0.192 C 
ATOM      3  C   UNL     1       1.594  -1.226   3.348  0.00  0.00    +0.178 C 
ATOM      4  C   UNL     1       2.758  -0.842   2.429  0.00  0.00    +0.183 C 
ATOM      5  C   UNL     1       3.588  -2.091   2.120  0.00  0.00    +0.177 C 
ATOM      6  O   UNL     1       4.051  -2.668   3.343  0.00  0.00    -0.348 OA
ENDROOT
BRANCH   1   7
ATOM      7  N   UNL     1       3.591  -3.688   5.424  0.00  0.00    -0.317 N 
ATOM      8  H   UNL     1       3.859  -3.123   6.165  0.00  0.00    +0.149 HD
BRANCH   7  12
ATOM      9  C   UNL     1       4.102  -7.813   5.661  0.00  0.00    +0.000 A 
ATOM     10  C   UNL     1       4.485  -7.009   6.719  0.00  0.00    +0.002 A 
ATOM     11  C   UNL     1       4.317  -5.640   6.643  0.00  0.00    +0.023 A 
ATOM     12  C   UNL     1       3.763  -5.072   5.503  0.00  0.00    +0.029 A 
ATOM     13  C   UNL     1       3.374  -5.883   4.445  0.00  0.00    +0.023 A 
ATOM     14  C   UNL     1       3.550  -7.251   4.525  0.00  0.00    +0.002 A 
ENDBRANCH   7  12
ENDBRANCH   1   7
BRANCH   3  15
ATOM     15  O   UNL     1       0.735  -2.147   2.672  0.00  0.00    -0.386 OA
ATOM     16  H   UNL     1      -0.025  -2.433   3.197  0.00  0.00    +0.210 HD
ENDBRANCH   3  15
BRANCH   2  17
ATOM     17  O   UNL     1       2.958  -0.939   5.324  0.00  0.00    -0.385 OA
ATOM     18  H   UNL     1       3.349  -1.288   6.136  0.00  0.00    +0.210 HD
ENDBRANCH   2  17
BRANCH   5  19
ATOM     19  C   UNL     1       4.787  -1.704   1.252  0.00  0.00    +0.190 C 
BRANCH  19  20
ATOM     20  O   UNL     1       5.497  -2.883   0.867  0.00  0.00    -0.392 OA
ATOM     21  H   UNL     1       6.271  -2.713   0.314  0.00  0.00    +0.210 HD
ENDBRANCH  19  20
ENDBRANCH   5  19
BRANCH   4  22
ATOM     22  O   UNL     1       2.246  -0.296   1.212  0.00  0.00    -0.340 OA
BRANCH  22  23
ATOM     23  C   UNL     1       2.062   1.121   1.242  0.00  0.00    +0.282 C 
ATOM     24  C   UNL     1       1.286   1.562  -0.002  0.00  0.00    +0.201 C 
ATOM     25  C   UNL     1       1.146   3.087   0.008  0.00  0.00    +0.179 C 
ATOM     26  C   UNL     1       2.541   3.717   0.076  0.00  0.00    +0.177 C 
ATOM     27  C   UNL     1       3.268   3.192   1.317  0.00  0.00    +0.178 C 
ATOM     28  O   UNL     1       3.337   1.766   1.260  0.00  0.00    -0.341 OA
BRANCH  26  29
ATOM     29  O   UNL     1       3.281   3.366  -1.095  0.00  0.00    -0.386 OA
ATOM     30  H   UNL     1       2.875   3.664  -1.920  0.00  0.00    +0.210 HD
ENDBRANCH  26  29
BRANCH  25  31
ATOM     31  O   UNL     1       0.383   3.490   1.147  0.00  0.00    -0.386 OA
ATOM     32  H   UNL     1      -0.511   3.122   1.172  0.00  0.00    +0.210 HD
ENDBRANCH  25  31
BRANCH  24  33
ATOM     33  O   UNL     1      -0.011   0.963   0.007  0.00  0.00    -0.384 OA
ATOM     34  H   UNL     1       0.002  -0.004   0.002  0.00  0.00    +0.210 HD
ENDBRANCH  24  33
BRANCH  27  35
ATOM     35  C   UNL     1       4.684   3.770   1.361  0.00  0.00    +0.190 C 
BRANCH  35  36
ATOM     36  O   UNL     1       5.323   3.375   2.576  0.00  0.00    -0.392 OA
ATOM     37  H   UNL     1       6.226   3.706   2.672  0.00  0.00    +0.210 HD
ENDBRANCH  35  36
ENDBRANCH  27  35
ENDBRANCH  22  23
ENDBRANCH   4  22
TORSDOF 13
