REMARK  Name = ZINC18936657
REMARK  8 active torsions:
REMARK  status: ('A' for Active; 'I' for Inactive)
REMARK    1  A    between atoms: C_1  and  C_2
REMARK    2  A    between atoms: N_5  and  S_11
REMARK    3  A    between atoms: C_7  and  C_10
REMARK    4  A    between atoms: S_11  and  C_14
REMARK    5  A    between atoms: C_17  and  N_20
REMARK    6  A    between atoms: C_21  and  C_23
REMARK    7  A    between atoms: C_23  and  N_24
REMARK    8  A    between atoms: N_24  and  C_25
REMARK                            x       y       z     vdW  Elec       q    Type
REMARK                         _______ _______ _______ _____ _____    ______ ____
ROOT
ATOM      1  C   UNL     1       4.698  -0.263   0.231  0.00  0.00    +0.106 A 
ATOM      2  C   UNL     1       4.729   1.119   0.247  0.00  0.00    +0.030 A 
ATOM      3  C   UNL     1       3.552   1.839   0.170  0.00  0.00    +0.025 A 
ATOM      4  C   UNL     1       2.337   1.172   0.079  0.00  0.00    +0.034 A 
ATOM      5  C   UNL     1       2.309  -0.216   0.070  0.00  0.00    +0.025 A 
ATOM      6  C   UNL     1       3.490  -0.930   0.140  0.00  0.00    +0.030 A 
ENDROOT
BRANCH   4   7
ATOM      7  N   UNL     1       1.143   1.898   0.001  0.00  0.00    -0.284 N 
ATOM      8  C   UNL     1       0.108   1.419  -0.716  0.00  0.00    +0.234 C 
ATOM      9  O   UNL     1       0.242   0.407  -1.372  0.00  0.00    -0.274 OA
ATOM     10  H   UNL     1       1.061   2.747   0.464  0.00  0.00    +0.155 HD
BRANCH   8  11
ATOM     11  C   UNL     1      -1.213   2.143  -0.709  0.00  0.00    +0.198 C 
BRANCH  11  12
ATOM     12  N   UNL     1      -2.165   1.430  -1.565  0.00  0.00    -0.335 N 
ATOM     13  H   UNL     1      -1.892   0.622  -2.026  0.00  0.00    +0.147 HD
BRANCH  12  14
ATOM     14  C   UNL     1      -3.467   1.915  -1.716  0.00  0.00    +0.028 A 
ATOM     15  C   UNL     1      -3.861   3.069  -1.052  0.00  0.00    +0.024 A 
ATOM     16  C   UNL     1      -5.147   3.548  -1.207  0.00  0.00    +0.017 A 
ATOM     17  C   UNL     1      -6.045   2.874  -2.016  0.00  0.00    +0.018 A 
ATOM     18  C   UNL     1      -5.656   1.722  -2.675  0.00  0.00    +0.017 A 
ATOM     19  C   UNL     1      -4.370   1.241  -2.528  0.00  0.00    +0.024 A 
ATOM     20 BR   UNL     1      -7.807   3.531  -2.221  0.00  0.00    -0.050 Br
ENDBRANCH  12  14
ENDBRANCH  11  12
ENDBRANCH   8  11
ENDBRANCH   4   7
BRANCH   1  21
ATOM     21  S   UNL     1       6.201  -1.177   0.328  0.00  0.00    +0.061 S 
ATOM     22  O   UNL     1       5.942  -2.447  -0.254  0.00  0.00    -0.153 OA
ATOM     23  O   UNL     1       7.230  -0.318  -0.143  0.00  0.00    -0.153 OA
BRANCH  21  27
ATOM     24  C   UNL     1       9.118  -0.335   4.436  0.00  0.00    +0.039 C 
ATOM     25  C   UNL     1       8.399  -1.267   3.458  0.00  0.00    +0.131 C 
ATOM     26  C   UNL     1       7.305  -0.494   2.723  0.00  0.00    +0.140 C 
ATOM     27  N   UNL     1       6.507  -1.446   1.933  0.00  0.00    -0.172 NA
ATOM     28  C   UNL     1       5.995  -2.648   2.611  0.00  0.00    +0.140 C 
ATOM     29  C   UNL     1       7.158  -3.319   3.351  0.00  0.00    +0.131 C 
ATOM     30  O   UNL     1       7.809  -2.352   4.179  0.00  0.00    -0.371 OA
ATOM     31  C   UNL     1       6.622  -4.458   4.219  0.00  0.00    +0.039 C 
ENDBRANCH  21  27
ENDBRANCH   1  21
TORSDOF 6
