REMARK  Name = ZINC36607710
REMARK  8 active torsions:
REMARK  status: ('A' for Active; 'I' for Inactive)
REMARK    1  A    between atoms: C_4  and  N_7
REMARK    2  A    between atoms: N_7  and  C_8
REMARK    3  A    between atoms: C_8  and  C_10
REMARK    4  A    between atoms: C_8  and  C_16
REMARK    5  A    between atoms: N_18  and  C_19
REMARK    6  A    between atoms: C_25  and  C_27
REMARK    7  A    between atoms: C_29  and  N_36
REMARK    8  A    between atoms: C_31  and  N_33
REMARK                            x       y       z     vdW  Elec       q    Type
REMARK                         _______ _______ _______ _____ _____    ______ ____
ROOT
ATOM      1  N   UNL     1       4.254  -0.745  -0.592  0.00  0.00    -0.255 N 
ATOM      2  C   UNL     1       5.489  -0.362  -0.213  0.00  0.00    +0.252 C 
ATOM      3  O   UNL     1       6.268  -1.179   0.237  0.00  0.00    -0.270 OA
ENDROOT
BRANCH   1   7
ATOM      4  C   UNL     1       1.673   1.999  -2.369  0.00  0.00    +0.000 A 
ATOM      5  C   UNL     1       2.896   1.723  -2.953  0.00  0.00    +0.002 A 
ATOM      6  C   UNL     1       3.754   0.814  -2.367  0.00  0.00    +0.023 A 
ATOM      7  C   UNL     1       3.388   0.176  -1.188  0.00  0.00    +0.037 A 
ATOM      8  C   UNL     1       2.159   0.456  -0.604  0.00  0.00    +0.023 A 
ATOM      9  C   UNL     1       1.305   1.365  -1.196  0.00  0.00    +0.002 A 
ENDBRANCH   1   7
BRANCH   2  10
ATOM     10  C   UNL     1       5.897   1.053  -0.345  0.00  0.00    +0.042 A 
ATOM     11  C   UNL     1       4.932   2.062  -0.363  0.00  0.00    +0.046 A 
ATOM     12  C   UNL     1       5.319   3.380  -0.487  0.00  0.00    +0.129 A 
ATOM     13  C   UNL     1       6.660   3.704  -0.592  0.00  0.00    +0.065 A 
ATOM     14  C   UNL     1       7.622   2.709  -0.575  0.00  0.00    +0.129 A 
ATOM     15  C   UNL     1       7.248   1.387  -0.447  0.00  0.00    +0.046 A 
BRANCH  14  16
ATOM     16  N   UNL     1       9.054   3.064  -0.689  0.00  0.00    +0.057 N 
ATOM     17  O   UNL     1       9.383   4.222  -0.796  0.00  0.00    -0.126 OA
ATOM     18  O   UNL     1       9.895   2.196  -0.673  0.00  0.00    -0.126 OA
ENDBRANCH  14  16
BRANCH  12  19
ATOM     19  N   UNL     1       4.297   4.451  -0.506  0.00  0.00    +0.057 N 
ATOM     20  O   UNL     1       3.134   4.180  -0.318  0.00  0.00    -0.126 OA
ATOM     21  O   UNL     1       4.626   5.596  -0.710  0.00  0.00    -0.126 OA
ENDBRANCH  12  19
ENDBRANCH   2  10
BRANCH   1  22
ATOM     22  C   UNL     1       3.819  -2.128  -0.378  0.00  0.00    +0.170 C 
BRANCH  22  23
ATOM     23  C   UNL     1       2.640  -2.147   0.597  0.00  0.00    +0.019 C 
ATOM     24  C   UNL     1       3.022  -1.391   1.872  0.00  0.00    +0.006 C 
ATOM     25  C   UNL     1       1.843  -1.410   2.848  0.00  0.00    +0.000 C 
ATOM     26  C   UNL     1       1.495  -2.857   3.199  0.00  0.00    +0.000 C 
ATOM     27  C   UNL     1       1.114  -3.613   1.924  0.00  0.00    +0.000 C 
ATOM     28  C   UNL     1       2.292  -3.595   0.948  0.00  0.00    +0.006 C 
ENDBRANCH  22  23
BRANCH  22  29
ATOM     29  C   UNL     1       3.392  -2.729  -1.693  0.00  0.00    +0.234 C 
ATOM     30  O   UNL     1       3.295  -2.027  -2.677  0.00  0.00    -0.274 OA
ATOM     31  N   UNL     1       3.118  -4.046  -1.774  0.00  0.00    -0.311 N 
ATOM     32  H   UNL     1       3.132  -4.595  -0.975  0.00  0.00    +0.149 HD
BRANCH  31  33
ATOM     33  C   UNL     1       2.798  -4.649  -3.071  0.00  0.00    +0.073 C 
ATOM     34  C   UNL     1       1.307  -4.470  -3.363  0.00  0.00    +0.022 C 
ATOM     35  C   UNL     1       0.973  -5.099  -4.716  0.00  0.00    +0.002 C 
ATOM     36  C   UNL     1       1.311  -6.591  -4.683  0.00  0.00    +0.000 C 
ATOM     37  C   UNL     1       2.802  -6.770  -4.391  0.00  0.00    +0.002 C 
ATOM     38  C   UNL     1       3.136  -6.140  -3.037  0.00  0.00    +0.022 C 
ENDBRANCH  31  33
ENDBRANCH  22  29
ENDBRANCH   1  22
TORSDOF 8
