REMARK  Name = ZINC10795657
REMARK  7 active torsions:
REMARK  status: ('A' for Active; 'I' for Inactive)
REMARK    1  A    between atoms: C_4  and  C_7
REMARK    2  A    between atoms: C_15  and  C_18
REMARK    3  A    between atoms: C_18  and  O_19
REMARK    4  A    between atoms: O_19  and  C_20
REMARK    5  A    between atoms: C_20  and  C_22
REMARK    6  A    between atoms: C_25  and  S_28
REMARK    7  A    between atoms: S_28  and  N_31
REMARK                            x       y       z     vdW  Elec       q    Type
REMARK                         _______ _______ _______ _____ _____    ______ ____
ROOT
ATOM      1  C   UNL     1       2.917   9.840  -0.351  0.00  0.00    +0.340 C 
ATOM      2  O   UNL     1       4.058  10.337   0.359  0.00  0.00    -0.333 OA
ATOM      3  C   UNL     1       5.278   9.695  -0.009  0.00  0.00    +0.203 C 
ATOM      4  C   UNL     1       5.080   8.200  -0.006  0.00  0.00    +0.023 A 
ATOM      5  C   UNL     1       6.181   7.365  -0.018  0.00  0.00    +0.047 A 
ATOM      6  C   UNL     1       6.010   5.991  -0.023  0.00  0.00    +0.124 A 
ATOM      7  C   UNL     1       4.735   5.452  -0.014  0.00  0.00    +0.049 A 
ATOM      8  C   UNL     1       3.633   6.284   0.000  0.00  0.00    +0.035 A 
ATOM      9  C   UNL     1       3.803   7.662  -0.000  0.00  0.00    +0.136 A 
ATOM     10  O   UNL     1       2.711   8.473   0.015  0.00  0.00    -0.459 OA
ATOM     11  F   UNL     1       7.088   5.177  -0.034  0.00  0.00    -0.205 F 
ENDROOT
BRANCH   1  15
ATOM     12  C   UNL     1      -0.532  12.137   0.686  0.00  0.00    +0.000 A 
ATOM     13  C   UNL     1       0.554  12.751   0.089  0.00  0.00    +0.000 A 
ATOM     14  C   UNL     1       1.670  12.008  -0.247  0.00  0.00    +0.010 A 
ATOM     15  C   UNL     1       1.700  10.650   0.014  0.00  0.00    +0.020 A 
ATOM     16  C   UNL     1       0.613  10.036   0.606  0.00  0.00    +0.010 A 
ATOM     17  C   UNL     1      -0.501  10.780   0.946  0.00  0.00    +0.000 A 
ENDBRANCH   1  15
BRANCH   8  18
ATOM     18  C   UNL     1       2.245   5.696   0.010  0.00  0.00    +0.271 C 
BRANCH  18  19
ATOM     19  O   UNL     1       2.334   4.247   0.002  0.00  0.00    -0.456 OA
BRANCH  19  20
ATOM     20  C   UNL     1       1.173   3.564   0.009  0.00  0.00    +0.340 C 
ATOM     21  O   UNL     1       0.116   4.162   0.022  0.00  0.00    -0.245 OA
BRANCH  20  22
ATOM     22  C   UNL     1       1.185   2.087   0.002  0.00  0.00    +0.059 A 
ATOM     23  C   UNL     1      -0.017   1.375   0.010  0.00  0.00    +0.017 A 
ATOM     24  C   UNL     1       0.002  -0.004   0.002  0.00  0.00    +0.029 A 
ATOM     25  C   UNL     1       1.208  -0.683  -0.013  0.00  0.00    +0.105 A 
ATOM     26  C   UNL     1       2.402   0.016  -0.020  0.00  0.00    +0.029 A 
ATOM     27  C   UNL     1       2.398   1.395  -0.012  0.00  0.00    +0.017 A 
BRANCH  25  28
ATOM     28  S   UNL     1       1.222  -2.445  -0.023  0.00  0.00    +0.056 S 
ATOM     29  O   UNL     1       2.476  -2.843   0.514  0.00  0.00    -0.153 OA
ATOM     30  O   UNL     1      -0.014  -2.864   0.538  0.00  0.00    -0.153 OA
BRANCH  28  31
ATOM     31  N   UNL     1       1.211  -2.926  -1.607  0.00  0.00    -0.204 NA
ATOM     32  H   UNL     1       1.199  -2.263  -2.315  0.00  0.00    +0.144 HD
ATOM     33  H   UNL     1       1.217  -3.870  -1.827  0.00  0.00    +0.144 HD
ENDBRANCH  28  31
ENDBRANCH  25  28
ENDBRANCH  20  22
ENDBRANCH  19  20
ENDBRANCH  18  19
ENDBRANCH   8  18
TORSDOF 7
