REMARK  Name = ZINC15947507
REMARK  8 active torsions:
REMARK  status: ('A' for Active; 'I' for Inactive)
REMARK    1  A    between atoms: C_1  and  C_2
REMARK    2  A    between atoms: C_11  and  O_32
REMARK    3  A    between atoms: C_13  and  C_16
REMARK    4  A    between atoms: C_19  and  O_24
REMARK    5  A    between atoms: C_20  and  O_22
REMARK    6  A    between atoms: O_22  and  C_23
REMARK    7  A    between atoms: O_24  and  C_25
REMARK    8  A    between atoms: C_25  and  C_27
REMARK                            x       y       z     vdW  Elec       q    Type
REMARK                         _______ _______ _______ _____ _____    ______ ____
ROOT
ATOM      1  C   UNL     1      -0.200   1.484  -0.145  0.00  0.00    +0.008 C 
ATOM      2  C   UNL     1      -0.150  -0.045  -0.129  0.00  0.00    -0.009 C 
ATOM      3  C   UNL     1      -1.576  -0.605  -0.104  0.00  0.00    +0.008 C 
ATOM      4  C   UNL     1      -1.546  -2.117  -0.337  0.00  0.00    +0.037 C 
ATOM      5  C   UNL     1      -0.569  -2.743   0.648  0.00  0.00    -0.023 A 
ATOM      6  C   UNL     1       0.366  -1.995   1.278  0.00  0.00    -0.004 A 
ATOM      7  S   UNL     1       1.248  -3.141   2.302  0.00  0.00    -0.078 S 
ATOM      8  C   UNL     1       0.433  -4.533   1.920  0.00  0.00    +0.080 A 
ATOM      9  C   UNL     1      -0.547  -4.152   0.996  0.00  0.00    +0.068 A 
ATOM     10  C   UNL     1      -1.452  -5.212   0.482  0.00  0.00    +0.220 C 
ATOM     11  N   UNL     1      -1.129  -6.454   0.721  0.00  0.00    -0.223 NA
ATOM     12  C   UNL     1       0.090  -6.874   1.400  0.00  0.00    +0.224 C 
ATOM     13  N   UNL     1       0.578  -5.839   2.330  0.00  0.00    -0.313 N 
ATOM     14  C   UNL     1       0.595  -0.522   1.127  0.00  0.00    +0.046 C 
ATOM     15  H   UNL     1       0.979  -6.066   3.184  0.00  0.00    +0.149 HD
ENDROOT
BRANCH  12  16
ATOM     16  C   UNL     1       1.156  -7.151   0.372  0.00  0.00    -0.002 A 
ATOM     17  C   UNL     1       2.488  -6.963   0.692  0.00  0.00    +0.011 A 
ATOM     18  C   UNL     1       3.470  -7.215  -0.248  0.00  0.00    +0.050 A 
ATOM     19  C   UNL     1       3.120  -7.658  -1.514  0.00  0.00    +0.173 A 
ATOM     20  C   UNL     1       1.779  -7.847  -1.835  0.00  0.00    +0.163 A 
ATOM     21  C   UNL     1       0.800  -7.598  -0.887  0.00  0.00    +0.056 A 
BRANCH  20  22
ATOM     22  O   UNL     1       1.431  -8.282  -3.076  0.00  0.00    -0.491 OA
ATOM     23  C   UNL     1       0.036  -8.454  -3.335  0.00  0.00    +0.277 C 
ENDBRANCH  20  22
BRANCH  19  24
ATOM     24  O   UNL     1       4.085  -7.907  -2.440  0.00  0.00    -0.416 OA
BRANCH  24  25
ATOM     25  C   UNL     1       4.337  -6.956  -3.362  0.00  0.00    +0.380 C 
ATOM     26  O   UNL     1       3.780  -5.876  -3.291  0.00  0.00    -0.241 OA
BRANCH  25  27
ATOM     27  C   UNL     1       5.281  -7.223  -4.450  0.00  0.00    +0.212 A 
ATOM     28  C   UNL     1       5.630  -6.351  -5.443  0.00  0.00    +0.056 A 
ATOM     29  C   UNL     1       6.554  -7.019  -6.260  0.00  0.00    +0.042 A 
ATOM     30  C   UNL     1       6.727  -8.254  -5.738  0.00  0.00    +0.196 A 
ATOM     31  O   UNL     1       5.963  -8.371  -4.644  0.00  0.00    -0.456 OA
ENDBRANCH  25  27
ENDBRANCH  24  25
ENDBRANCH  19  24
ENDBRANCH  12  16
BRANCH  10  32
ATOM     32  O   UNL     1      -2.573  -4.900  -0.210  0.00  0.00    -0.492 OA
ATOM     33  H   UNL     1      -3.085  -5.669  -0.495  0.00  0.00    +0.294 HD
ENDBRANCH  10  32
TORSDOF 6
