REMARK  Name = ZINC32196227
REMARK  7 active torsions:
REMARK  status: ('A' for Active; 'I' for Inactive)
REMARK    1  A    between atoms: C_1  and  C_2
REMARK    2  A    between atoms: C_2  and  C_3
REMARK    3  A    between atoms: C_2  and  C_4
REMARK    4  A    between atoms: C_2  and  C_5
REMARK    5  A    between atoms: C_8  and  O_11
REMARK    6  A    between atoms: O_11  and  C_12
REMARK    7  A    between atoms: C_12  and  C_13
REMARK                            x       y       z     vdW  Elec       q    Type
REMARK                         _______ _______ _______ _____ _____    ______ ____
ROOT
ATOM      1  C   UNL     1       3.537   0.848  -0.028  0.00  0.00    +0.307 C 
ENDROOT
BRANCH   1   2
ATOM      2  C   UNL     1       2.033   0.740  -0.014  0.00  0.00    +0.193 A 
ATOM      3  N   UNL     1       1.194   1.737   0.000  0.00  0.00    -0.128 NA
ATOM      4  N   UNL     1      -0.015   1.295   0.009  0.00  0.00    -0.120 NA
ATOM      5  C   UNL     1       0.002  -0.004   0.002  0.00  0.00    +0.220 A 
ATOM      6  N   UNL     1       1.305  -0.431  -0.013  0.00  0.00    -0.185 N 
ATOM      7  N   UNL     1       1.509  -1.805  -0.022  0.00  0.00    -0.140 NA
ATOM      8  C   UNL     1       0.502  -2.638  -0.016  0.00  0.00    +0.179 A 
ATOM      9  S   UNL     1      -0.901  -1.533   0.003  0.00  0.00    -0.012 S 
ATOM     10  N   UNL     1       0.519  -4.023  -0.023  0.00  0.00    -0.336 N 
ATOM     11  H   UNL     1      -0.427  -4.585  -0.017  0.00  0.00    +0.144 HD
ATOM     12  H   UNL     1       1.478  -4.562  -0.035  0.00  0.00    +0.144 HD
ENDBRANCH   1   2
BRANCH   1  13
ATOM     13  O   UNL     1       3.998   0.889  -1.379  0.00  0.00    -0.484 OA
BRANCH  13  17
ATOM     14  C   UNL     1       8.072   1.184  -1.958  0.00  0.00    -0.042 A 
ATOM     15  C   UNL     1       7.223   1.130  -3.047  0.00  0.00    +0.008 A 
ATOM     16  C   UNL     1       5.858   1.031  -2.856  0.00  0.00    +0.046 A 
ATOM     17  C   UNL     1       5.340   0.986  -1.570  0.00  0.00    +0.121 A 
ATOM     18  C   UNL     1       6.195   1.047  -0.478  0.00  0.00    +0.046 A 
ATOM     19  C   UNL     1       7.559   1.139  -0.675  0.00  0.00    +0.008 A 
BRANCH  14  21
ATOM     20  C   UNL     1       9.874   2.571  -2.948  0.00  0.00    +0.015 C 
ATOM     21  C   UNL     1       9.561   1.292  -2.169  0.00  0.00    -0.013 C 
ATOM     22  C   UNL     1      10.267   1.335  -0.812  0.00  0.00    +0.015 C 
ATOM     23  C   UNL     1      10.052   0.079  -2.962  0.00  0.00    +0.015 C 
ENDBRANCH  14  21
ENDBRANCH  13  17
ENDBRANCH   1  13
TORSDOF 4
