REMARK  Name = ZINC08970234
REMARK  8 active torsions:
REMARK  status: ('A' for Active; 'I' for Inactive)
REMARK    1  A    between atoms: C_1  and  C_2
REMARK    2  A    between atoms: C_2  and  C_3
REMARK    3  A    between atoms: C_3  and  C_4
REMARK    4  A    between atoms: C_3  and  C_5
REMARK    5  A    between atoms: C_3  and  C_6
REMARK    6  A    between atoms: N_19  and  N_20
REMARK    7  A    between atoms: C_21  and  C_22
REMARK    8  A    between atoms: C_23  and  C_32
REMARK                            x       y       z     vdW  Elec       q    Type
REMARK                         _______ _______ _______ _____ _____    ______ ____
ROOT
ATOM      1  C   UNL     1       0.401   1.455   0.495  0.00  0.00    -0.001 C 
ATOM      2  C   UNL     1       1.821   2.003   0.669  0.00  0.00    +0.009 C 
ATOM      3  C   UNL     1       1.809   3.506   0.356  0.00  0.00    +0.043 C 
ATOM      4  C   UNL     1       0.662   4.134   1.087  0.00  0.00    -0.004 A 
ATOM      5  C   UNL     1      -0.386   3.503   1.664  0.00  0.00    -0.024 A 
ATOM      6  C   UNL     1      -1.374   4.344   2.317  0.00  0.00    +0.052 A 
ATOM      7  C   UNL     1      -2.557   3.919   2.990  0.00  0.00    +0.150 A 
ATOM      8  N   UNL     1      -3.308   4.889   3.511  0.00  0.00    -0.219 NA
ATOM      9  C   UNL     1      -3.014   6.170   3.433  0.00  0.00    +0.224 A 
ATOM     10  N   UNL     1      -1.929   6.633   2.822  0.00  0.00    -0.228 NA
ATOM     11  C   UNL     1      -1.128   5.740   2.277  0.00  0.00    +0.114 A 
ATOM     12  S   UNL     1       0.388   5.863   1.383  0.00  0.00    -0.073 S 
ATOM     13  N   UNL     1      -2.903   2.586   3.095  0.00  0.00    -0.220 N 
ATOM     14  C   UNL     1      -0.498   1.982   1.613  0.00  0.00    +0.040 C 
ATOM     15  H   UNL     1      -2.240   1.898   2.927  0.00  0.00    +0.176 HD
ENDROOT
BRANCH   1  16
ATOM     16  C   UNL     1       0.436  -0.073   0.547  0.00  0.00    -0.032 C 
ATOM     17  C   UNL     1       0.996  -0.525   1.898  0.00  0.00    +0.011 C 
ATOM     18  C   UNL     1      -0.982  -0.622   0.373  0.00  0.00    +0.011 C 
BRANCH  16  20
ATOM     19  C   UNL     1       1.364  -2.131  -0.525  0.00  0.00    +0.004 C 
ATOM     20  C   UNL     1       1.329  -0.602  -0.577  0.00  0.00    +0.003 C 
ENDBRANCH  16  20
ENDBRANCH   1  16
BRANCH  13  21
ATOM     21  N   UNL     1      -4.211   2.226   3.445  0.00  0.00    -0.189 NA
ATOM     22  C   UNL     1      -4.536   0.973   3.544  0.00  0.00    +0.140 C 
BRANCH  22  23
ATOM     23  C   UNL     1      -5.911   0.595   3.912  0.00  0.00    +0.023 A 
ATOM     24  C   UNL     1      -6.941   1.441   4.182  0.00  0.00    +0.023 A 
ATOM     25  N   UNL     1      -8.061   0.721   4.480  0.00  0.00    -0.358 N 
ATOM     26  H   UNL     1      -8.923   1.104   4.704  0.00  0.00    +0.166 HD
ATOM     27  C   UNL     1      -7.789  -0.630   4.422  0.00  0.00    +0.047 A 
ATOM     28  C   UNL     1      -6.437  -0.772   4.066  0.00  0.00    +0.009 A 
ATOM     29  C   UNL     1      -5.881  -2.043   3.932  0.00  0.00    +0.010 A 
ATOM     30  C   UNL     1      -6.663  -3.156   4.151  0.00  0.00    +0.001 A 
ATOM     31  C   UNL     1      -7.998  -3.016   4.503  0.00  0.00    +0.002 A 
ATOM     32  C   UNL     1      -8.561  -1.766   4.639  0.00  0.00    +0.026 A 
ATOM     33  C   UNL     1      -6.859   2.945   4.153  0.00  0.00    +0.064 C 
ENDBRANCH  22  23
ENDBRANCH  13  21
TORSDOF 4
