REMARK  Name = ZINC61594342
REMARK  8 active torsions:
REMARK  status: ('A' for Active; 'I' for Inactive)
REMARK    1  A    between atoms: C_1  and  C_2
REMARK    2  A    between atoms: C_2  and  N_3
REMARK    3  A    between atoms: C_9  and  S_10
REMARK    4  A    between atoms: S_10  and  C_11
REMARK    5  A    between atoms: C_11  and  C_13
REMARK    6  A    between atoms: C_11  and  C_20
REMARK    7  A    between atoms: C_20  and  C_22
REMARK    8  A    between atoms: C_20  and  N_23
REMARK                            x       y       z     vdW  Elec       q    Type
REMARK                         _______ _______ _______ _____ _____    ______ ____
ROOT
ATOM      1  C   UNL     1       4.489  -1.130  -0.868  0.00  0.00    +0.069 C 
ENDROOT
BRANCH   1   2
ATOM      2  C   UNL     1       5.498  -0.812   0.205  0.00  0.00    -0.036 A 
ATOM      3  C   UNL     1       5.475  -1.503   1.402  0.00  0.00    +0.006 A 
ATOM      4  C   UNL     1       6.401  -1.212   2.386  0.00  0.00    +0.015 A 
ATOM      5  C   UNL     1       7.350  -0.228   2.174  0.00  0.00    +0.018 A 
ATOM      6  C   UNL     1       7.373   0.463   0.976  0.00  0.00    +0.015 A 
ATOM      7  C   UNL     1       6.450   0.167  -0.010  0.00  0.00    +0.006 A 
ATOM      8 BR   UNL     1       8.616   0.171   3.521  0.00  0.00    -0.050 Br
ENDBRANCH   1   2
BRANCH   1   9
ATOM      9  C   UNL     1       4.883  -2.433  -1.568  0.00  0.00    -0.060 C 
ATOM     10  C   UNL     1       4.828  -3.587  -0.565  0.00  0.00    -0.013 C 
BRANCH   9  11
ATOM     11  N   UNL     1       6.247  -2.310  -2.100  0.00  0.00    +0.381 N 
ATOM     12  H   UNL     1       6.899  -2.216  -1.336  0.00  0.00    -0.090 HD
ATOM     13  H   UNL     1       6.473  -3.134  -2.636  0.00  0.00    -0.090 HD
ATOM     14  H   UNL     1       6.304  -1.496  -2.693  0.00  0.00    -0.090 HD
ENDBRANCH   9  11
ENDBRANCH   1   9
BRANCH   1  15
ATOM     15  S   UNL     1       2.848  -1.318  -0.119  0.00  0.00    -0.080 S 
BRANCH  15  22
ATOM     16  N   UNL     1       0.408  -1.689  -1.437  0.00  0.00    -0.271 N 
ATOM     17  C   UNL     1      -0.080  -1.697  -2.693  0.00  0.00    +0.345 A 
ATOM     18  O   UNL     1      -1.240  -1.886  -3.013  0.00  0.00    -0.245 OA
ATOM     19  N   UNL     1       0.949  -1.459  -3.532  0.00  0.00    -0.226 N 
ATOM     20  H   UNL     1       0.901  -1.406  -4.499  0.00  0.00    +0.194 HD
ATOM     21  N   UNL     1       2.101  -1.301  -2.749  0.00  0.00    -0.145 NA
ATOM     22  C   UNL     1       1.760  -1.436  -1.499  0.00  0.00    +0.193 A 
BRANCH  16  24
ATOM     23  C   UNL     1      -0.900  -0.567   0.298  0.00  0.00    +0.027 C 
ATOM     24  C   UNL     1      -0.368  -1.907  -0.214  0.00  0.00    +0.125 C 
ENDBRANCH  16  24
ENDBRANCH  15  22
ENDBRANCH   1  15
TORSDOF 6
