REMARK  Name = ZINC49554894
REMARK  3 active torsions:
REMARK  status: ('A' for Active; 'I' for Inactive)
REMARK    1  A    between atoms: C_1  and  C_2
REMARK    2  A    between atoms: C_2  and  N_3
REMARK    3  A    between atoms: C_7  and  N_11
REMARK                            x       y       z     vdW  Elec       q    Type
REMARK                         _______ _______ _______ _____ _____    ______ ____
ROOT
ATOM      1  N   UNL     1      -3.643  -2.627  -1.258  0.00  0.00    -0.312 N 
ATOM      2  C   UNL     1      -4.194  -2.815  -2.516  0.00  0.00    +0.159 A 
ATOM      3  N   UNL     1      -4.583  -1.905  -3.382  0.00  0.00    -0.230 NA
ATOM      4  C   UNL     1      -5.098  -2.235  -4.565  0.00  0.00    +0.054 A 
ATOM      5  C   UNL     1      -5.187  -3.568  -4.796  0.00  0.00    +0.014 A 
ATOM      6  S   UNL     1      -4.520  -4.264  -3.311  0.00  0.00    -0.057 S 
ATOM      7  C   UNL     1      -5.716  -4.249  -6.013  0.00  0.00    +0.044 C 
ATOM      8  C   UNL     1      -6.496  -3.215  -6.841  0.00  0.00    +0.006 C 
ATOM      9  C   UNL     1      -5.651  -1.944  -6.965  0.00  0.00    +0.006 C 
ATOM     10  C   UNL     1      -5.566  -1.234  -5.612  0.00  0.00    +0.056 C 
ATOM     11  H   UNL     1      -3.393  -3.393  -0.718  0.00  0.00    +0.149 HD
ENDROOT
BRANCH   1  16
ATOM     12  N   UNL     1      -1.372  -0.511   0.012  0.00  0.00    -0.241 N 
ATOM     13  C   UNL     1      -2.043  -0.763   1.143  0.00  0.00    +0.224 C 
ATOM     14  O   UNL     1      -1.611  -0.607   2.265  0.00  0.00    -0.275 OA
ATOM     15  C   UNL     1      -3.426  -1.272   0.799  0.00  0.00    +0.128 C 
ATOM     16  C   UNL     1      -3.438  -1.271  -0.743  0.00  0.00    +0.168 C 
ATOM     17  C   UNL     1      -2.063  -0.756  -1.108  0.00  0.00    +0.243 C 
ATOM     18  O   UNL     1      -1.651  -0.593  -2.236  0.00  0.00    -0.273 OA
BRANCH  12  20
ATOM     19  C   UNL     1      -0.019   1.526   0.010  0.00  0.00    +0.025 C 
ATOM     20  C   UNL     1       0.002  -0.004   0.002  0.00  0.00    +0.113 C 
ENDBRANCH  12  20
ENDBRANCH   1  16
TORSDOF 2
