REMARK  Name = ZINC36547290
REMARK  10 active torsions:
REMARK  status: ('A' for Active; 'I' for Inactive)
REMARK    1  A    between atoms: C_1  and  C_2
REMARK    2  A    between atoms: C_5  and  S_8
REMARK    3  A    between atoms: S_8  and  C_11
REMARK    4  A    between atoms: C_11  and  N_12
REMARK    5  A    between atoms: C_13  and  C_15
REMARK    6  A    between atoms: C_15  and  C_17
REMARK    7  A    between atoms: C_15  and  N_24
REMARK    8  A    between atoms: C_21  and  O_23
REMARK    9  A    between atoms: N_24  and  C_25
REMARK   10  A    between atoms: C_32  and  C_34
REMARK                            x       y       z     vdW  Elec       q    Type
REMARK                         _______ _______ _______ _____ _____    ______ ____
ROOT
ATOM      1  C   UNL     1       2.693  -4.846   3.747  0.00  0.00    +0.197 C 
ENDROOT
BRANCH   1   2
ATOM      2  C   UNL     1       3.935  -4.304   3.087  0.00  0.00    -0.014 A 
ATOM      3  C   UNL     1       4.843  -5.171   2.506  0.00  0.00    +0.006 A 
ATOM      4  C   UNL     1       5.983  -4.677   1.900  0.00  0.00    +0.004 A 
ATOM      5  C   UNL     1       6.218  -3.316   1.873  0.00  0.00    +0.045 A 
ATOM      6  C   UNL     1       5.309  -2.445   2.455  0.00  0.00    +0.117 A 
ATOM      7  C   UNL     1       4.163  -2.942   3.058  0.00  0.00    +0.051 A 
BRANCH   6   8
ATOM      8  O   UNL     1       5.538  -1.105   2.430  0.00  0.00    -0.507 OA
ATOM      9  H   UNL     1       5.171  -0.658   1.655  0.00  0.00    +0.292 HD
ENDBRANCH   6   8
ENDBRANCH   1   2
BRANCH   1  11
ATOM     10  N   UNL     1       0.802  -4.475   2.197  0.00  0.00    -0.294 N 
ATOM     11  C   UNL     1       1.729  -5.320   2.691  0.00  0.00    +0.240 C 
ATOM     12  O   UNL     1       1.786  -6.461   2.285  0.00  0.00    -0.273 OA
ATOM     13  H   UNL     1       0.756  -3.562   2.522  0.00  0.00    +0.150 HD
BRANCH  10  14
ATOM     14  C   UNL     1      -0.136  -4.935   1.170  0.00  0.00    +0.278 C 
BRANCH  14  15
ATOM     15  S   UNL     1      -1.677  -5.477   1.958  0.00  0.00    +0.013 S 
ATOM     16  O   UNL     1      -1.391  -6.325   3.062  0.00  0.00    -0.168 OA
ATOM     17  O   UNL     1      -2.621  -5.868   0.970  0.00  0.00    -0.168 OA
BRANCH  15  22
ATOM     18  C   UNL     1      -4.004  -0.484   4.420  0.00  0.00    +0.044 C 
ATOM     19  C   UNL     1      -3.423  -1.731   3.805  0.00  0.00    -0.050 A 
ATOM     20  C   UNL     1      -3.752  -2.080   2.509  0.00  0.00    +0.005 A 
ATOM     21  C   UNL     1      -3.219  -3.224   1.945  0.00  0.00    +0.027 A 
ATOM     22  C   UNL     1      -2.356  -4.019   2.677  0.00  0.00    +0.090 A 
ATOM     23  C   UNL     1      -2.026  -3.669   3.973  0.00  0.00    +0.027 A 
ATOM     24  C   UNL     1      -2.556  -2.522   4.535  0.00  0.00    +0.005 A 
ENDBRANCH  15  22
ENDBRANCH  14  15
ENDBRANCH  10  14
ENDBRANCH   1  11
BRANCH   1  25
ATOM     25  N   UNL     1       3.053  -5.968   4.618  0.00  0.00    -0.253 N 
ATOM     26  C   UNL     1       3.791  -5.752   5.725  0.00  0.00    +0.235 C 
ATOM     27  O   UNL     1       4.175  -6.691   6.391  0.00  0.00    -0.274 OA
BRANCH  25  28
ATOM     28  C   UNL     1       2.631  -7.264   4.300  0.00  0.00    +0.056 A 
ATOM     29  C   UNL     1       3.515  -8.160   3.715  0.00  0.00    +0.025 A 
ATOM     30  C   UNL     1       3.095  -9.438   3.403  0.00  0.00    +0.002 A 
ATOM     31  C   UNL     1       1.796  -9.827   3.672  0.00  0.00    +0.002 A 
ATOM     32  C   UNL     1       0.912  -8.937   4.255  0.00  0.00    +0.022 A 
ATOM     33  C   UNL     1       1.327  -7.659   4.575  0.00  0.00    +0.062 A 
ATOM     34 CL   UNL     1       0.219  -6.545   5.314  0.00  0.00    -0.082 Cl
ENDBRANCH  25  28
BRANCH  26  35
ATOM     35  C   UNL     1       4.139  -4.344   6.136  0.00  0.00    +0.204 C 
ATOM     36 CL   UNL     1       5.117  -4.385   7.650  0.00  0.00    -0.116 Cl
ENDBRANCH  26  35
ENDBRANCH   1  25
TORSDOF 9
