REMARK  Name = ZINC14699500
REMARK  11 active torsions:
REMARK  status: ('A' for Active; 'I' for Inactive)
REMARK    1  A    between atoms: C_1  and  C_2
REMARK    2  A    between atoms: C_2  and  C_3
REMARK    3  A    between atoms: C_3  and  C_4
REMARK    4  A    between atoms: C_4  and  N_5
REMARK    5  A    between atoms: C_6  and  N_34
REMARK    6  A    between atoms: C_7  and  N_14
REMARK    7  A    between atoms: N_14  and  C_15
REMARK    8  A    between atoms: C_15  and  C_16
REMARK    9  A    between atoms: C_21  and  O_22
REMARK   10  A    between atoms: O_22  and  C_23
REMARK   11  A    between atoms: C_24  and  C_26
REMARK                            x       y       z     vdW  Elec       q    Type
REMARK                         _______ _______ _______ _____ _____    ______ ____
ROOT
ATOM      1  N   UNL     1      -2.641   0.275  -1.238  0.00  0.00    -0.256 N 
ATOM      2  C   UNL     1      -2.758   1.542  -1.682  0.00  0.00    +0.253 C 
ATOM      3  O   UNL     1      -2.471   2.471  -0.951  0.00  0.00    -0.270 OA
ENDROOT
BRANCH   1   6
ATOM      4  N   UNL     1      -2.665  -2.045  -4.086  0.00  0.00    -0.280 N 
ATOM      5  C   UNL     1      -2.316  -0.985  -3.282  0.00  0.00    +0.127 A 
ATOM      6  C   UNL     1      -2.976  -0.802  -2.084  0.00  0.00    +0.140 A 
ATOM      7  C   UNL     1      -3.986  -1.712  -1.719  0.00  0.00    +0.277 A 
ATOM      8  O   UNL     1      -4.581  -1.577  -0.663  0.00  0.00    -0.266 OA
ATOM      9  N   UNL     1      -4.294  -2.731  -2.546  0.00  0.00    -0.273 N 
ATOM     10  H   UNL     1      -5.017  -3.372  -2.292  0.00  0.00    +0.173 HD
ATOM     11  C   UNL     1      -3.639  -2.893  -3.709  0.00  0.00    +0.331 A 
ATOM     12  O   UNL     1      -3.933  -3.825  -4.434  0.00  0.00    -0.246 OA
BRANCH   5  13
ATOM     13  N   UNL     1      -1.321  -0.119  -3.668  0.00  0.00    -0.343 N 
ATOM     14  H   UNL     1      -0.999   0.555  -3.049  0.00  0.00    +0.144 HD
ATOM     15  H   UNL     1      -0.942  -0.181  -4.559  0.00  0.00    +0.144 HD
ENDBRANCH   5  13
BRANCH   4  16
ATOM     16  C   UNL     1      -1.973  -2.252  -5.361  0.00  0.00    +0.128 C 
BRANCH  16  17
ATOM     17  C   UNL     1      -0.755  -3.151  -5.139  0.00  0.00    +0.021 C 
BRANCH  17  19
ATOM     18  C   UNL     1       1.187  -4.266  -6.248  0.00  0.00    +0.004 C 
ATOM     19  C   UNL     1      -0.031  -3.367  -6.470  0.00  0.00    -0.002 C 
ENDBRANCH  17  19
ENDBRANCH  16  17
ENDBRANCH   4  16
ENDBRANCH   1   6
BRANCH   2  20
ATOM     20  C   UNL     1      -3.234   1.803  -3.055  0.00  0.00    +0.056 A 
ATOM     21  C   UNL     1      -4.107   0.907  -3.677  0.00  0.00    +0.016 A 
ATOM     22  C   UNL     1      -4.548   1.156  -4.959  0.00  0.00    +0.021 A 
ATOM     23  C   UNL     1      -4.128   2.292  -5.632  0.00  0.00    +0.042 A 
ATOM     24  C   UNL     1      -3.262   3.184  -5.023  0.00  0.00    +0.040 A 
ATOM     25  C   UNL     1      -2.817   2.950  -3.737  0.00  0.00    +0.054 A 
ATOM     26 CL   UNL     1      -1.738   4.073  -2.971  0.00  0.00    -0.083 Cl
ATOM     27 CL   UNL     1      -4.689   2.597  -7.246  0.00  0.00    -0.083 Cl
ENDBRANCH   2  20
BRANCH   1  28
ATOM     28  C   UNL     1      -2.165   0.017   0.123  0.00  0.00    +0.153 C 
BRANCH  28  29
ATOM     29  C   UNL     1      -0.689  -0.282   0.091  0.00  0.00    +0.012 A 
ATOM     30  C   UNL     1      -0.246  -1.590   0.146  0.00  0.00    +0.009 A 
ATOM     31  C   UNL     1       1.108  -1.865   0.117  0.00  0.00    +0.001 A 
ATOM     32  C   UNL     1       2.024  -0.832   0.034  0.00  0.00    +0.004 A 
ATOM     33  C   UNL     1       1.587   0.477  -0.026  0.00  0.00    +0.046 A 
ATOM     34  C   UNL     1       0.228   0.756   0.008  0.00  0.00    +0.125 A 
BRANCH  34  35
ATOM     35  O   UNL     1      -0.204   2.043  -0.045  0.00  0.00    -0.495 OA
ATOM     36  C   UNL     1       0.794   3.065  -0.019  0.00  0.00    +0.277 C 
ENDBRANCH  34  35
ENDBRANCH  28  29
ENDBRANCH   1  28
TORSDOF 9
