REMARK  Name = ZINC12485090
REMARK  8 active torsions:
REMARK  status: ('A' for Active; 'I' for Inactive)
REMARK    1  A    between atoms: C_1  and  C_2
REMARK    2  A    between atoms: C_5  and  C_37
REMARK    3  A    between atoms: N_8  and  S_10
REMARK    4  A    between atoms: S_10  and  C_13
REMARK    5  A    between atoms: C_16  and  C_19
REMARK    6  A    between atoms: C_19  and  N_21
REMARK    7  A    between atoms: N_23  and  C_34
REMARK    8  A    between atoms: C_34  and  C_35
REMARK                            x       y       z     vdW  Elec       q    Type
REMARK                         _______ _______ _______ _____ _____    ______ ____
ROOT
ATOM      1  C   UNL     1      -0.079   6.007   0.036  0.00  0.00    +0.269 C 
ATOM      2  O   UNL     1       0.968   6.631   0.029  0.00  0.00    -0.268 OA
ENDROOT
BRANCH   1   3
ATOM      3  N   UNL     1      -1.246   6.660   0.050  0.00  0.00    -0.152 NA
ATOM      4  C   UNL     1      -1.264   7.989   0.058  0.00  0.00    +0.168 A 
ATOM      5  N   UNL     1      -2.342   8.818   0.067  0.00  0.00    -0.309 N 
ATOM      6  C   UNL     1      -2.162  10.190   0.079  0.00  0.00    +0.062 A 
ATOM      7  C   UNL     1      -3.143  11.194   0.093  0.00  0.00    +0.076 A 
ATOM      8  C   UNL     1      -2.792  12.529   0.098  0.00  0.00    +0.168 A 
ATOM      9  C   UNL     1      -1.450  12.911   0.087  0.00  0.00    +0.167 A 
ATOM     10  C   UNL     1      -0.466  11.937   0.072  0.00  0.00    +0.066 A 
ATOM     11  C   UNL     1      -0.824  10.609   0.068  0.00  0.00    +0.043 A 
ATOM     12  S   UNL     1       0.082   9.083   0.051  0.00  0.00    -0.052 S 
ATOM     13  O   UNL     1      -1.380  14.274   0.095  0.00  0.00    -0.453 OA
ATOM     14  C   UNL     1      -2.680  14.721   0.523  0.00  0.00    +0.466 C 
ATOM     15  O   UNL     1      -3.561  13.660   0.112  0.00  0.00    -0.453 OA
BRANCH   5  16
ATOM     16  C   UNL     1      -3.696   8.257   0.070  0.00  0.00    +0.212 C 
BRANCH  16  17
ATOM     17  C   UNL     1      -4.143   8.062   1.458  0.00  0.00    -0.084 C 
ATOM     18  C   UNL     1      -4.501   7.906   2.565  0.00  0.00    +0.005 C 
ENDBRANCH  16  17
ENDBRANCH   5  16
ENDBRANCH   1   3
BRANCH   1  22
ATOM     19  C   UNL     1      -0.022   1.758   0.012  0.00  0.00    +0.106 A 
ATOM     20  C   UNL     1      -1.231   2.430   0.021  0.00  0.00    +0.029 A 
ATOM     21  C   UNL     1      -1.256   3.810   0.035  0.00  0.00    +0.015 A 
ATOM     22  C   UNL     1      -0.059   4.526   0.027  0.00  0.00    +0.039 A 
ATOM     23  C   UNL     1       1.156   3.843   0.012  0.00  0.00    +0.015 A 
ATOM     24  C   UNL     1       1.168   2.463   0.004  0.00  0.00    +0.029 A 
BRANCH  19  25
ATOM     25  S   UNL     1       0.002  -0.004   0.002  0.00  0.00    +0.061 S 
ATOM     26  O   UNL     1      -1.243  -0.424  -0.539  0.00  0.00    -0.153 OA
ATOM     27  O   UNL     1       1.248  -0.390  -0.563  0.00  0.00    -0.153 OA
BRANCH  25  33
ATOM     28  C   UNL     1       2.546  -0.205   4.390  0.00  0.00    +0.009 C 
ATOM     29  C   UNL     1       1.285   0.104   3.580  0.00  0.00    +0.002 C 
ATOM     30  C   UNL     1       0.048  -0.269   4.400  0.00  0.00    +0.009 C 
ATOM     31  C   UNL     1      -1.215   0.070   3.604  0.00  0.00    +0.002 C 
ATOM     32  C   UNL     1      -1.230  -0.745   2.307  0.00  0.00    +0.112 C 
ATOM     33  N   UNL     1       0.024  -0.502   1.581  0.00  0.00    -0.176 NA
ATOM     34  C   UNL     1       1.298  -0.716   2.281  0.00  0.00    +0.112 C 
ATOM     35  C   UNL     1      -2.452  -0.272   4.437  0.00  0.00    +0.009 C 
ENDBRANCH  25  33
ENDBRANCH  19  25
ENDBRANCH   1  22
TORSDOF 6
