REMARK  Name = ZINC17072828
REMARK  3 active torsions:
REMARK  status: ('A' for Active; 'I' for Inactive)
REMARK    1  A    between atoms: C_8  and  C_13
REMARK    2  A    between atoms: C_13  and  C_14
REMARK    3  A    between atoms: N_16  and  C_17
REMARK                            x       y       z     vdW  Elec       q    Type
REMARK                         _______ _______ _______ _____ _____    ______ ____
ROOT
ATOM      1  C   UNL     1       0.634  -0.438  -2.373  0.00  0.00    +0.129 C 
ENDROOT
BRANCH   1   9
ATOM      2  C   UNL     1       3.584   3.299   0.007  0.00  0.00    +0.002 A 
ATOM      3  C   UNL     1       2.417   3.973   0.318  0.00  0.00    +0.004 A 
ATOM      4  C   UNL     1       1.208   3.305   0.323  0.00  0.00    +0.048 A 
ATOM      5  C   UNL     1       1.158   1.953   0.015  0.00  0.00    +0.152 A 
ATOM      6  C   UNL     1       2.333   1.275  -0.293  0.00  0.00    +0.071 A 
ATOM      7  C   UNL     1       3.545   1.952  -0.298  0.00  0.00    +0.026 A 
ATOM      8  N   UNL     1       2.304  -0.095  -0.596  0.00  0.00    -0.328 N 
ATOM      9  C   UNL     1       0.995  -0.699  -0.909  0.00  0.00    +0.189 C 
ATOM     10  C   UNL     1      -0.018  -0.033   0.003  0.00  0.00    +0.333 C 
ATOM     11  O   UNL     1      -0.771  -0.684   0.688  0.00  0.00    -0.248 OA
ATOM     12  O   UNL     1      -0.044   1.315   0.016  0.00  0.00    -0.423 OA
ATOM     13  H   UNL     1       3.115  -0.626  -0.600  0.00  0.00    +0.147 HD
ENDBRANCH   1   9
BRANCH   1  14
ATOM     14  C   UNL     1       1.575  -1.204  -3.267  0.00  0.00    +0.220 C 
ATOM     15  O   UNL     1       2.448  -1.891  -2.781  0.00  0.00    -0.275 OA
ATOM     16  N   UNL     1       1.446  -1.125  -4.606  0.00  0.00    -0.284 N 
ATOM     17  H   UNL     1       0.709  -0.628  -4.994  0.00  0.00    +0.155 HD
BRANCH  16  18
ATOM     18  C   UNL     1       2.376  -1.761  -5.438  0.00  0.00    +0.053 A 
ATOM     19  C   UNL     1       2.943  -2.968  -5.052  0.00  0.00    +0.025 A 
ATOM     20  C   UNL     1       3.856  -3.596  -5.876  0.00  0.00    +0.003 A 
ATOM     21  C   UNL     1       4.216  -3.018  -7.080  0.00  0.00    +0.021 A 
ATOM     22  C   UNL     1       3.658  -1.812  -7.466  0.00  0.00    +0.061 A 
ATOM     23  C   UNL     1       2.738  -1.181  -6.647  0.00  0.00    +0.080 A 
ATOM     24 CL   UNL     1       2.038   0.332  -7.131  0.00  0.00    -0.080 Cl
ATOM     25 CL   UNL     1       4.112  -1.091  -8.978  0.00  0.00    -0.082 Cl
ENDBRANCH  16  18
ENDBRANCH   1  14
TORSDOF 3
