REMARK  Name = ZINC54228163
REMARK  7 active torsions:
REMARK  status: ('A' for Active; 'I' for Inactive)
REMARK    1  A    between atoms: C_1  and  C_2
REMARK    2  A    between atoms: C_2  and  C_3
REMARK    3  A    between atoms: C_2  and  C_4
REMARK    4  A    between atoms: C_4  and  C_23
REMARK    5  A    between atoms: N_7  and  C_11
REMARK    6  A    between atoms: C_11  and  C_12
REMARK    7  A    between atoms: N_14  and  C_15
REMARK                            x       y       z     vdW  Elec       q    Type
REMARK                         _______ _______ _______ _____ _____    ______ ____
ROOT
ATOM      1  C   UNL     1       2.533  -3.739  -1.311  0.00  0.00    +0.214 C 
ENDROOT
BRANCH   1   5
ATOM      2  C   UNL     1       0.716  -0.500  -1.252  0.00  0.00    +0.112 C 
ATOM      3  C   UNL     1       0.742  -2.016  -1.290  0.00  0.00    +0.247 C 
ATOM      4  O   UNL     1      -0.212  -2.764  -1.323  0.00  0.00    -0.273 OA
ATOM      5  N   UNL     1       2.045  -2.358  -1.282  0.00  0.00    -0.215 N 
ATOM      6  C   UNL     1       2.838  -1.281  -1.244  0.00  0.00    +0.310 C 
ATOM      7  O   UNL     1       4.052  -1.336  -1.231  0.00  0.00    -0.252 OA
ATOM      8  N   UNL     1       2.141  -0.131  -1.224  0.00  0.00    -0.285 N 
ATOM      9  C   UNL     1       0.038   0.062  -2.503  0.00  0.00    +0.042 C 
ATOM     10  H   UNL     1       2.507   0.768  -1.196  0.00  0.00    +0.151 HD
BRANCH   2  12
ATOM     11  C   UNL     1      -0.019   1.524   0.016  0.00  0.00    +0.010 C 
ATOM     12  C   UNL     1       0.006  -0.006   0.011  0.00  0.00    +0.015 C 
ATOM     13  C   UNL     1      -1.427  -0.540   0.032  0.00  0.00    +0.010 C 
ENDBRANCH   2  12
ENDBRANCH   1   5
BRANCH   1  14
ATOM     14  C   UNL     1       2.719  -4.177  -2.741  0.00  0.00    +0.235 C 
ATOM     15  O   UNL     1       2.468  -3.411  -3.647  0.00  0.00    -0.274 OA
ATOM     16  N   UNL     1       3.163  -5.420  -3.013  0.00  0.00    -0.284 N 
ATOM     17  H   UNL     1       3.428  -6.009  -2.289  0.00  0.00    +0.155 HD
BRANCH  16  18
ATOM     18  C   UNL     1       3.244  -5.859  -4.339  0.00  0.00    +0.039 A 
ATOM     19  C   UNL     1       2.974  -7.186  -4.649  0.00  0.00    +0.061 A 
ATOM     20  C   UNL     1       3.054  -7.619  -5.960  0.00  0.00    +0.128 A 
ATOM     21  C   UNL     1       3.404  -6.730  -6.964  0.00  0.00    +0.076 A 
ATOM     22  C   UNL     1       3.673  -5.407  -6.656  0.00  0.00    +0.128 A 
ATOM     23  C   UNL     1       3.588  -4.969  -5.347  0.00  0.00    +0.061 A 
ATOM     24  F   UNL     1       4.015  -4.543  -7.637  0.00  0.00    -0.205 F 
ATOM     25  F   UNL     1       2.791  -8.909  -6.263  0.00  0.00    -0.205 F 
ENDBRANCH  16  18
ENDBRANCH   1  14
TORSDOF 4
