REMARK  Name = ZINC25673287
REMARK  5 active torsions:
REMARK  status: ('A' for Active; 'I' for Inactive)
REMARK    1  A    between atoms: C_9  and  C_12
REMARK    2  A    between atoms: N_14  and  C_15
REMARK    3  A    between atoms: C_15  and  C_16
REMARK    4  A    between atoms: C_19  and  S_21
REMARK    5  A    between atoms: S_21  and  N_24
REMARK                            x       y       z     vdW  Elec       q    Type
REMARK                         _______ _______ _______ _____ _____    ______ ____
ROOT
ATOM      1  C   UNL     1       5.498  -0.954  -1.682  0.00  0.00    +0.261 C 
ATOM      2  O   UNL     1       6.258  -1.205  -0.766  0.00  0.00    -0.269 OA
ATOM      3  N   UNL     1       4.242  -0.541  -1.422  0.00  0.00    -0.306 N 
ATOM      4  H   UNL     1       3.555  -0.313  -2.251  0.00  0.00    +0.149 HD
ENDROOT
BRANCH   1  13
ATOM      5  C   UNL     1       6.673  -1.328  -7.586  0.00  0.00    +0.017 A 
ATOM      6  C   UNL     1       5.687  -1.006  -6.680  0.00  0.00    +0.027 A 
ATOM      7  C   UNL     1       5.945  -1.093  -5.315  0.00  0.00    +0.047 A 
ATOM      8  C   UNL     1       7.217  -1.512  -4.877  0.00  0.00    +0.001 A 
ATOM      9  C   UNL     1       8.203  -1.835  -5.817  0.00  0.00    +0.025 A 
ATOM     10  C   UNL     1       7.926  -1.742  -7.151  0.00  0.00    +0.019 A 
ATOM     11 BR   UNL     1       9.260  -2.179  -8.418  0.00  0.00    -0.050 Br
ATOM     12  C   UNL     1       7.189  -1.506  -3.461  0.00  0.00    +0.041 A 
ATOM     13  C   UNL     1       5.951  -1.100  -3.074  0.00  0.00    +0.103 A 
ATOM     14  N   UNL     1       5.184  -0.851  -4.196  0.00  0.00    -0.351 N 
ATOM     15  H   UNL     1       4.142  -0.517  -4.301  0.00  0.00    +0.166 HD
ENDBRANCH   1  13
BRANCH   3  16
ATOM     16  C   UNL     1       3.791  -0.395  -0.036  0.00  0.00    +0.147 C 
BRANCH  16  17
ATOM     17  C   UNL     1       2.360   0.076  -0.020  0.00  0.00    +0.009 A 
ATOM     18  C   UNL     1       1.220  -0.658  -0.013  0.00  0.00    +0.015 A 
ATOM     19  C   UNL     1       0.002  -0.004   0.002  0.00  0.00    +0.036 A 
ATOM     20  C   UNL     1      -0.016   1.351   0.009  0.00  0.00    +0.142 A 
ATOM     21  S   UNL     1       1.725   1.744  -0.005  0.00  0.00    -0.072 S 
BRANCH  20  22
ATOM     22  S   UNL     1      -1.400   2.442   0.022  0.00  0.00    +0.062 S 
ATOM     23  O   UNL     1      -0.951   3.675  -0.524  0.00  0.00    -0.153 OA
ATOM     24  O   UNL     1      -2.493   1.719  -0.527  0.00  0.00    -0.153 OA
BRANCH  22  25
ATOM     25  N   UNL     1      -1.776   2.737   1.608  0.00  0.00    -0.203 NA
ATOM     26  H   UNL     1      -2.639   3.417   1.659  0.00  0.00    +0.144 HD
ATOM     27  H   UNL     1      -0.914   3.200   2.110  0.00  0.00    +0.144 HD
ENDBRANCH  22  25
ENDBRANCH  20  22
ENDBRANCH  16  17
ENDBRANCH   3  16
TORSDOF 5
