REMARK  Name = ZINC12245708
REMARK  10 active torsions:
REMARK  status: ('A' for Active; 'I' for Inactive)
REMARK    1  A    between atoms: C_1  and  C_2
REMARK    2  A    between atoms: C_2  and  C_4
REMARK    3  A    between atoms: C_2  and  N_9
REMARK    4  A    between atoms: C_10  and  C_12
REMARK    5  A    between atoms: C_15  and  C_20
REMARK    6  A    between atoms: C_20  and  N_71
REMARK    7  A    between atoms: C_23  and  C_26
REMARK    8  A    between atoms: C_26  and  C_27
REMARK    9  A    between atoms: C_26  and  C_33
REMARK   10  A    between atoms: C_26  and  O_39
REMARK                            x       y       z     vdW  Elec       q    Type
REMARK                         _______ _______ _______ _____ _____    ______ ____
ROOT
ATOM      1  C   UNL     1      -0.023   1.462   0.028  0.00  0.00    -0.078 C 
ATOM      2  C   UNL     1       1.413   1.991   0.037  0.00  0.00    -0.012 C 
ATOM      3  C   UNL     1       2.137   1.464   1.279  0.00  0.00    +0.026 C 
ATOM      4  C   UNL     1       2.100  -0.067   1.271  0.00  0.00    -0.012 C 
ATOM      5  C   UNL     1       0.644  -0.536   1.225  0.00  0.00    -0.078 C 
ATOM      6  N   UNL     1       0.010  -0.015  -0.005  0.00  0.00    +0.383 N 
ATOM      7  H   UNL     1       0.561  -0.318  -0.817  0.00  0.00    -0.081 HD
ENDROOT
BRANCH   6   8
ATOM      8  C   UNL     1      -1.362  -0.548  -0.130  0.00  0.00    -0.025 C 
BRANCH   8  12
ATOM      9  C   UNL     1      -1.141  -4.740  -0.845  0.00  0.00    +0.101 A 
ATOM     10  C   UNL     1      -1.732  -4.267   0.325  0.00  0.00    +0.020 A 
ATOM     11  C   UNL     1      -1.789  -2.890   0.543  0.00  0.00    +0.020 A 
ATOM     12  C   UNL     1      -1.286  -2.032  -0.380  0.00  0.00    +0.003 A 
ATOM     13  N   UNL     1      -0.710  -2.485  -1.519  0.00  0.00    -0.327 N 
ATOM     14  H   UNL     1      -0.355  -1.849  -2.160  0.00  0.00    +0.169 HD
ATOM     15  C   UNL     1      -0.624  -3.804  -1.777  0.00  0.00    +0.261 A 
ATOM     16  O   UNL     1      -0.102  -4.192  -2.808  0.00  0.00    -0.267 OA
BRANCH   9  18
ATOM     17  N   UNL     1      -0.591  -6.627  -2.294  0.00  0.00    -0.304 N 
ATOM     18  C   UNL     1      -1.056  -6.184  -1.109  0.00  0.00    +0.250 C 
ATOM     19  O   UNL     1      -1.405  -6.980  -0.257  0.00  0.00    -0.270 OA
ATOM     20  H   UNL     1      -0.243  -5.996  -2.945  0.00  0.00    +0.150 HD
BRANCH  17  22
ATOM     21  C   UNL     1       0.647  -8.719  -2.027  0.00  0.00    +0.033 C 
ATOM     22  C   UNL     1      -0.609  -8.059  -2.600  0.00  0.00    +0.107 C 
BRANCH  22  23
ATOM     23  C   UNL     1      -0.641  -8.254  -4.094  0.00  0.00    +0.010 A 
ATOM     24  C   UNL     1      -1.341  -9.158  -4.822  0.00  0.00    +0.013 A 
ATOM     25  C   UNL     1      -1.216  -9.152  -6.198  0.00  0.00    +0.008 A 
ATOM     26  C   UNL     1      -0.396  -8.241  -6.779  0.00  0.00    +0.045 A 
ATOM     27  S   UNL     1       0.225  -7.348  -5.364  0.00  0.00    -0.100 S 
ENDBRANCH  22  23
ENDBRANCH  17  22
ENDBRANCH   9  18
ENDBRANCH   8  12
ENDBRANCH   6   8
BRANCH   3  28
ATOM     28  C   UNL     1       3.591   1.940   1.265  0.00  0.00    +0.119 C 
BRANCH  28  29
ATOM     29  C   UNL     1       3.627   3.446   1.273  0.00  0.00    -0.011 A 
ATOM     30  C   UNL     1       2.611   4.159   1.883  0.00  0.00    +0.007 A 
ATOM     31  C   UNL     1       2.646   5.540   1.894  0.00  0.00    +0.000 A 
ATOM     32  C   UNL     1       3.692   6.210   1.287  0.00  0.00    +0.000 A 
ATOM     33  C   UNL     1       4.706   5.498   0.673  0.00  0.00    +0.000 A 
ATOM     34  C   UNL     1       4.673   4.116   0.666  0.00  0.00    +0.007 A 
ENDBRANCH  28  29
BRANCH  28  35
ATOM     35  C   UNL     1       4.304   1.414   2.484  0.00  0.00    -0.011 A 
ATOM     36  C   UNL     1       3.603   1.199   3.656  0.00  0.00    +0.007 A 
ATOM     37  C   UNL     1       4.255   0.713   4.773  0.00  0.00    +0.000 A 
ATOM     38  C   UNL     1       5.612   0.450   4.721  0.00  0.00    +0.000 A 
ATOM     39  C   UNL     1       6.314   0.669   3.551  0.00  0.00    +0.000 A 
ATOM     40  C   UNL     1       5.660   1.151   2.432  0.00  0.00    +0.007 A 
ENDBRANCH  28  35
BRANCH  28  41
ATOM     41  O   UNL     1       4.240   1.454   0.087  0.00  0.00    -0.379 OA
ATOM     42  H   UNL     1       3.834   1.754  -0.737  0.00  0.00    +0.211 HD
ENDBRANCH  28  41
ENDBRANCH   3  28
TORSDOF 9
