REMARK  Name = ZINC09950899
REMARK  6 active torsions:
REMARK  status: ('A' for Active; 'I' for Inactive)
REMARK    1  A    between atoms: C_1  and  C_2
REMARK    2  A    between atoms: C_15  and  C_17
REMARK    3  A    between atoms: C_17  and  S_18
REMARK    4  A    between atoms: S_18  and  C_19
REMARK    5  A    between atoms: N_24  and  C_25
REMARK    6  A    between atoms: C_25  and  C_26
REMARK                            x       y       z     vdW  Elec       q    Type
REMARK                         _______ _______ _______ _____ _____    ______ ____
ROOT
ATOM      1  C   UNL     1     -12.098   6.512   2.518  0.00  0.00    +0.029 C 
ATOM      2  C   UNL     1     -10.897   7.457   2.605  0.00  0.00    +0.087 C 
ATOM      3  C   UNL     1     -11.207   8.752   1.846  0.00  0.00    +0.118 C 
ATOM      4  C   UNL     1      -9.936   9.513   1.573  0.00  0.00    +0.219 C 
ATOM      5  O   UNL     1      -9.671  10.499   2.228  0.00  0.00    -0.275 OA
ATOM      6  N   UNL     1      -9.089   9.104   0.603  0.00  0.00    -0.284 N 
ATOM      7  C   UNL     1      -9.331   7.916  -0.097  0.00  0.00    +0.055 A 
ATOM      8  C   UNL     1      -9.256   7.878  -1.479  0.00  0.00    +0.025 A 
ATOM      9  C   UNL     1      -9.444   6.681  -2.146  0.00  0.00    +0.002 A 
ATOM     10  C   UNL     1      -9.708   5.524  -1.437  0.00  0.00    +0.002 A 
ATOM     11  C   UNL     1      -9.796   5.555  -0.057  0.00  0.00    +0.025 A 
ATOM     12  C   UNL     1      -9.617   6.752   0.617  0.00  0.00    +0.058 A 
ATOM     13  N   UNL     1      -9.725   6.809   2.014  0.00  0.00    -0.266 N 
ATOM     14  C   UNL     1      -8.770   6.271   2.798  0.00  0.00    +0.230 C 
ATOM     15  O   UNL     1      -8.874   6.327   4.005  0.00  0.00    -0.274 OA
ATOM     16  H   UNL     1      -8.308   9.638   0.390  0.00  0.00    +0.155 HD
ENDROOT
BRANCH  14  17
ATOM     17  C   UNL     1      -7.572   5.602   2.175  0.00  0.00    +0.172 C 
BRANCH  17  18
ATOM     18  S   UNL     1      -6.476   4.984   3.483  0.00  0.00    -0.088 S 
BRANCH  18  19
ATOM     19  C   UNL     1      -5.142   4.239   2.605  0.00  0.00    +0.160 A 
ATOM     20  N   UNL     1      -4.952   4.137   1.304  0.00  0.00    -0.133 NA
ATOM     21  N   UNL     1      -3.824   3.512   0.824  0.00  0.00    -0.125 NA
ATOM     22  C   UNL     1      -2.943   3.010   1.668  0.00  0.00    +0.183 A 
ATOM     23  S   UNL     1      -3.686   3.422   3.239  0.00  0.00    -0.025 S 
ATOM     24  N   UNL     1      -1.752   2.345   1.404  0.00  0.00    -0.318 N 
ATOM     25  H   UNL     1      -1.198   2.033   2.137  0.00  0.00    +0.148 HD
BRANCH  24  26
ATOM     26  C   UNL     1      -1.332   2.114   0.020  0.00  0.00    +0.138 C 
BRANCH  26  27
ATOM     27  C   UNL     1      -0.017   1.378   0.010  0.00  0.00    -0.030 A 
ATOM     28  C   UNL     1       1.171   2.086   0.002  0.00  0.00    +0.005 A 
ATOM     29  C   UNL     1       2.377   1.411  -0.014  0.00  0.00    +0.000 A 
ATOM     30  C   UNL     1       2.396   0.029  -0.021  0.00  0.00    +0.000 A 
ATOM     31  C   UNL     1       1.208  -0.679  -0.014  0.00  0.00    +0.000 A 
ATOM     32  C   UNL     1       0.002  -0.004   0.002  0.00  0.00    +0.005 A 
ENDBRANCH  26  27
ENDBRANCH  24  26
ENDBRANCH  18  19
ENDBRANCH  17  18
ENDBRANCH  14  17
TORSDOF 5
