REMARK  Name = ZINC48175325
REMARK  5 active torsions:
REMARK  status: ('A' for Active; 'I' for Inactive)
REMARK    1  A    between atoms: C_1  and  C_2
REMARK    2  A    between atoms: C_6  and  C_8
REMARK    3  A    between atoms: C_13  and  O_14
REMARK    4  A    between atoms: O_14  and  C_15
REMARK    5  A    between atoms: N_16  and  C_18
REMARK                            x       y       z     vdW  Elec       q    Type
REMARK                         _______ _______ _______ _____ _____    ______ ____
ROOT
ATOM      1  C   UNL     1      -0.018   1.503   0.010  0.00  0.00    +0.070 C 
ATOM      2  C   UNL     1       0.002  -0.004   0.002  0.00  0.00    +0.088 A 
ATOM      3  C   UNL     1       0.008  -0.823  -1.149  0.00  0.00    +0.131 A 
ATOM      4  C   UNL     1       0.029  -2.142  -0.712  0.00  0.00    +0.162 A 
ATOM      5  N   UNL     1       0.034  -2.927  -1.838  0.00  0.00    -0.323 N 
ATOM      6  C   UNL     1       0.017  -2.088  -2.921  0.00  0.00    +0.144 A 
ATOM      7  N   UNL     1       0.002  -0.845  -2.506  0.00  0.00    -0.224 NA
ATOM      8  N   UNL     1       0.035  -2.112   0.651  0.00  0.00    -0.214 N 
ATOM      9  N   UNL     1       0.023  -0.772   1.057  0.00  0.00    -0.168 NA
ATOM     10  H   UNL     1       0.048  -3.897  -1.862  0.00  0.00    +0.169 HD
ENDROOT
BRANCH   6  11
ATOM     11  C   UNL     1       0.017  -2.518  -4.335  0.00  0.00    +0.059 A 
ATOM     12  C   UNL     1       0.029  -3.876  -4.655  0.00  0.00    +0.015 A 
ATOM     13  C   UNL     1       0.029  -4.271  -5.977  0.00  0.00    +0.001 A 
ATOM     14  C   UNL     1       0.016  -3.325  -6.988  0.00  0.00    +0.004 A 
ATOM     15  C   UNL     1       0.005  -1.978  -6.683  0.00  0.00    +0.046 A 
ATOM     16  C   UNL     1      -0.002  -1.565  -5.360  0.00  0.00    +0.131 A 
BRANCH  16  17
ATOM     17  O   UNL     1      -0.019  -0.240  -5.059  0.00  0.00    -0.494 OA
ATOM     18  C   UNL     1      -0.038   0.674  -6.157  0.00  0.00    +0.277 C 
ENDBRANCH  16  17
ENDBRANCH   6  11
BRANCH   8  19
ATOM     19  C   UNL     1       0.054  -3.228   1.498  0.00  0.00    +0.068 A 
ATOM     20  C   UNL     1      -0.617  -4.388   1.136  0.00  0.00    +0.028 A 
ATOM     21  C   UNL     1      -0.595  -5.487   1.973  0.00  0.00    +0.002 A 
ATOM     22  C   UNL     1       0.092  -5.431   3.171  0.00  0.00    +0.000 A 
ATOM     23  C   UNL     1       0.761  -4.277   3.535  0.00  0.00    +0.002 A 
ATOM     24  C   UNL     1       0.749  -3.177   2.700  0.00  0.00    +0.028 A 
ENDBRANCH   8  19
TORSDOF 3
