REMARK  Name = ZINC13042186
REMARK  9 active torsions:
REMARK  status: ('A' for Active; 'I' for Inactive)
REMARK    1  A    between atoms: C_1  and  C_2
REMARK    2  A    between atoms: C_7  and  C_8
REMARK    3  A    between atoms: C_8  and  C_10
REMARK    4  A    between atoms: C_8  and  N_11
REMARK    5  A    between atoms: N_11  and  C_12
REMARK    6  A    between atoms: C_12  and  C_13
REMARK    7  A    between atoms: N_15  and  C_16
REMARK    8  A    between atoms: C_19  and  S_22
REMARK    9  A    between atoms: S_22  and  N_25
REMARK                            x       y       z     vdW  Elec       q    Type
REMARK                         _______ _______ _______ _____ _____    ______ ____
ROOT
ATOM      1  C   UNL     1      -2.329  -1.470   7.911  0.00  0.00    +0.034 A 
ATOM      2  C   UNL     1      -2.053  -2.820   7.738  0.00  0.00    +0.025 A 
ATOM      3  C   UNL     1      -2.369  -3.721   8.735  0.00  0.00    +0.031 A 
ATOM      4  C   UNL     1      -2.960  -3.281   9.905  0.00  0.00    +0.113 A 
ATOM      5  C   UNL     1      -3.237  -1.938  10.081  0.00  0.00    +0.031 A 
ATOM      6  C   UNL     1      -2.918  -1.030   9.090  0.00  0.00    +0.025 A 
ENDROOT
BRANCH   1   9
ATOM      7  C   UNL     1      -1.591   0.686   7.226  0.00  0.00    +0.231 C 
ATOM      8  O   UNL     1      -1.570   1.035   8.387  0.00  0.00    -0.274 OA
ATOM      9  N   UNL     1      -2.010  -0.554   6.903  0.00  0.00    -0.284 N 
ATOM     10  H   UNL     1      -2.091  -0.810   5.971  0.00  0.00    +0.155 HD
BRANCH   7  11
ATOM     11  C   UNL     1      -1.148   1.637   6.145  0.00  0.00    +0.178 C 
BRANCH  11  12
ATOM     12  N   UNL     1      -0.741   2.912   6.751  0.00  0.00    -0.302 NA
ATOM     13  H   UNL     1      -0.022   2.770   7.444  0.00  0.00    +0.123 HD
BRANCH  12  14
ATOM     14  C   UNL     1      -0.302   3.867   5.725  0.00  0.00    +0.081 C 
ATOM     15  C   UNL     1      -1.519   4.601   5.157  0.00  0.00    +0.029 C 
BRANCH  14  22
ATOM     16  C   UNL     1       1.489   5.385   4.041  0.00  0.00    +0.044 C 
ATOM     17  C   UNL     1       1.502   5.592   5.534  0.00  0.00    -0.046 A 
ATOM     18  C   UNL     1       2.366   6.512   6.097  0.00  0.00    +0.003 A 
ATOM     19  C   UNL     1       2.377   6.701   7.466  0.00  0.00    +0.000 A 
ATOM     20  C   UNL     1       1.524   5.971   8.272  0.00  0.00    +0.000 A 
ATOM     21  C   UNL     1       0.659   5.052   7.709  0.00  0.00    +0.005 A 
ATOM     22  C   UNL     1       0.644   4.865   6.339  0.00  0.00    -0.028 A 
ENDBRANCH  14  22
ENDBRANCH  12  14
ENDBRANCH  11  12
ENDBRANCH   7  11
ENDBRANCH   1   9
BRANCH   4  23
ATOM     23  S   UNL     1      -3.362  -4.435  11.175  0.00  0.00    +0.100 S 
ATOM     24  O   UNL     1      -4.403  -3.847  11.943  0.00  0.00    -0.146 OA
ATOM     25  O   UNL     1      -3.502  -5.701  10.544  0.00  0.00    -0.146 OA
BRANCH  23  26
ATOM     26  N   UNL     1      -2.044  -4.545  12.171  0.00  0.00    -0.118 NA
ATOM     27  C   UNL     1      -2.072  -5.333  13.197  0.00  0.00    +0.117 C 
ATOM     28  C   UNL     1      -3.318  -6.166  13.487  0.00  0.00    +0.073 C 
ATOM     29  C   UNL     1      -2.962  -7.614  13.222  0.00  0.00    +0.008 C 
ATOM     30  C   UNL     1      -2.372  -8.328  14.440  0.00  0.00    +0.002 C 
ATOM     31  C   UNL     1      -1.355  -7.477  15.200  0.00  0.00    +0.019 C 
ATOM     32  C   UNL     1      -0.404  -6.729  14.291  0.00  0.00    +0.102 C 
ATOM     33  N   UNL     1      -1.024  -5.422  13.991  0.00  0.00    -0.331 N 
ATOM     34  H   UNL     1      -0.653  -4.618  14.387  0.00  0.00    +0.147 HD
ENDBRANCH  23  26
ENDBRANCH   4  23
TORSDOF 7
