REMARK  Name = ZINC39446011
REMARK  3 active torsions:
REMARK  status: ('A' for Active; 'I' for Inactive)
REMARK    1  A    between atoms: C_4  and  C_7
REMARK    2  A    between atoms: C_11  and  C_20
REMARK    3  A    between atoms: C_13  and  C_15
REMARK                            x       y       z     vdW  Elec       q    Type
REMARK                         _______ _______ _______ _____ _____    ______ ____
ROOT
ATOM      1  C   UNL     1       3.696  -0.684  -0.038  0.00  0.00    +0.064 C 
ATOM      2  N   UNL     1       4.807   0.035  -0.041  0.00  0.00    -0.179 NA
ATOM      3  C   UNL     1       6.018  -0.511  -0.055  0.00  0.00    +0.258 C 
ATOM      4  O   UNL     1       7.014   0.187  -0.056  0.00  0.00    -0.272 OA
ATOM      5  C   UNL     1       6.133  -2.021  -0.070  0.00  0.00    +0.212 C 
ATOM      6  C   UNL     1       4.833  -2.804  -0.067  0.00  0.00    +0.022 C 
ATOM      7  C   UNL     1       3.670  -2.084  -0.046  0.00  0.00    +0.034 C 
ENDROOT
BRANCH   1  11
ATOM      8  C   UNL     1      -0.017   1.380   0.010  0.00  0.00    +0.000 A 
ATOM      9  C   UNL     1       1.169   2.094   0.002  0.00  0.00    +0.001 A 
ATOM     10  C   UNL     1       2.377   1.431  -0.013  0.00  0.00    +0.010 A 
ATOM     11  C   UNL     1       2.404   0.034  -0.021  0.00  0.00    -0.002 A 
ATOM     12  C   UNL     1       1.204  -0.680  -0.013  0.00  0.00    +0.010 A 
ATOM     13  C   UNL     1       0.002  -0.004   0.002  0.00  0.00    +0.001 A 
ENDBRANCH   1  11
BRANCH   6  14
ATOM     14  C   UNL     1       4.825  -4.215  -0.080  0.00  0.00    +0.133 A 
ATOM     15  C   UNL     1       4.345  -5.018  -1.099  0.00  0.00    +0.049 A 
ATOM     16  C   UNL     1       4.537  -6.343  -0.685  0.00  0.00    +0.042 A 
ATOM     17  C   UNL     1       5.113  -6.302   0.539  0.00  0.00    +0.195 A 
ATOM     18  O   UNL     1       5.290  -5.023   0.897  0.00  0.00    -0.463 OA
ENDBRANCH   6  14
BRANCH   5  19
ATOM     19  C   UNL     1       6.912  -2.430   1.111  0.00  0.00    +0.080 C 
ATOM     20  N   UNL     1       7.513  -2.745   2.021  0.00  0.00    -0.195 NA
ENDBRANCH   5  19
TORSDOF 3
