REMARK  Name = ZINC02203338
REMARK  2 active torsions:
REMARK  status: ('A' for Active; 'I' for Inactive)
REMARK    1  A    between atoms: C_7  and  N_12
REMARK    2  A    between atoms: C_15  and  C_18
REMARK                            x       y       z     vdW  Elec       q    Type
REMARK                         _______ _______ _______ _____ _____    ______ ____
ROOT
ATOM      1  N   UNL     1       1.357   1.607  -0.002  0.00  0.00    -0.285 N 
ATOM      2  C   UNL     1       2.410   0.793   0.380  0.00  0.00    +0.162 A 
ATOM      3  N   UNL     1       3.700   1.069   0.439  0.00  0.00    -0.225 NA
ATOM      4  C   UNL     1       4.582   0.154   0.835  0.00  0.00    +0.080 A 
ATOM      5  C   UNL     1       4.143  -1.091   1.185  0.00  0.00    +0.076 A 
ATOM      6  S   UNL     1       2.383  -0.907   0.931  0.00  0.00    -0.060 S 
ATOM      7  H   UNL     1       1.525   2.522  -0.277  0.00  0.00    +0.152 HD
ENDROOT
BRANCH   1  14
ATOM      8  C   UNL     1      -1.480   2.079  -3.421  0.00  0.00    +0.000 A 
ATOM      9  C   UNL     1      -2.551   2.807  -2.933  0.00  0.00    +0.001 A 
ATOM     10  C   UNL     1      -2.742   2.938  -1.573  0.00  0.00    +0.015 A 
ATOM     11  C   UNL     1      -1.850   2.332  -0.686  0.00  0.00    +0.067 A 
ATOM     12  C   UNL     1      -0.771   1.600  -1.190  0.00  0.00    +0.025 A 
ATOM     13  C   UNL     1      -0.591   1.476  -2.547  0.00  0.00    +0.010 A 
ATOM     14  C   UNL     1      -0.013   1.086   0.008  0.00  0.00    +0.298 C 
ATOM     15  O   UNL     1      -0.721   1.569   1.182  0.00  0.00    -0.435 OA
ATOM     16  C   UNL     1      -1.784   2.289   0.786  0.00  0.00    +0.342 C 
ATOM     17  O   UNL     1      -2.576   2.828   1.534  0.00  0.00    -0.245 OA
ENDBRANCH   1  14
BRANCH   4  18
ATOM     18  C   UNL     1       6.027   0.483   0.895  0.00  0.00    +0.002 A 
ATOM     19  C   UNL     1       6.470   1.756   0.536  0.00  0.00    +0.010 A 
ATOM     20  C   UNL     1       7.816   2.057   0.595  0.00  0.00    +0.002 A 
ATOM     21  C   UNL     1       8.725   1.100   1.009  0.00  0.00    +0.015 A 
ATOM     22  C   UNL     1       8.291  -0.165   1.366  0.00  0.00    +0.019 A 
ATOM     23  C   UNL     1       6.946  -0.476   1.316  0.00  0.00    +0.025 A 
ATOM     24 BR   UNL     1       9.540  -1.467   1.931  0.00  0.00    -0.050 Br
ENDBRANCH   4  18
TORSDOF 2
