REMARK  Name = ZINC12296237
REMARK  9 active torsions:
REMARK  status: ('A' for Active; 'I' for Inactive)
REMARK    1  A    between atoms: C_1  and  C_2
REMARK    2  A    between atoms: C_5  and  O_33
REMARK    3  A    between atoms: C_17  and  C_32
REMARK    4  A    between atoms: C_21  and  O_31
REMARK    5  A    between atoms: C_23  and  C_25
REMARK    6  A    between atoms: C_25  and  C_26
REMARK    7  A    between atoms: C_25  and  C_27
REMARK    8  A    between atoms: C_25  and  O_30
REMARK    9  A    between atoms: C_27  and  C_28
REMARK                            x       y       z     vdW  Elec       q    Type
REMARK                         _______ _______ _______ _____ _____    ______ ____
ROOT
ATOM      1  C   UNL     1      -0.335   0.997   0.075  0.00  0.00    +0.016 C 
ATOM      2  C   UNL     1      -0.946   1.539   1.373  0.00  0.00    -0.008 C 
ATOM      3  C   UNL     1      -2.373   1.000   1.489  0.00  0.00    +0.014 C 
ATOM      4  C   UNL     1      -3.262   1.570   0.386  0.00  0.00    +0.032 C 
ATOM      5  C   UNL     1      -3.322   3.095   0.498  0.00  0.00    +0.119 C 
ATOM      6  C   UNL     1      -1.921   3.674   0.278  0.00  0.00    +0.062 C 
ATOM      7  C   UNL     1      -0.980   3.035   1.285  0.00  0.00    -0.065 C 
ATOM      8  C   UNL     1      -0.258   3.822   2.027  0.00  0.00    -0.027 C 
ATOM      9  C   UNL     1       0.697   3.324   3.075  0.00  0.00    +0.031 C 
ATOM     10  C   UNL     1       1.138   1.903   2.733  0.00  0.00    +0.000 C 
ATOM     11  C   UNL     1      -0.093   1.026   2.521  0.00  0.00    +0.003 C 
ATOM     12  C   UNL     1      -0.893   0.995   3.826  0.00  0.00    +0.005 C 
ATOM     13  C   UNL     1      -0.047   0.299   4.890  0.00  0.00    +0.008 C 
ATOM     14  C   UNL     1       1.293   0.957   5.105  0.00  0.00    -0.021 C 
ATOM     15  C   UNL     1       2.040   1.331   3.822  0.00  0.00    +0.002 C 
ATOM     16  C   UNL     1       3.024   2.446   4.262  0.00  0.00    +0.036 C 
ATOM     17  C   UNL     1       2.462   3.050   5.560  0.00  0.00    +0.121 C 
ATOM     18  C   UNL     1       1.204   2.244   5.934  0.00  0.00    +0.056 C 
ATOM     19  C   UNL     1       2.172  -0.037   5.890  0.00  0.00    +0.012 C 
ENDROOT
BRANCH  18  20
ATOM     20  C   UNL     1       1.228   1.907   7.429  0.00  0.00    +0.079 C 
ATOM     21  C   UNL     1       0.063   0.973   7.760  0.00  0.00    +0.042 C 
BRANCH  20  22
ATOM     22  O   UNL     1       2.462   1.262   7.751  0.00  0.00    -0.388 OA
ATOM     23  H   UNL     1       3.246   1.798   7.567  0.00  0.00    +0.210 HD
ENDBRANCH  20  22
BRANCH  20  24
ATOM     24  C   UNL     1       1.097   3.195   8.244  0.00  0.00    +0.159 C 
BRANCH  24  25
ATOM     25  C   UNL     1       1.121   2.864   9.714  0.00  0.00    +0.359 C 
ATOM     26  O   UNL     1       1.232   1.715  10.073  0.00  0.00    -0.246 OA
ATOM     27  O   UNL     1       1.020   3.844  10.625  0.00  0.00    -0.246 OA
ENDBRANCH  24  25
ENDBRANCH  20  24
ENDBRANCH  18  20
BRANCH  17  28
ATOM     28  O   UNL     1       2.133   4.429   5.377  0.00  0.00    -0.391 OA
ATOM     29  H   UNL     1       2.888   4.986   5.142  0.00  0.00    +0.210 HD
ENDBRANCH  17  28
BRANCH   5  30
ATOM     30  O   UNL     1      -4.214   3.611  -0.491  0.00  0.00    -0.391 OA
ATOM     31  H   UNL     1      -4.299   4.575  -0.479  0.00  0.00    +0.210 HD
ENDBRANCH   5  30
TORSDOF 6
