REMARK  Name = ZINC06496952
REMARK  5 active torsions:
REMARK  status: ('A' for Active; 'I' for Inactive)
REMARK    1  A    between atoms: C_1  and  C_2
REMARK    2  A    between atoms: C_2  and  N_46
REMARK    3  A    between atoms: C_5  and  C_26
REMARK    4  A    between atoms: C_15  and  C_16
REMARK    5  A    between atoms: C_19  and  N_22
REMARK                            x       y       z     vdW  Elec       q    Type
REMARK                         _______ _______ _______ _____ _____    ______ ____
ROOT
ATOM      1  C   UNL     1       6.162   2.101   0.437  0.00  0.00    -0.040 C 
ATOM      2  C   UNL     1       4.839   1.421   0.224  0.00  0.00    -0.024 A 
ATOM      3  C   UNL     1       3.678   2.180   0.192  0.00  0.00    +0.076 A 
ATOM      4  C   UNL     1       2.415   1.474  -0.026  0.00  0.00    +0.015 A 
ATOM      5  C   UNL     1       1.195   2.157  -0.076  0.00  0.00    +0.011 A 
ATOM      6  C   UNL     1       0.041   1.461  -0.282  0.00  0.00    +0.001 A 
ATOM      7  C   UNL     1       0.061   0.077  -0.444  0.00  0.00    +0.002 A 
ATOM      8  C   UNL     1       1.230  -0.618  -0.401  0.00  0.00    +0.028 A 
ATOM      9  C   UNL     1       2.442   0.066  -0.190  0.00  0.00    +0.072 A 
ATOM     10  N   UNL     1       3.602  -0.588  -0.143  0.00  0.00    -0.247 NA
ATOM     11  C   UNL     1       4.754   0.026   0.053  0.00  0.00    +0.068 A 
ATOM     12  C   UNL     1       6.003  -0.769   0.099  0.00  0.00    -0.038 C 
ATOM     13  C   UNL     1       5.979  -2.111   0.169  0.00  0.00    +0.011 C 
ATOM     14  C   UNL     1       7.309  -0.002   0.062  0.00  0.00    -0.040 C 
ATOM     15  N   UNL     1       7.156   1.154   0.978  0.00  0.00    +0.385 N 
ATOM     16  H   UNL     1       6.829   0.815   1.890  0.00  0.00    -0.081 HD
ENDROOT
BRANCH  13  17
ATOM     17  C   UNL     1       7.231  -2.878   0.043  0.00  0.00    -0.025 A 
ATOM     18  C   UNL     1       8.261  -2.411  -0.779  0.00  0.00    +0.010 A 
ATOM     19  C   UNL     1       9.432  -3.131  -0.887  0.00  0.00    +0.033 A 
ATOM     20  C   UNL     1       9.583  -4.320  -0.195  0.00  0.00    +0.126 A 
ATOM     21  C   UNL     1       8.566  -4.792   0.616  0.00  0.00    +0.033 A 
ATOM     22  C   UNL     1       7.391  -4.079   0.739  0.00  0.00    +0.010 A 
BRANCH  20  23
ATOM     23  N   UNL     1      10.841  -5.091  -0.322  0.00  0.00    +0.056 N 
ATOM     24  O   UNL     1      10.978  -6.137   0.286  0.00  0.00    -0.126 OA
ATOM     25  O   UNL     1      11.739  -4.678  -1.034  0.00  0.00    -0.126 OA
ENDBRANCH  20  23
ENDBRANCH  13  17
BRANCH   3  26
ATOM     26  C   UNL     1       3.716   3.647   0.370  0.00  0.00    +0.387 C 
ATOM     27  O   UNL     1       3.842   4.373  -0.595  0.00  0.00    -0.241 OA
ATOM     28  O   UNL     1       3.612   4.178   1.604  0.00  0.00    -0.241 OA
ENDBRANCH   3  26
BRANCH  15  30
ATOM     29  C   UNL     1       9.396   0.904   1.925  0.00  0.00    -0.017 C 
ATOM     30  C   UNL     1       8.456   1.834   1.155  0.00  0.00    -0.081 C 
ENDBRANCH  15  30
TORSDOF 4
