REMARK  Name = ZINC05231802
REMARK  13 active torsions:
REMARK  status: ('A' for Active; 'I' for Inactive)
REMARK    1  A    between atoms: C_1  and  C_2
REMARK    2  A    between atoms: C_3  and  C_10
REMARK    3  A    between atoms: C_7  and  C_8
REMARK    4  A    between atoms: C_7  and  C_9
REMARK    5  A    between atoms: C_10  and  C_11
REMARK    6  A    between atoms: C_10  and  C_12
REMARK    7  A    between atoms: C_10  and  O_24
REMARK    8  A    between atoms: C_12  and  C_13
REMARK    9  A    between atoms: C_12  and  C_14
REMARK   10  A    between atoms: C_12  and  O_23
REMARK   11  A    between atoms: C_15  and  C_22
REMARK   12  A    between atoms: C_16  and  C_20
REMARK   13  A    between atoms: C_16  and  C_21
REMARK                            x       y       z     vdW  Elec       q    Type
REMARK                         _______ _______ _______ _____ _____    ______ ____
ROOT
ATOM      1  C   UNL     1      -2.643  -1.115  -0.017  0.00  0.00    +0.127 C 
ATOM      2  C   UNL     1      -1.980   0.257   0.117  0.00  0.00    +0.050 C 
ENDROOT
BRANCH   1   5
ATOM      3  C   UNL     1      -4.860  -2.180  -1.899  0.00  0.00    +0.044 C 
ATOM      4  C   UNL     1      -5.073  -1.443  -0.602  0.00  0.00    -0.017 C 
ATOM      5  C   UNL     1      -4.126  -0.980   0.211  0.00  0.00    +0.073 C 
ATOM      6  C   UNL     1      -4.749  -0.320   1.362  0.00  0.00    +0.339 C 
ATOM      7  O   UNL     1      -4.144   0.203   2.277  0.00  0.00    -0.245 OA
ATOM      8  O   UNL     1      -6.089  -0.378   1.255  0.00  0.00    -0.451 OA
ATOM      9  C   UNL     1      -6.402  -1.083   0.021  0.00  0.00    +0.130 C 
ATOM     10  C   UNL     1      -7.196  -0.174  -0.919  0.00  0.00    +0.060 C 
ATOM     11  C   UNL     1      -7.201  -2.352   0.328  0.00  0.00    +0.060 C 
ENDBRANCH   1   5
BRANCH   1  12
ATOM     12  C   UNL     1      -2.052  -2.071   1.022  0.00  0.00    +0.127 C 
ATOM     13  C   UNL     1      -0.531  -2.114   0.868  0.00  0.00    +0.050 C 
BRANCH  12  14
ATOM     14  C   UNL     1      -2.618  -3.452   0.813  0.00  0.00    +0.073 C 
ATOM     15  C   UNL     1      -3.478  -4.060   1.626  0.00  0.00    -0.017 C 
ATOM     16  C   UNL     1      -3.768  -5.415   1.026  0.00  0.00    +0.130 C 
ATOM     17  O   UNL     1      -2.981  -5.490  -0.196  0.00  0.00    -0.451 OA
ATOM     18  C   UNL     1      -2.311  -4.329  -0.319  0.00  0.00    +0.339 C 
ATOM     19  O   UNL     1      -1.559  -4.051  -1.233  0.00  0.00    -0.245 OA
ATOM     20  C   UNL     1      -3.344  -6.522   1.994  0.00  0.00    +0.060 C 
ATOM     21  C   UNL     1      -5.258  -5.541   0.702  0.00  0.00    +0.060 C 
ATOM     22  C   UNL     1      -4.053  -3.502   2.903  0.00  0.00    +0.044 C 
ENDBRANCH  12  14
BRANCH  12  23
ATOM     23  O   UNL     1      -2.385  -1.613   2.334  0.00  0.00    -0.381 OA
ATOM     24  H   UNL     1      -3.323  -1.409   2.454  0.00  0.00    +0.211 HD
ENDBRANCH  12  23
ENDBRANCH   1  12
BRANCH   1  25
ATOM     25  O   UNL     1      -2.407  -1.632  -1.328  0.00  0.00    -0.381 OA
ATOM     26  H   UNL     1      -2.680  -2.553  -1.443  0.00  0.00    +0.211 HD
ENDBRANCH   1  25
TORSDOF 5
