REMARK  Name = ZINC09739405
REMARK  11 active torsions:
REMARK  status: ('A' for Active; 'I' for Inactive)
REMARK    1  A    between atoms: C_1  and  C_2
REMARK    2  A    between atoms: C_2  and  C_3
REMARK    3  A    between atoms: C_3  and  C_5
REMARK    4  A    between atoms: C_3  and  N_14
REMARK    5  A    between atoms: C_5  and  N_60
REMARK    6  A    between atoms: C_6  and  N_60
REMARK    7  A    between atoms: C_7  and  C_8
REMARK    8  A    between atoms: C_7  and  N_60
REMARK    9  A    between atoms: C_15  and  C_17
REMARK   10  A    between atoms: C_22  and  N_23
REMARK   11  A    between atoms: C_24  and  C_26
REMARK                            x       y       z     vdW  Elec       q    Type
REMARK                         _______ _______ _______ _____ _____    ______ ____
ROOT
ATOM      1  N   UNL     1      -3.452  -1.285   0.542  0.00  0.00    -0.310 N 
ATOM      2  C   UNL     1      -2.298  -0.632   0.305  0.00  0.00    +0.246 C 
ATOM      3  O   UNL     1      -1.260  -1.254   0.186  0.00  0.00    -0.270 OA
ATOM      4  H   UNL     1      -4.280  -0.789   0.637  0.00  0.00    +0.149 HD
ENDROOT
BRANCH   2   5
ATOM      5  C   UNL     1      -2.293   0.839   0.190  0.00  0.00    +0.058 A 
ATOM      6  C   UNL     1      -3.495   1.550   0.219  0.00  0.00    +0.015 A 
ATOM      7  C   UNL     1      -3.485   2.923   0.105  0.00  0.00    +0.001 A 
ATOM      8  C   UNL     1      -2.286   3.604  -0.035  0.00  0.00    +0.002 A 
ATOM      9  C   UNL     1      -1.090   2.917  -0.060  0.00  0.00    +0.024 A 
ATOM     10  C   UNL     1      -1.081   1.532   0.054  0.00  0.00    +0.046 A 
BRANCH  10  11
ATOM     11  N   UNL     1       0.123   0.837   0.028  0.00  0.00    -0.278 N 
ATOM     12  C   UNL     1       1.196   1.369  -0.591  0.00  0.00    +0.283 C 
ATOM     13  O   UNL     1       1.085   2.409  -1.215  0.00  0.00    -0.266 OA
ATOM     14  H   UNL     1       0.190  -0.033   0.452  0.00  0.00    +0.155 HD
BRANCH  12  15
ATOM     15  C   UNL     1       2.451   0.719  -0.517  0.00  0.00    +0.188 C 
ATOM     16  C   UNL     1       2.484  -0.471   0.094  0.00  0.00    +0.091 C 
ATOM     17  S   UNL     1       3.978  -1.384   0.284  0.00  0.00    -0.126 S 
ATOM     18  C   UNL     1       5.013  -0.516  -0.925  0.00  0.00    +0.115 C 
ATOM     19  C   UNL     1       4.833   0.993  -0.705  0.00  0.00    +0.240 C 
ATOM     20  O   UNL     1       3.503   1.353  -1.072  0.00  0.00    -0.486 OA
ENDBRANCH  12  15
ENDBRANCH  10  11
ENDBRANCH   2   5
BRANCH   1  21
ATOM     21  C   UNL     1      -3.457  -2.746   0.656  0.00  0.00    +0.056 C 
BRANCH  21  23
ATOM     22  C   UNL     1      -2.307  -3.027  -1.543  0.00  0.00    +0.005 C 
ATOM     23  C   UNL     1      -3.562  -3.366  -0.738  0.00  0.00    +0.017 C 
ENDBRANCH  21  23
BRANCH  21  24
ATOM     24  C   UNL     1      -4.652  -3.187   1.503  0.00  0.00    -0.056 C 
BRANCH  24  26
ATOM     25  C   UNL     1      -3.452  -2.924   3.589  0.00  0.00    -0.096 C 
ATOM     26  N   UNL     1      -4.613  -2.470   2.795  0.00  0.00    +0.382 N 
ATOM     27  H   UNL     1      -4.520  -1.463   2.615  0.00  0.00    -0.082 HD
BRANCH  26  28
ATOM     28  C   UNL     1      -5.863  -2.711   3.545  0.00  0.00    -0.043 C 
BRANCH  28  29
ATOM     29  C   UNL     1      -5.893  -1.801   4.746  0.00  0.00    -0.064 A 
ATOM     30  C   UNL     1      -5.376  -2.233   5.953  0.00  0.00    +0.002 A 
ATOM     31  C   UNL     1      -5.398  -1.397   7.053  0.00  0.00    +0.000 A 
ATOM     32  C   UNL     1      -5.947  -0.132   6.950  0.00  0.00    +0.000 A 
ATOM     33  C   UNL     1      -6.468   0.298   5.744  0.00  0.00    +0.000 A 
ATOM     34  C   UNL     1      -6.441  -0.536   4.642  0.00  0.00    +0.002 A 
ENDBRANCH  28  29
ENDBRANCH  26  28
ENDBRANCH  24  26
ENDBRANCH  21  24
ENDBRANCH   1  21
TORSDOF 9
