REMARK  Name = ZINC15013737
REMARK  4 active torsions:
REMARK  status: ('A' for Active; 'I' for Inactive)
REMARK    1  A    between atoms: C_1  and  N_2
REMARK    2  A    between atoms: C_6  and  C_13
REMARK    3  A    between atoms: N_9  and  C_12
REMARK    4  A    between atoms: N_19  and  C_20
REMARK                            x       y       z     vdW  Elec       q    Type
REMARK                         _______ _______ _______ _____ _____    ______ ____
ROOT
ATOM      1  C   UNL     1      -3.868  -4.057  -0.000  0.00  0.00    +0.028 C 
ATOM      2  C   UNL     1      -5.197  -3.807   0.112  0.00  0.00    +0.078 C 
ATOM      3  C   UNL     1      -5.908  -2.515   0.138  0.00  0.00    +0.256 C 
ATOM      4  O   UNL     1      -5.310  -1.458   0.054  0.00  0.00    -0.269 OA
ATOM      5  N   UNL     1      -7.224  -2.557   0.257  0.00  0.00    -0.260 N 
ATOM      6  C   UNL     1      -7.883  -3.764   0.351  0.00  0.00    +0.166 C 
ATOM      7  N   UNL     1      -9.173  -3.983   0.473  0.00  0.00    -0.226 NA
ATOM      8  S   UNL     1      -6.558  -4.957   0.258  0.00  0.00    -0.049 S 
ATOM      9  H   UNL     1      -7.731  -1.730   0.279  0.00  0.00    +0.157 HD
ENDROOT
BRANCH   1  15
ATOM     10  C   UNL     1       0.152   1.274   0.833  0.00  0.00    +0.154 C 
ATOM     11  N   UNL     1      -0.039   0.034   0.077  0.00  0.00    -0.295 N 
ATOM     12  C   UNL     1      -1.096  -0.856   0.228  0.00  0.00    +0.070 A 
ATOM     13  C   UNL     1      -2.211  -0.875   1.058  0.00  0.00    +0.028 A 
ATOM     14  C   UNL     1      -3.105  -1.905   0.985  0.00  0.00    +0.010 A 
ATOM     15  C   UNL     1      -2.904  -2.951   0.074  0.00  0.00    -0.022 A 
ATOM     16  C   UNL     1      -1.784  -2.939  -0.765  0.00  0.00    +0.036 A 
ATOM     17  C   UNL     1      -0.884  -1.894  -0.686  0.00  0.00    +0.070 A 
ATOM     18  N   UNL     1       0.298  -1.598  -1.363  0.00  0.00    -0.295 N 
ATOM     19  C   UNL     1       0.777  -0.433  -0.886  0.00  0.00    +0.330 A 
ATOM     20  O   UNL     1       1.796   0.113  -1.267  0.00  0.00    -0.246 OA
ATOM     21  C   UNL     1       0.910  -2.411  -2.417  0.00  0.00    +0.154 C 
ENDBRANCH   1  15
BRANCH   7  22
ATOM     22  C   UNL     1     -10.045  -2.929   0.521  0.00  0.00    +0.067 A 
ATOM     23  C   UNL     1      -9.759  -1.818   1.317  0.00  0.00    +0.030 A 
ATOM     24  C   UNL     1     -10.641  -0.758   1.361  0.00  0.00    +0.040 A 
ATOM     25  C   UNL     1     -11.810  -0.795   0.618  0.00  0.00    +0.124 A 
ATOM     26  C   UNL     1     -12.099  -1.895  -0.174  0.00  0.00    +0.040 A 
ATOM     27  C   UNL     1     -11.222  -2.958  -0.230  0.00  0.00    +0.030 A 
ATOM     28  F   UNL     1     -12.670   0.245   0.664  0.00  0.00    -0.205 F 
ENDBRANCH   7  22
TORSDOF 2
