REMARK  Name = ZINC09041007
REMARK  9 active torsions:
REMARK  status: ('A' for Active; 'I' for Inactive)
REMARK    1  A    between atoms: C_1  and  C_2
REMARK    2  A    between atoms: C_5  and  C_8
REMARK    3  A    between atoms: C_17  and  S_19
REMARK    4  A    between atoms: S_19  and  C_20
REMARK    5  A    between atoms: C_20  and  C_21
REMARK    6  A    between atoms: N_23  and  C_24
REMARK    7  A    between atoms: C_27  and  C_30
REMARK    8  A    between atoms: C_30  and  C_31
REMARK    9  A    between atoms: C_30  and  C_32
REMARK                            x       y       z     vdW  Elec       q    Type
REMARK                         _______ _______ _______ _____ _____    ______ ____
ROOT
ATOM      1  C   UNL     1       2.631  -0.786  -5.586  0.00  0.00    +0.004 A 
ATOM      2  C   UNL     1       3.649  -1.494  -5.042  0.00  0.00    +0.056 A 
ATOM      3  S   UNL     1       3.392  -1.308  -3.288  0.00  0.00    -0.076 S 
ATOM      4  C   UNL     1       1.936  -0.294  -3.325  0.00  0.00    +0.117 A 
ATOM      5  C   UNL     1       1.683  -0.122  -4.697  0.00  0.00    +0.080 A 
ATOM      6  C   UNL     1       0.542   0.672  -5.025  0.00  0.00    +0.261 A 
ATOM      7  O   UNL     1       0.246   0.875  -6.191  0.00  0.00    -0.267 OA
ATOM      8  N   UNL     1      -0.202   1.195  -4.033  0.00  0.00    -0.301 N 
ATOM      9  H   UNL     1      -0.977   1.734  -4.253  0.00  0.00    +0.171 HD
ATOM     10  C   UNL     1       0.115   0.979  -2.723  0.00  0.00    +0.170 A 
ATOM     11  N   UNL     1       1.165   0.254  -2.393  0.00  0.00    -0.216 NA
ENDROOT
BRANCH   1  16
ATOM     12  C   UNL     1       2.052  -0.406 -11.302  0.00  0.00    +0.044 C 
ATOM     13  C   UNL     1       2.203  -0.505  -9.806  0.00  0.00    -0.050 A 
ATOM     14  C   UNL     1       3.426  -0.234  -9.218  0.00  0.00    +0.004 A 
ATOM     15  C   UNL     1       3.571  -0.324  -7.849  0.00  0.00    +0.009 A 
ATOM     16  C   UNL     1       2.482  -0.688  -7.057  0.00  0.00    -0.017 A 
ATOM     17  C   UNL     1       1.254  -0.965  -7.656  0.00  0.00    +0.009 A 
ATOM     18  C   UNL     1       1.119  -0.867  -9.026  0.00  0.00    +0.004 A 
ENDBRANCH   1  16
BRANCH  10  19
ATOM     19  S   UNL     1      -0.889   1.683  -1.458  0.00  0.00    -0.078 S 
BRANCH  19  20
ATOM     20  C   UNL     1      -0.016   1.080   0.008  0.00  0.00    +0.173 C 
BRANCH  20  21
ATOM     21  C   UNL     1      -0.717   1.573   1.248  0.00  0.00    +0.227 C 
ATOM     22  O   UNL     1      -1.709   2.264   1.150  0.00  0.00    -0.275 OA
ATOM     23  N   UNL     1      -0.242   1.246   2.466  0.00  0.00    -0.285 N 
ATOM     24  H   UNL     1       0.511   0.639   2.546  0.00  0.00    +0.155 HD
BRANCH  23  25
ATOM     25  C   UNL     1      -0.833   1.782   3.615  0.00  0.00    +0.033 A 
ATOM     26  C   UNL     1      -0.052   2.086   4.722  0.00  0.00    +0.023 A 
ATOM     27  C   UNL     1      -0.639   2.621   5.853  0.00  0.00    +0.006 A 
ATOM     28  C   UNL     1      -2.003   2.842   5.887  0.00  0.00    -0.045 A 
ATOM     29  C   UNL     1      -2.784   2.535   4.788  0.00  0.00    +0.006 A 
ATOM     30  C   UNL     1      -2.203   2.006   3.652  0.00  0.00    +0.023 A 
BRANCH  28  31
ATOM     31  C   UNL     1      -2.640   3.420   7.125  0.00  0.00    +0.013 C 
ATOM     32  C   UNL     1      -2.386   2.488   8.311  0.00  0.00    +0.012 C 
ATOM     33  C   UNL     1      -2.034   4.794   7.416  0.00  0.00    +0.012 C 
ENDBRANCH  28  31
ENDBRANCH  23  25
ENDBRANCH  20  21
ENDBRANCH  19  20
ENDBRANCH  10  19
TORSDOF 6
