REMARK  Name = ZINC00197525
REMARK  6 active torsions:
REMARK  status: ('A' for Active; 'I' for Inactive)
REMARK    1  A    between atoms: C_1  and  C_2
REMARK    2  A    between atoms: C_2  and  O_3
REMARK    3  A    between atoms: O_3  and  C_4
REMARK    4  A    between atoms: C_9  and  C_22
REMARK    5  A    between atoms: N_11  and  C_12
REMARK    6  A    between atoms: C_17  and  C_18
REMARK                            x       y       z     vdW  Elec       q    Type
REMARK                         _______ _______ _______ _____ _____    ______ ____
ROOT
ATOM      1  C   UNL     1      -5.369   5.313  -2.145  0.00  0.00    +0.124 A 
ATOM      2  C   UNL     1      -5.413   6.670  -2.461  0.00  0.00    +0.046 A 
ATOM      3  C   UNL     1      -4.449   7.519  -2.004  0.00  0.00    +0.015 A 
ATOM      4  C   UNL     1      -3.396   7.024  -1.220  0.00  0.00    +0.018 A 
ATOM      5  C   UNL     1      -2.369   7.891  -0.766  0.00  0.00    +0.030 A 
ATOM      6  C   UNL     1      -1.257   7.327  -0.156  0.00  0.00    +0.099 A 
ATOM      7  C   UNL     1      -1.214   5.855  -0.053  0.00  0.00    +0.233 A 
ATOM      8  N   UNL     1      -0.069   5.213   0.032  0.00  0.00    -0.212 NA
ATOM      9  O   UNL     1      -2.396   5.188  -0.054  0.00  0.00    -0.437 OA
ATOM     10  C   UNL     1      -3.368   5.660  -0.869  0.00  0.00    +0.141 A 
ATOM     11  C   UNL     1      -4.351   4.811  -1.348  0.00  0.00    +0.092 A 
ENDROOT
BRANCH   8  12
ATOM     12  C   UNL     1      -0.049   3.845   0.007  0.00  0.00    +0.071 A 
ATOM     13  C   UNL     1      -0.090   3.121   1.201  0.00  0.00    +0.028 A 
ATOM     14  C   UNL     1      -0.074   1.742   1.168  0.00  0.00    +0.002 A 
ATOM     15  C   UNL     1      -0.007   1.077  -0.044  0.00  0.00    +0.000 A 
ATOM     16  C   UNL     1       0.033   1.788  -1.230  0.00  0.00    +0.005 A 
ATOM     17  C   UNL     1       0.013   3.167  -1.212  0.00  0.00    -0.025 A 
ATOM     18  C   UNL     1       0.057   3.939  -2.506  0.00  0.00    +0.046 C 
ENDBRANCH   8  12
BRANCH   6  19
ATOM     19  C   UNL     1      -0.165   8.164   0.367  0.00  0.00    +0.247 C 
ATOM     20  O   UNL     1       0.798   7.644   0.897  0.00  0.00    -0.270 OA
ATOM     21  N   UNL     1      -0.233   9.505   0.259  0.00  0.00    -0.325 N 
ATOM     22  H   UNL     1      -1.002   9.920  -0.164  0.00  0.00    +0.145 HD
ATOM     23  H   UNL     1       0.487  10.057   0.603  0.00  0.00    +0.145 HD
ENDBRANCH   6  19
BRANCH   1  24
ATOM     24  O   UNL     1      -6.328   4.479  -2.619  0.00  0.00    -0.492 OA
BRANCH  24  26
ATOM     25  C   UNL     1      -8.332   3.972  -3.872  0.00  0.00    +0.048 C 
ATOM     26  C   UNL     1      -7.348   5.059  -3.434  0.00  0.00    +0.225 C 
ENDBRANCH  24  26
ENDBRANCH   1  24
TORSDOF 4
