REMARK  Name = ZINC16605785
REMARK  14 active torsions:
REMARK  status: ('A' for Active; 'I' for Inactive)
REMARK    1  A    between atoms: C_1  and  C_2
REMARK    2  A    between atoms: C_6  and  C_31
REMARK    3  A    between atoms: C_9  and  N_70
REMARK    4  A    between atoms: C_12  and  C_13
REMARK    5  A    between atoms: C_12  and  N_70
REMARK    6  A    between atoms: C_15  and  O_29
REMARK    7  A    between atoms: C_16  and  O_20
REMARK    8  A    between atoms: O_20  and  C_21
REMARK    9  A    between atoms: C_21  and  C_22
REMARK   10  A    between atoms: N_24  and  C_25
REMARK   11  A    between atoms: C_25  and  C_26
REMARK   12  A    between atoms: C_25  and  C_27
REMARK   13  A    between atoms: C_25  and  C_28
REMARK   14  A    between atoms: O_29  and  C_30
REMARK                            x       y       z     vdW  Elec       q    Type
REMARK                         _______ _______ _______ _____ _____    ______ ____
ROOT
ATOM      1  C   UNL     1       0.937   0.438   4.819  0.00  0.00    -0.059 A 
ATOM      2  C   UNL     1       1.347   1.612   4.213  0.00  0.00    +0.051 A 
ATOM      3  C   UNL     1       0.807   1.987   2.993  0.00  0.00    +0.163 A 
ATOM      4  C   UNL     1      -0.148   1.182   2.381  0.00  0.00    +0.181 A 
ATOM      5  C   UNL     1      -0.559   0.010   2.996  0.00  0.00    +0.086 A 
ATOM      6  C   UNL     1      -0.012  -0.362   4.211  0.00  0.00    +0.025 A 
ATOM      7 CL   UNL     1      -1.756  -0.995   2.239  0.00  0.00    -0.080 Cl
ENDROOT
BRANCH   3   8
ATOM      8  O   UNL     1       1.210   3.141   2.396  0.00  0.00    -0.491 OA
ATOM      9  C   UNL     1       2.194   3.917   3.082  0.00  0.00    +0.277 C 
ENDBRANCH   3   8
BRANCH   1  10
ATOM     10  C   UNL     1       1.526   0.032   6.145  0.00  0.00    -0.046 C 
BRANCH  10  11
ATOM     11  N   UNL     1       0.704   0.596   7.232  0.00  0.00    +0.385 N 
ATOM     12  H   UNL     1       0.695   1.620   7.153  0.00  0.00    -0.085 HD
ATOM     13  H   UNL     1      -0.256   0.239   7.152  0.00  0.00    -0.085 HD
BRANCH  11  22
ATOM     14  C   UNL     1       1.849  -3.227  10.168  0.00  0.00    +0.011 C 
ATOM     15  C   UNL     1       1.837  -1.703  10.039  0.00  0.00    -0.033 C 
ATOM     16  C   UNL     1       3.265  -1.169  10.170  0.00  0.00    +0.010 C 
ATOM     17  C   UNL     1       3.253   0.356  10.041  0.00  0.00    -0.011 C 
ATOM     18  C   UNL     1       2.382   0.954  11.147  0.00  0.00    +0.010 C 
ATOM     19  C   UNL     1       0.954   0.420  11.016  0.00  0.00    -0.033 C 
ATOM     20  C   UNL     1       0.966  -1.104  11.145  0.00  0.00    +0.013 C 
ATOM     21  C   UNL     1       0.386   0.812   9.650  0.00  0.00    -0.006 C 
ATOM     22  C   UNL     1       1.258   0.214   8.545  0.00  0.00    -0.067 C 
ATOM     23  C   UNL     1       2.686   0.748   8.675  0.00  0.00    -0.009 C 
ATOM     24  C   UNL     1       1.269  -1.311   8.673  0.00  0.00    -0.006 C 
ATOM     25  C   UNL     1       0.082   1.019  12.122  0.00  0.00    +0.011 C 
ENDBRANCH  11  22
ENDBRANCH  10  11
ENDBRANCH   1  10
BRANCH   4  26
ATOM     26  O   UNL     1      -0.682   1.547   1.184  0.00  0.00    -0.478 OA
BRANCH  26  27
ATOM     27  C   UNL     1      -0.013   1.086   0.008  0.00  0.00    +0.324 C 
BRANCH  27  28
ATOM     28  C   UNL     1      -0.742   1.585  -1.213  0.00  0.00    +0.251 C 
ATOM     29  O   UNL     1      -1.736   2.268  -1.088  0.00  0.00    -0.272 OA
ATOM     30  N   UNL     1      -0.288   1.272  -2.443  0.00  0.00    -0.308 N 
ATOM     31  H   UNL     1       0.507   0.726  -2.543  0.00  0.00    +0.149 HD
BRANCH  30  32
ATOM     32  C   UNL     1      -0.997   1.758  -3.630  0.00  0.00    +0.026 C 
ATOM     33  C   UNL     1      -1.018   3.288  -3.622  0.00  0.00    +0.031 C 
ATOM     34  C   UNL     1      -0.281   1.264  -4.889  0.00  0.00    +0.031 C 
ATOM     35  C   UNL     1      -2.432   1.228  -3.619  0.00  0.00    +0.031 C 
ENDBRANCH  30  32
ENDBRANCH  27  28
ENDBRANCH  26  27
ENDBRANCH   4  26
TORSDOF 8
