REMARK  Name = ZINC18457855
REMARK  13 active torsions:
REMARK  status: ('A' for Active; 'I' for Inactive)
REMARK    1  A    between atoms: C_1  and  C_2
REMARK    2  A    between atoms: C_5  and  C_31
REMARK    3  A    between atoms: C_6  and  O_8
REMARK    4  A    between atoms: O_8  and  C_9
REMARK    5  A    between atoms: C_9  and  C_10
REMARK    6  A    between atoms: C_13  and  S_16
REMARK    7  A    between atoms: N_14  and  N_15
REMARK    8  A    between atoms: S_16  and  C_17
REMARK    9  A    between atoms: C_17  and  C_19
REMARK   10  A    between atoms: C_17  and  C_20
REMARK   11  A    between atoms: N_22  and  C_23
REMARK   12  A    between atoms: C_31  and  C_32
REMARK   13  A    between atoms: C_31  and  C_33
REMARK                            x       y       z     vdW  Elec       q    Type
REMARK                         _______ _______ _______ _____ _____    ______ ____
ROOT
ATOM      1  C   UNL     1       3.617   5.867   0.011  0.00  0.00    +0.189 A 
ATOM      2  N   UNL     1       4.316   6.174  -1.044  0.00  0.00    -0.128 NA
ATOM      3  N   UNL     1       5.450   6.667  -0.695  0.00  0.00    -0.121 NA
ATOM      4  C   UNL     1       5.537   6.702   0.615  0.00  0.00    +0.209 A 
ATOM      5  N   UNL     1       4.367   6.197   1.106  0.00  0.00    -0.225 N 
ENDROOT
BRANCH   5   6
ATOM      6  N   UNL     1       4.020   6.049   2.419  0.00  0.00    -0.295 N 
ATOM      7  H   UNL     1       4.304   5.146   2.769  0.00  0.00    +0.163 HD
ATOM      8  H   UNL     1       4.406   6.793   2.981  0.00  0.00    +0.163 HD
ENDBRANCH   5   6
BRANCH   1   9
ATOM      9  C   UNL     1       2.235   5.266   0.024  0.00  0.00    +0.306 C 
BRANCH   9  10
ATOM     10  O   UNL     1       2.336   3.840   0.025  0.00  0.00    -0.484 OA
BRANCH  10  16
ATOM     11  C   UNL     1      -2.545   3.823   0.068  0.00  0.00    +0.044 C 
ATOM     12  C   UNL     1      -1.225   3.095   0.057  0.00  0.00    -0.047 A 
ATOM     13  C   UNL     1      -1.198   1.713   0.053  0.00  0.00    +0.004 A 
ATOM     14  C   UNL     1       0.010   1.042   0.049  0.00  0.00    +0.008 A 
ATOM     15  C   UNL     1       1.196   1.753   0.038  0.00  0.00    -0.003 A 
ATOM     16  C   UNL     1       1.172   3.139   0.036  0.00  0.00    +0.125 A 
ATOM     17  C   UNL     1      -0.043   3.810   0.046  0.00  0.00    +0.049 A 
BRANCH  15  18
ATOM     18  C   UNL     1       2.513   1.021   0.028  0.00  0.00    +0.016 C 
ATOM     19  C   UNL     1       2.620   0.145   1.277  0.00  0.00    +0.012 C 
ATOM     20  C   UNL     1       2.598   0.141  -1.221  0.00  0.00    +0.012 C 
ENDBRANCH  15  18
ENDBRANCH  10  16
ENDBRANCH   9  10
ENDBRANCH   1   9
BRANCH   4  21
ATOM     21  S   UNL     1       6.901   7.294   1.559  0.00  0.00    -0.072 S 
BRANCH  21  22
ATOM     22  C   UNL     1       8.019   7.784   0.223  0.00  0.00    +0.137 C 
ATOM     23  C   UNL     1       7.399   8.941  -0.562  0.00  0.00    +0.029 C 
BRANCH  22  24
ATOM     24  C   UNL     1       9.338   8.222   0.806  0.00  0.00    +0.230 C 
ATOM     25  O   UNL     1       9.405   8.554   1.971  0.00  0.00    -0.274 OA
ATOM     26  N   UNL     1      10.442   8.245   0.034  0.00  0.00    -0.284 N 
ATOM     27  H   UNL     1      10.403   7.916  -0.878  0.00  0.00    +0.155 HD
BRANCH  26  28
ATOM     28  C   UNL     1      11.646   8.743   0.548  0.00  0.00    +0.036 A 
ATOM     29  C   UNL     1      12.521   9.435  -0.279  0.00  0.00    +0.026 A 
ATOM     30  C   UNL     1      13.705   9.931   0.231  0.00  0.00    +0.043 A 
ATOM     31  C   UNL     1      14.027   9.729   1.562  0.00  0.00    +0.159 A 
ATOM     32  C   UNL     1      13.158   9.032   2.388  0.00  0.00    +0.160 A 
ATOM     33  C   UNL     1      11.968   8.540   1.883  0.00  0.00    +0.064 A 
ATOM     34  F   UNL     1      13.473   8.835   3.687  0.00  0.00    -0.202 F 
ATOM     35  F   UNL     1      15.188  10.210   2.056  0.00  0.00    -0.202 F 
ENDBRANCH  26  28
ENDBRANCH  22  24
ENDBRANCH  21  22
ENDBRANCH   4  21
TORSDOF 9
