REMARK  Name = ZINC12790111
REMARK  7 active torsions:
REMARK  status: ('A' for Active; 'I' for Inactive)
REMARK    1  A    between atoms: C_1  and  C_2
REMARK    2  A    between atoms: C_10  and  C_12
REMARK    3  A    between atoms: C_12  and  N_13
REMARK    4  A    between atoms: N_13  and  C_14
REMARK    5  A    between atoms: C_17  and  N_20
REMARK    6  A    between atoms: N_20  and  S_21
REMARK    7  A    between atoms: S_21  and  C_24
REMARK                            x       y       z     vdW  Elec       q    Type
REMARK                         _______ _______ _______ _____ _____    ______ ____
ROOT
ATOM      1  C   UNL     1       4.926   1.959  -4.277  0.00  0.00    +0.028 A 
ATOM      2  C   UNL     1       5.659   0.783  -4.369  0.00  0.00    +0.025 A 
ATOM      3  C   UNL     1       5.431  -0.244  -3.475  0.00  0.00    +0.026 A 
ATOM      4  C   UNL     1       4.468  -0.102  -2.485  0.00  0.00    +0.048 A 
ATOM      5  C   UNL     1       3.732   1.072  -2.396  0.00  0.00    +0.026 A 
ATOM      6  C   UNL     1       3.963   2.102  -3.287  0.00  0.00    +0.025 A 
ENDROOT
BRANCH   1   7
ATOM      7  N   UNL     1       5.157   3.001  -5.184  0.00  0.00    -0.338 N 
ATOM      8  H   UNL     1       5.830   2.901  -5.876  0.00  0.00    +0.146 HD
BRANCH   7   9
ATOM      9  C   UNL     1       4.384   4.241  -5.087  0.00  0.00    +0.157 C 
BRANCH   9  19
ATOM     10  C   UNL     1       5.391   8.311 -10.202  0.00  0.00    +0.064 C 
ATOM     11  C   UNL     1       6.214   7.810  -9.044  0.00  0.00    +0.033 A 
ATOM     12  C   UNL     1       7.476   8.219  -8.911  0.00  0.00    +0.070 A 
ATOM     13  S   UNL     1       7.984   7.361  -7.429  0.00  0.00    -0.057 S 
ATOM     14  C   UNL     1       6.449   6.519  -7.111  0.00  0.00    +0.180 A 
ATOM     15  N   UNL     1       5.652   6.939  -8.142  0.00  0.00    -0.259 N 
ATOM     16  C   UNL     1       4.378   6.446  -8.167  0.00  0.00    +0.259 A 
ATOM     17  O   UNL     1       3.611   6.778  -9.057  0.00  0.00    -0.267 OA
ATOM     18  C   UNL     1       3.953   5.564  -7.173  0.00  0.00    +0.095 A 
ATOM     19  C   UNL     1       4.823   5.193  -6.170  0.00  0.00    +0.066 A 
ATOM     20  N   UNL     1       6.056   5.694  -6.172  0.00  0.00    -0.226 NA
ENDBRANCH   9  19
ENDBRANCH   7   9
ENDBRANCH   1   7
BRANCH   4  21
ATOM     21  N   UNL     1       4.236  -1.143  -1.579  0.00  0.00    -0.216 N 
ATOM     22  H   UNL     1       3.437  -1.687  -1.659  0.00  0.00    +0.174 HD
BRANCH  21  23
ATOM     23  S   UNL     1       5.327  -1.448  -0.370  0.00  0.00    +0.072 S 
ATOM     24  O   UNL     1       6.604  -1.532  -0.988  0.00  0.00    -0.150 OA
ATOM     25  O   UNL     1       4.786  -2.506   0.408  0.00  0.00    -0.150 OA
BRANCH  23  26
ATOM     26  C   UNL     1       5.363  -0.026   0.669  0.00  0.00    +0.112 A 
ATOM     27  C   UNL     1       4.431   0.114   1.680  0.00  0.00    +0.032 A 
ATOM     28  C   UNL     1       4.455   1.229   2.497  0.00  0.00    +0.051 A 
ATOM     29  C   UNL     1       5.415   2.211   2.303  0.00  0.00    +0.162 A 
ATOM     30  C   UNL     1       6.354   2.069   1.288  0.00  0.00    +0.164 A 
ATOM     31  C   UNL     1       6.324   0.948   0.472  0.00  0.00    +0.078 A 
ATOM     32  O   UNL     1       7.310   3.017   1.087  0.00  0.00    -0.485 OA
ATOM     33  C   UNL     1       7.080   4.299   1.680  0.00  0.00    +0.270 C 
ATOM     34  C   UNL     1       6.625   4.083   3.130  0.00  0.00    +0.270 C 
ATOM     35  O   UNL     1       5.421   3.307   3.110  0.00  0.00    -0.485 OA
ENDBRANCH  23  26
ENDBRANCH  21  23
ENDBRANCH   4  21
TORSDOF 6
