REMARK  Name = ZINC38766609
REMARK  8 active torsions:
REMARK  status: ('A' for Active; 'I' for Inactive)
REMARK    1  A    between atoms: C_1  and  O_2
REMARK    2  A    between atoms: O_2  and  C_3
REMARK    3  A    between atoms: C_6  and  C_9
REMARK    4  A    between atoms: C_13  and  C_15
REMARK    5  A    between atoms: C_18  and  O_22
REMARK    6  A    between atoms: C_20  and  O_21
REMARK    7  A    between atoms: O_22  and  C_23
REMARK    8  A    between atoms: C_23  and  C_24
REMARK                            x       y       z     vdW  Elec       q    Type
REMARK                         _______ _______ _______ _____ _____    ______ ____
ROOT
ATOM      1  C   UNL     1       0.823  -2.591  -6.204  0.00  0.00    +0.022 A 
ATOM      2  C   UNL     1       1.139  -2.073  -7.445  0.00  0.00    +0.013 A 
ATOM      3  C   UNL     1       0.193  -1.365  -8.161  0.00  0.00    +0.046 A 
ATOM      4  C   UNL     1      -1.077  -1.172  -7.635  0.00  0.00    +0.124 A 
ATOM      5  C   UNL     1      -1.395  -1.690  -6.390  0.00  0.00    +0.091 A 
ATOM      6  C   UNL     1      -0.446  -2.406  -5.676  0.00  0.00    +0.126 A 
ENDROOT
BRANCH   1  11
ATOM      7  C   UNL     1       2.490  -2.489  -4.356  0.00  0.00    +0.008 C 
ATOM      8  C   UNL     1       3.799  -2.457  -4.704  0.00  0.00    +0.139 C 
ATOM      9  N   UNL     1       4.008  -3.177  -5.813  0.00  0.00    -0.185 NA
ATOM     10  N   UNL     1       3.002  -3.710  -6.285  0.00  0.00    -0.297 N 
ATOM     11  C   UNL     1       1.857  -3.363  -5.425  0.00  0.00    +0.164 C 
ATOM     12  H   UNL     1       2.970  -4.264  -7.081  0.00  0.00    +0.183 HD
BRANCH   7  16
ATOM     13  C   UNL     1       0.605  -0.607  -1.055  0.00  0.00    +0.120 A 
ATOM     14  C   UNL     1       1.172   0.166  -2.061  0.00  0.00    +0.046 A 
ATOM     15  C   UNL     1       1.785  -0.440  -3.135  0.00  0.00    +0.012 A 
ATOM     16  C   UNL     1       1.837  -1.836  -3.212  0.00  0.00    -0.018 A 
ATOM     17  C   UNL     1       1.265  -2.610  -2.195  0.00  0.00    +0.012 A 
ATOM     18  C   UNL     1       0.658  -1.994  -1.123  0.00  0.00    +0.046 A 
BRANCH  13  20
ATOM     19  C   UNL     1      -0.017   1.425   0.010  0.00  0.00    +0.277 C 
ATOM     20  O   UNL     1       0.002  -0.004   0.002  0.00  0.00    -0.495 OA
ENDBRANCH  13  20
ENDBRANCH   7  16
ENDBRANCH   1  11
BRANCH   6  21
ATOM     21  O   UNL     1      -0.758  -2.921  -4.457  0.00  0.00    -0.506 OA
ATOM     22  H   UNL     1      -0.579  -2.322  -3.719  0.00  0.00    +0.292 HD
ENDBRANCH   6  21
BRANCH   4  23
ATOM     23  O   UNL     1      -2.006  -0.474  -8.339  0.00  0.00    -0.487 OA
BRANCH  23  24
ATOM     24  C   UNL     1      -1.608   0.032  -9.615  0.00  0.00    +0.266 C 
BRANCH  24  25
ATOM     25  C   UNL     1      -2.761   0.771 -10.244  0.00  0.00    +0.008 A 
ATOM     26  C   UNL     1      -3.965   0.874  -9.573  0.00  0.00    +0.010 A 
ATOM     27  C   UNL     1      -5.022   1.552 -10.149  0.00  0.00    +0.020 A 
ATOM     28  C   UNL     1      -4.876   2.129 -11.398  0.00  0.00    +0.042 A 
ATOM     29  C   UNL     1      -3.671   2.028 -12.070  0.00  0.00    +0.040 A 
ATOM     30  C   UNL     1      -2.612   1.353 -11.490  0.00  0.00    +0.049 A 
ATOM     31 CL   UNL     1      -1.097   1.230 -12.330  0.00  0.00    -0.083 Cl
ATOM     32 CL   UNL     1      -6.205   2.981 -12.122  0.00  0.00    -0.083 Cl
ENDBRANCH  24  25
ENDBRANCH  23  24
ENDBRANCH   4  23
TORSDOF 7
