REMARK  Name = ZINC40523651
REMARK  6 active torsions:
REMARK  status: ('A' for Active; 'I' for Inactive)
REMARK    1  A    between atoms: C_1  and  C_2
REMARK    2  A    between atoms: C_2  and  C_3
REMARK    3  A    between atoms: C_2  and  C_4
REMARK    4  A    between atoms: C_2  and  CA_5
REMARK    5  A    between atoms: CA_5  and  C_7
REMARK    6  A    between atoms: CA_5  and  N_10
REMARK                            x       y       z     vdW  Elec       q    Type
REMARK                         _______ _______ _______ _____ _____    ______ ____
ROOT
ATOM      1  N   UNL     1       0.010  -0.012  -2.444  0.00  0.00    -0.285 N 
ATOM      2  C   UNL     1       0.111  -0.681  -3.609  0.00  0.00    +0.303 C 
ATOM      3  O   UNL     1       0.789  -1.688  -3.676  0.00  0.00    -0.253 OA
ATOM      4  N   UNL     1      -0.541  -0.235  -4.701  0.00  0.00    -0.286 N 
ATOM      5  C   UNL     1      -1.387   0.966  -4.763  0.00  0.00    +0.109 C 
ATOM      6  C   UNL     1      -1.941   1.063  -6.200  0.00  0.00    +0.020 C 
ATOM      7  C   UNL     1      -1.831  -0.397  -6.714  0.00  0.00    +0.020 C 
ATOM      8  C   UNL     1      -0.519  -0.866  -6.033  0.00  0.00    +0.109 C 
ATOM      9  H   UNL     1      -0.532   0.791  -2.391  0.00  0.00    +0.151 HD
ENDROOT
BRANCH   1  10
ATOM     10  CA  UNL     1       0.718  -0.497  -1.257  0.00  0.00    +0.193 C 
BRANCH  10  12
ATOM     11  C   UNL     1      -0.019   1.526   0.010  0.00  0.00    +0.013 C 
ATOM     12  C   UNL     1       0.002  -0.004   0.002  0.00  0.00    -0.009 C 
ATOM     13  C   UNL     1       0.742  -0.511   1.242  0.00  0.00    +0.013 C 
ATOM     14  C   UNL     1      -1.433  -0.534   0.013  0.00  0.00    +0.013 C 
ENDBRANCH  10  12
BRANCH  10  15
ATOM     15  C   UNL     1       2.132   0.024  -1.268  0.00  0.00    +0.376 C 
ATOM     16  O   UNL     1       2.946  -0.406  -0.469  0.00  0.00    -0.244 OA
ATOM     17  OXT UNL     1       2.461   0.876  -2.075  0.00  0.00    -0.244 OA
ENDBRANCH  10  15
ENDBRANCH   1  10
TORSDOF 3
