REMARK  Name = ZINC10327321
REMARK  4 active torsions:
REMARK  status: ('A' for Active; 'I' for Inactive)
REMARK    1  A    between atoms: C_1  and  C_2
REMARK    2  A    between atoms: C_2  and  C_3
REMARK    3  A    between atoms: C_8  and  N_9
REMARK    4  A    between atoms: C_10  and  C_12
REMARK                            x       y       z     vdW  Elec       q    Type
REMARK                         _______ _______ _______ _____ _____    ______ ____
ROOT
ATOM      1  C   UNL     1       2.291   0.585   0.582  0.00  0.00    +0.120 A 
ATOM      2  C   UNL     1       3.454   1.090   1.174  0.00  0.00    +0.132 A 
ATOM      3  N   UNL     1       4.523   0.313   1.236  0.00  0.00    -0.230 NA
ATOM      4  C   UNL     1       4.513  -0.909   0.747  0.00  0.00    +0.180 A 
ATOM      5  N   UNL     1       3.431  -1.485   0.149  0.00  0.00    -0.258 N 
ATOM      6  C   UNL     1       2.297  -0.727   0.062  0.00  0.00    +0.271 A 
ATOM      7  O   UNL     1       1.295  -1.183  -0.462  0.00  0.00    -0.266 OA
ATOM      8  C   UNL     1       3.566  -2.784  -0.320  0.00  0.00    +0.039 A 
ATOM      9  C   UNL     1       4.754  -3.377  -0.150  0.00  0.00    +0.013 A 
ATOM     10  S   UNL     1       5.726  -2.143   0.670  0.00  0.00    -0.054 S 
ATOM     11  C   UNL     1       5.156  -4.757  -0.559  0.00  0.00    +0.044 C 
ATOM     12  C   UNL     1       3.884  -5.553  -0.888  0.00  0.00    +0.006 C 
ATOM     13  C   UNL     1       2.993  -4.699  -1.794  0.00  0.00    +0.006 C 
ATOM     14  C   UNL     1       2.419  -3.522  -1.003  0.00  0.00    +0.055 C 
ENDROOT
BRANCH   1  16
ATOM     15  N   UNL     1      -0.068   0.879   0.037  0.00  0.00    -0.281 N 
ATOM     16  C   UNL     1       1.082   1.412   0.497  0.00  0.00    +0.255 C 
ATOM     17  O   UNL     1       1.117   2.578   0.843  0.00  0.00    -0.270 OA
ATOM     18  H   UNL     1      -0.080  -0.029  -0.302  0.00  0.00    +0.155 HD
BRANCH  15  24
ATOM     19  C   UNL     1      -2.474   1.014   0.176  0.00  0.00    -0.026 A 
ATOM     20  C   UNL     1      -3.632   1.768   0.182  0.00  0.00    +0.005 A 
ATOM     21  C   UNL     1      -3.564   3.143   0.056  0.00  0.00    +0.000 A 
ATOM     22  C   UNL     1      -2.338   3.769  -0.078  0.00  0.00    +0.002 A 
ATOM     23  C   UNL     1      -1.177   3.022  -0.079  0.00  0.00    +0.023 A 
ATOM     24  C   UNL     1      -1.242   1.639   0.043  0.00  0.00    +0.037 A 
BRANCH  19  26
ATOM     25  C   UNL     1      -2.359  -0.871   1.784  0.00  0.00    +0.009 C 
ATOM     26  C   UNL     1      -2.549  -0.484   0.315  0.00  0.00    +0.033 C 
ENDBRANCH  19  26
ENDBRANCH  15  24
ENDBRANCH   1  16
TORSDOF 3
