REMARK  Name = ZINC54643841
REMARK  9 active torsions:
REMARK  status: ('A' for Active; 'I' for Inactive)
REMARK    1  A    between atoms: C_1  and  C_2
REMARK    2  A    between atoms: C_3  and  C_30
REMARK    3  A    between atoms: C_4  and  C_20
REMARK    4  A    between atoms: C_9  and  S_11
REMARK    5  A    between atoms: S_11  and  C_12
REMARK    6  A    between atoms: C_12  and  C_13
REMARK    7  A    between atoms: N_32  and  C_33
REMARK    8  A    between atoms: C_38  and  O_39
REMARK    9  A    between atoms: O_39  and  C_40
REMARK                            x       y       z     vdW  Elec       q    Type
REMARK                         _______ _______ _______ _____ _____    ______ ____
ROOT
ATOM      1  C   UNL     1      -0.019   1.504  -0.006  0.00  0.00    +0.061 C 
ATOM      2  C   UNL     1       0.002  -0.002  -0.021  0.00  0.00    +0.018 C 
ATOM      3  C   UNL     1      -1.163  -0.667  -0.014  0.00  0.00    +0.060 C 
ATOM      4  C   UNL     1      -1.252  -2.169  -0.040  0.00  0.00    +0.179 C 
ATOM      5  N   UNL     1       0.067  -2.739   0.220  0.00  0.00    -0.220 N 
ATOM      6  C   UNL     1       1.213  -2.014   0.209  0.00  0.00    +0.219 A 
ATOM      7  N   UNL     1       2.206  -2.821   0.469  0.00  0.00    -0.187 NA
ATOM      8  C   UNL     1       1.737  -4.063   0.656  0.00  0.00    +0.211 A 
ATOM      9  N   UNL     1       0.429  -4.053   0.512  0.00  0.00    -0.141 NA
ATOM     10  N   UNL     1       1.213  -0.649  -0.048  0.00  0.00    -0.287 N 
ATOM     11  H   UNL     1       2.036  -0.171  -0.235  0.00  0.00    +0.155 HD
ENDROOT
BRANCH   4  12
ATOM     12  C   UNL     1      -1.737  -2.621  -1.393  0.00  0.00    +0.007 A 
ATOM     13  C   UNL     1      -1.135  -2.398  -2.572  0.00  0.00    +0.089 A 
ATOM     14  N   UNL     1      -1.868  -2.958  -3.583  0.00  0.00    -0.360 N 
ATOM     15  H   UNL     1      -1.633  -2.927  -4.524  0.00  0.00    +0.165 HD
ATOM     16  C   UNL     1      -2.988  -3.570  -3.067  0.00  0.00    +0.047 A 
ATOM     17  C   UNL     1      -2.952  -3.391  -1.671  0.00  0.00    +0.005 A 
ATOM     18  C   UNL     1      -3.970  -3.918  -0.875  0.00  0.00    +0.010 A 
ATOM     19  C   UNL     1      -4.997  -4.608  -1.456  0.00  0.00    +0.001 A 
ATOM     20  C   UNL     1      -5.035  -4.791  -2.831  0.00  0.00    +0.002 A 
ATOM     21  C   UNL     1      -4.045  -4.271  -3.637  0.00  0.00    +0.026 A 
ENDBRANCH   4  12
BRANCH   3  22
ATOM     22  C   UNL     1      -2.365   0.079   0.021  0.00  0.00    +0.248 C 
ATOM     23  O   UNL     1      -2.325   1.296   0.043  0.00  0.00    -0.270 OA
ATOM     24  N   UNL     1      -3.553  -0.557   0.029  0.00  0.00    -0.279 N 
ATOM     25  H   UNL     1      -3.587  -1.523  -0.053  0.00  0.00    +0.155 HD
BRANCH  24  26
ATOM     26  C   UNL     1      -4.739   0.177   0.158  0.00  0.00    +0.076 A 
ATOM     27  C   UNL     1      -4.843   1.437  -0.414  0.00  0.00    +0.027 A 
ATOM     28  C   UNL     1      -6.015   2.158  -0.287  0.00  0.00    +0.002 A 
ATOM     29  C   UNL     1      -7.085   1.628   0.410  0.00  0.00    +0.004 A 
ATOM     30  C   UNL     1      -6.989   0.373   0.983  0.00  0.00    +0.047 A 
ATOM     31  C   UNL     1      -5.820  -0.359   0.854  0.00  0.00    +0.141 A 
BRANCH  31  32
ATOM     32  O   UNL     1      -5.726  -1.596   1.412  0.00  0.00    -0.493 OA
ATOM     33  C   UNL     1      -6.874  -2.081   2.111  0.00  0.00    +0.277 C 
ENDBRANCH  31  32
ENDBRANCH  24  26
ENDBRANCH   3  22
BRANCH   8  34
ATOM     34  S   UNL     1       2.714  -5.480   1.034  0.00  0.00    -0.080 S 
BRANCH  34  35
ATOM     35  C   UNL     1       4.410  -4.839   1.097  0.00  0.00    +0.112 C 
BRANCH  35  36
ATOM     36  C   UNL     1       5.361  -5.964   1.415  0.00  0.00    -0.037 A 
ATOM     37  C   UNL     1       5.665  -6.260   2.731  0.00  0.00    +0.004 A 
ATOM     38  C   UNL     1       6.537  -7.292   3.024  0.00  0.00    +0.000 A 
ATOM     39  C   UNL     1       7.104  -8.028   2.001  0.00  0.00    +0.000 A 
ATOM     40  C   UNL     1       6.800  -7.733   0.685  0.00  0.00    +0.000 A 
ATOM     41  C   UNL     1       5.924  -6.704   0.393  0.00  0.00    +0.004 A 
ENDBRANCH  35  36
ENDBRANCH  34  35
ENDBRANCH   8  34
TORSDOF 7
