REMARK  Name = ZINC19323301
REMARK  4 active torsions:
REMARK  status: ('A' for Active; 'I' for Inactive)
REMARK    1  A    between atoms: C_1  and  C_2
REMARK    2  A    between atoms: C_2  and  C_3
REMARK    3  A    between atoms: C_3  and  C_4
REMARK    4  A    between atoms: C_8  and  C_24
REMARK                            x       y       z     vdW  Elec       q    Type
REMARK                         _______ _______ _______ _____ _____    ______ ____
ROOT
ATOM      1  C   UNL     1      -0.757   1.595  -1.236  0.00  0.00    +0.028 C 
ATOM      2  C   UNL     1      -0.013   1.086   0.008  0.00  0.00    -0.059 C 
ATOM      3  N   UNL     1      -0.702   1.560   1.216  0.00  0.00    +0.402 N 
ATOM      4  C   UNL     1      -2.062   1.012   1.323  0.00  0.00    -0.059 C 
ATOM      5  C   UNL     1      -2.908   1.518   0.144  0.00  0.00    +0.025 C 
ATOM      6  C   UNL     1      -2.188   1.079  -1.129  0.00  0.00    +0.144 C 
ATOM      7  O   UNL     1      -2.705   0.388  -1.974  0.00  0.00    -0.296 OA
ATOM      8  C   UNL     1      -2.886   3.055   0.152  0.00  0.00    +0.096 C 
ATOM      9  N   UNL     1      -1.494   3.522   0.092  0.00  0.00    -0.299 NA
ATOM     10  C   UNL     1      -0.837   3.129  -1.162  0.00  0.00    +0.096 C 
ATOM     11  C   UNL     1      -0.737   3.026   1.247  0.00  0.00    +0.095 C 
ATOM     12  C   UNL     1      -1.321   3.526   2.530  0.00  0.00    -0.014 A 
ATOM     13  C   UNL     1      -2.564   3.350   3.100  0.00  0.00    +0.006 A 
ATOM     14  C   UNL     1      -2.787   3.962   4.328  0.00  0.00    +0.000 A 
ATOM     15  C   UNL     1      -1.807   4.711   4.947  0.00  0.00    +0.002 A 
ATOM     16  C   UNL     1      -0.555   4.893   4.380  0.00  0.00    +0.023 A 
ATOM     17  C   UNL     1      -0.318   4.283   3.147  0.00  0.00    +0.037 A 
ATOM     18  N   UNL     1       0.824   4.297   2.366  0.00  0.00    -0.285 N 
ATOM     19  C   UNL     1       0.669   3.584   1.230  0.00  0.00    +0.225 C 
ATOM     20  O   UNL     1       1.499   3.421   0.361  0.00  0.00    -0.275 OA
ATOM     21  C   UNL     1      -4.338   0.981   0.214  0.00  0.00    +0.018 C 
ATOM     22  H   UNL     1       1.715   4.848   2.702  0.00  0.00    +0.155 HD
ATOM     23  H   UNL     1      -0.129   1.201   2.084  0.00  0.00    -0.078 HD
ENDROOT
BRANCH   1  24
ATOM     24  C   UNL     1      -0.070   1.135  -2.524  0.00  0.00    +0.013 C 
BRANCH  24  26
ATOM     25  C   UNL     1      -0.158   1.204  -5.020  0.00  0.00    +0.004 C 
ATOM     26  C   UNL     1      -0.845   1.665  -3.732  0.00  0.00    -0.002 C 
ENDBRANCH  24  26
ENDBRANCH   1  24
TORSDOF 2
