REMARK  Name = ZINC12890387
REMARK  8 active torsions:
REMARK  status: ('A' for Active; 'I' for Inactive)
REMARK    1  A    between atoms: C_1  and  C_2
REMARK    2  A    between atoms: C_10  and  C_16
REMARK    3  A    between atoms: N_18  and  C_19
REMARK    4  A    between atoms: C_19  and  C_20
REMARK    5  A    between atoms: C_25  and  C_26
REMARK    6  A    between atoms: C_26  and  S_27
REMARK    7  A    between atoms: S_27  and  N_30
REMARK    8  A    between atoms: N_30  and  C_31
REMARK                            x       y       z     vdW  Elec       q    Type
REMARK                         _______ _______ _______ _____ _____    ______ ____
ROOT
ATOM      1  C   UNL     1      -4.157   4.379   5.252  0.00  0.00    +0.244 C 
ATOM      2  O   UNL     1      -4.763   5.221   4.617  0.00  0.00    -0.270 OA
ATOM      3  N   UNL     1      -4.358   4.262   6.579  0.00  0.00    -0.307 N 
ATOM      4  H   UNL     1      -3.875   3.590   7.085  0.00  0.00    +0.149 HD
ENDROOT
BRANCH   1  13
ATOM      5  C   UNL     1      -1.516   3.661  -2.420  0.00  0.00    +0.008 C 
ATOM      6  C   UNL     1      -0.998   3.104  -1.093  0.00  0.00    -0.009 C 
ATOM      7  C   UNL     1      -0.761   1.597  -1.228  0.00  0.00    +0.009 C 
ATOM      8  C   UNL     1      -0.013   1.086   0.008  0.00  0.00    +0.054 C 
ATOM      9  C   UNL     1      -0.727   1.577   1.246  0.00  0.00    +0.020 A 
ATOM     10  C   UNL     1      -1.628   2.585   1.238  0.00  0.00    -0.019 A 
ATOM     11  C   UNL     1      -2.090   2.751   2.601  0.00  0.00    +0.004 A 
ATOM     12  C   UNL     1      -3.005   3.623   3.191  0.00  0.00    +0.023 A 
ATOM     13  C   UNL     1      -3.201   3.486   4.568  0.00  0.00    +0.037 A 
ATOM     14  C   UNL     1      -2.513   2.523   5.314  0.00  0.00    +0.015 A 
ATOM     15  C   UNL     1      -1.612   1.663   4.744  0.00  0.00    +0.027 A 
ATOM     16  C   UNL     1      -1.397   1.777   3.370  0.00  0.00    +0.047 A 
ATOM     17  N   UNL     1      -0.587   1.090   2.517  0.00  0.00    -0.358 N 
ATOM     18  H   UNL     1       0.004   0.364   2.772  0.00  0.00    +0.166 HD
ATOM     19  C   UNL     1      -2.034   3.357   0.008  0.00  0.00    +0.040 C 
ENDBRANCH   1  13
BRANCH   3  20
ATOM     20  C   UNL     1      -5.307   5.148   7.258  0.00  0.00    +0.140 C 
BRANCH  20  21
ATOM     21  C   UNL     1      -5.346   4.812   8.726  0.00  0.00    -0.026 A 
ATOM     22  C   UNL     1      -6.371   4.034   9.231  0.00  0.00    +0.005 A 
ATOM     23  C   UNL     1      -6.407   3.726  10.578  0.00  0.00    +0.000 A 
ATOM     24  C   UNL     1      -5.417   4.196  11.421  0.00  0.00    +0.000 A 
ATOM     25  C   UNL     1      -4.392   4.974  10.916  0.00  0.00    +0.005 A 
ATOM     26  C   UNL     1      -4.354   5.278   9.568  0.00  0.00    -0.020 A 
BRANCH  26  27
ATOM     27  C   UNL     1      -3.233   6.122   9.017  0.00  0.00    +0.220 C 
BRANCH  27  28
ATOM     28  S   UNL     1      -3.700   7.873   9.095  0.00  0.00    +0.033 S 
ATOM     29  O   UNL     1      -4.764   8.136   8.191  0.00  0.00    -0.158 OA
ATOM     30  O   UNL     1      -3.777   8.300  10.448  0.00  0.00    -0.158 OA
BRANCH  28  31
ATOM     31  N   UNL     1      -2.401   8.688   8.469  0.00  0.00    -0.197 NA
ATOM     32  C   UNL     1      -2.032   8.507   7.062  0.00  0.00    +0.127 C 
ATOM     33  H   UNL     1      -1.885   9.285   9.033  0.00  0.00    +0.147 HD
ENDBRANCH  28  31
ENDBRANCH  27  28
ENDBRANCH  26  27
ENDBRANCH  20  21
ENDBRANCH   3  20
TORSDOF 6
