REMARK  Name = ZINC04925071
REMARK  5 active torsions:
REMARK  status: ('A' for Active; 'I' for Inactive)
REMARK    1  A    between atoms: C_4  and  N_7
REMARK    2  A    between atoms: C_9  and  C_21
REMARK    3  A    between atoms: C_10  and  C_12
REMARK    4  A    between atoms: N_22  and  N_23
REMARK    5  A    between atoms: N_23  and  C_24
REMARK                            x       y       z     vdW  Elec       q    Type
REMARK                         _______ _______ _______ _____ _____    ______ ____
ROOT
ATOM      1  N   UNL     1       4.306  -4.460   0.284  0.00  0.00    -0.239 N 
ATOM      2  C   UNL     1       4.699  -3.197  -0.017  0.00  0.00    +0.124 A 
ATOM      3  C   UNL     1       3.580  -2.417  -0.105  0.00  0.00    +0.043 A 
ATOM      4  C   UNL     1       2.435  -3.291   0.171  0.00  0.00    +0.137 A 
ATOM      5  N   UNL     1       2.913  -4.499   0.391  0.00  0.00    -0.163 NA
ENDROOT
BRANCH   4   6
ATOM      6  C   UNL     1       1.014  -2.892   0.195  0.00  0.00    +0.157 A 
ATOM      7  C   UNL     1      -0.004  -3.603  -0.348  0.00  0.00    +0.060 A 
ATOM      8  C   UNL     1      -1.222  -2.833  -0.086  0.00  0.00    +0.021 A 
ATOM      9  C   UNL     1      -2.574  -3.020  -0.381  0.00  0.00    +0.011 A 
ATOM     10  C   UNL     1      -3.489  -2.086   0.017  0.00  0.00    +0.001 A 
ATOM     11  C   UNL     1      -3.083  -0.954   0.710  0.00  0.00    +0.004 A 
ATOM     12  C   UNL     1      -1.752  -0.752   1.010  0.00  0.00    +0.047 A 
ATOM     13  C   UNL     1      -0.805  -1.689   0.616  0.00  0.00    +0.136 A 
ATOM     14  O   UNL     1       0.533  -1.769   0.765  0.00  0.00    -0.453 OA
ENDBRANCH   4   6
BRANCH   1  18
ATOM     15  C   UNL     1       6.855  -7.716   0.801  0.00  0.00    +0.000 A 
ATOM     16  C   UNL     1       5.489  -7.881   0.935  0.00  0.00    +0.002 A 
ATOM     17  C   UNL     1       4.641  -6.804   0.765  0.00  0.00    +0.028 A 
ATOM     18  C   UNL     1       5.163  -5.554   0.458  0.00  0.00    +0.065 A 
ATOM     19  C   UNL     1       6.535  -5.392   0.319  0.00  0.00    +0.028 A 
ATOM     20  C   UNL     1       7.378  -6.472   0.496  0.00  0.00    +0.002 A 
ENDBRANCH   1  18
BRANCH   3  21
ATOM     21  C   UNL     1       3.534  -0.976  -0.412  0.00  0.00    +0.142 C 
ATOM     22  N   UNL     1       2.389  -0.371  -0.515  0.00  0.00    -0.190 NA
BRANCH  22  23
ATOM     23  N   UNL     1       2.345   1.020  -0.681  0.00  0.00    -0.235 N 
ATOM     24  H   UNL     1       3.163   1.540  -0.633  0.00  0.00    +0.174 HD
BRANCH  23  25
ATOM     25  C   UNL     1       1.124   1.657  -0.914  0.00  0.00    +0.084 A 
ATOM     26  C   UNL     1      -0.041   0.909  -1.028  0.00  0.00    +0.030 A 
ATOM     27  C   UNL     1      -1.247   1.540  -1.264  0.00  0.00    +0.040 A 
ATOM     28  C   UNL     1      -1.297   2.920  -1.377  0.00  0.00    +0.126 A 
ATOM     29  C   UNL     1      -0.139   3.670  -1.264  0.00  0.00    +0.078 A 
ATOM     30  C   UNL     1       1.072   3.042  -1.033  0.00  0.00    +0.149 A 
ATOM     31  F   UNL     1       2.203   3.774  -0.923  0.00  0.00    -0.203 F 
ATOM     32  F   UNL     1      -2.479   3.535  -1.602  0.00  0.00    -0.205 F 
ENDBRANCH  23  25
ENDBRANCH  22  23
ENDBRANCH   3  21
TORSDOF 5
