REMARK  Name = ZINC38745648
REMARK  6 active torsions:
REMARK  status: ('A' for Active; 'I' for Inactive)
REMARK    1  A    between atoms: C_1  and  C_2
REMARK    2  A    between atoms: C_6  and  C_8
REMARK    3  A    between atoms: C_14  and  C_17
REMARK    4  A    between atoms: C_20  and  C_23
REMARK    5  A    between atoms: C_26  and  O_29
REMARK    6  A    between atoms: O_29  and  C_30
REMARK                            x       y       z     vdW  Elec       q    Type
REMARK                         _______ _______ _______ _____ _____    ______ ____
ROOT
ATOM      1  C   UNL     1       0.052  -2.845   2.458  0.00  0.00    +0.182 A 
ATOM      2  N   UNL     1      -0.229  -2.363   3.642  0.00  0.00    -0.127 NA
ATOM      3  N   UNL     1      -0.107  -3.284   4.532  0.00  0.00    -0.120 NA
ATOM      4  C   UNL     1       0.271  -4.390   3.966  0.00  0.00    +0.211 A 
ATOM      5  N   UNL     1       0.361  -4.193   2.611  0.00  0.00    -0.220 N 
ATOM      6  N   UNL     1       0.679  -5.246   1.806  0.00  0.00    -0.265 N 
ATOM      7  C   UNL     1       1.373  -6.371   2.487  0.00  0.00    +0.182 C 
ATOM      8  S   UNL     1       0.733  -6.095   4.195  0.00  0.00    -0.058 S 
ATOM      9  H   UNL     1      -0.132  -5.574   1.302  0.00  0.00    +0.168 HD
ENDROOT
BRANCH   1  15
ATOM     10  C   UNL     1      -0.018   1.503   0.010  0.00  0.00    +0.044 C 
ATOM     11  C   UNL     1       0.002  -0.004   0.002  0.00  0.00    -0.050 A 
ATOM     12  C   UNL     1       0.006  -0.688  -1.201  0.00  0.00    +0.003 A 
ATOM     13  C   UNL     1       0.024  -2.071  -1.218  0.00  0.00    +0.001 A 
ATOM     14  C   UNL     1       0.040  -2.778  -0.033  0.00  0.00    +0.011 A 
ATOM     15  C   UNL     1       0.036  -2.095   1.184  0.00  0.00    +0.021 A 
ATOM     16  C   UNL     1       0.023  -0.699   1.194  0.00  0.00    +0.015 A 
ENDBRANCH   1  15
BRANCH   7  17
ATOM     17  C   UNL     1       0.934  -7.726   1.927  0.00  0.00    +0.185 C 
ATOM     18  C   UNL     1       1.611  -8.860   2.675  0.00  0.00    +0.034 C 
ATOM     19  C   UNL     1       0.587  -9.542   3.224  0.00  0.00    +0.091 C 
ATOM     20  N   UNL     1      -0.598  -8.961   2.900  0.00  0.00    -0.154 NA
ATOM     21  N   UNL     1      -0.497  -7.956   2.186  0.00  0.00    -0.177 NA
BRANCH  19  22
ATOM     22  C   UNL     1       0.732 -10.756   4.065  0.00  0.00    +0.002 A 
ATOM     23  C   UNL     1       1.999 -11.266   4.342  0.00  0.00    +0.013 A 
ATOM     24  C   UNL     1       2.131 -12.394   5.124  0.00  0.00    +0.046 A 
ATOM     25  C   UNL     1       1.003 -13.022   5.635  0.00  0.00    +0.120 A 
ATOM     26  C   UNL     1      -0.261 -12.516   5.361  0.00  0.00    +0.046 A 
ATOM     27  C   UNL     1      -0.398 -11.384   4.584  0.00  0.00    +0.013 A 
BRANCH  25  28
ATOM     28  O   UNL     1       1.136 -14.134   6.404  0.00  0.00    -0.495 OA
ATOM     29  C   UNL     1      -0.066 -14.729   6.898  0.00  0.00    +0.277 C 
ENDBRANCH  25  28
ENDBRANCH  19  22
ENDBRANCH   7  17
TORSDOF 4
