REMARK  Name = ZINC39678223
REMARK  8 active torsions:
REMARK  status: ('A' for Active; 'I' for Inactive)
REMARK    1  A    between atoms: C_1  and  C_2
REMARK    2  A    between atoms: C_2  and  C_3
REMARK    3  A    between atoms: C_3  and  C_4
REMARK    4  A    between atoms: C_4  and  C_5
REMARK    5  A    between atoms: C_9  and  C_18
REMARK    6  A    between atoms: N_20  and  C_21
REMARK    7  A    between atoms: C_21  and  C_22
REMARK    8  A    between atoms: C_27  and  N_28
REMARK                            x       y       z     vdW  Elec       q    Type
REMARK                         _______ _______ _______ _____ _____    ______ ____
ROOT
ATOM      1  C   UNL     1       1.313  -2.371   2.362  0.00  0.00    +0.216 C 
ATOM      2  O   UNL     1       1.681  -1.637   3.255  0.00  0.00    -0.276 OA
ATOM      3  N   UNL     1       1.316  -3.706   2.544  0.00  0.00    -0.300 N 
ATOM      4  C   UNL     1       0.824  -4.750   1.614  0.00  0.00    +0.121 C 
ATOM      5  C   UNL     1       1.854  -5.896   1.733  0.00  0.00    +0.100 C 
ATOM      6  C   UNL     1       2.498  -5.703   3.116  0.00  0.00    -0.004 C 
ATOM      7  C   UNL     1       1.818  -4.463   3.716  0.00  0.00    +0.115 C 
ATOM      8  C   UNL     1       3.997  -5.457   2.972  0.00  0.00    -0.010 C 
ATOM      9  C   UNL     1       4.624  -5.325   4.363  0.00  0.00    -0.082 C 
ATOM     10  N   UNL     1       4.380  -6.553   5.130  0.00  0.00    +0.379 N 
ATOM     11  C   UNL     1       2.939  -6.732   5.343  0.00  0.00    -0.082 C 
ATOM     12  C   UNL     1       2.241  -6.924   3.994  0.00  0.00    -0.010 C 
ATOM     13  H   UNL     1       4.745  -7.344   4.620  0.00  0.00    -0.086 HD
ATOM     14  H   UNL     1       4.846  -6.488   6.022  0.00  0.00    -0.086 HD
ENDROOT
BRANCH   5  15
ATOM     15  C   UNL     1       2.893  -5.782   0.647  0.00  0.00    +0.218 C 
ATOM     16  O   UNL     1       3.232  -4.689   0.244  0.00  0.00    -0.275 OA
ATOM     17  N   UNL     1       3.447  -6.894   0.125  0.00  0.00    -0.311 N 
ATOM     18  H   UNL     1       3.129  -7.769   0.398  0.00  0.00    +0.149 HD
BRANCH  17  19
ATOM     19  C   UNL     1       4.530  -6.782  -0.856  0.00  0.00    +0.141 C 
BRANCH  19  20
ATOM     20  C   UNL     1       4.886  -8.153  -1.369  0.00  0.00    -0.009 A 
ATOM     21  C   UNL     1       6.006  -8.803  -0.886  0.00  0.00    +0.007 A 
ATOM     22  C   UNL     1       6.334 -10.061  -1.356  0.00  0.00    +0.000 A 
ATOM     23  C   UNL     1       5.543 -10.673  -2.311  0.00  0.00    +0.002 A 
ATOM     24  C   UNL     1       4.423 -10.030  -2.798  0.00  0.00    +0.023 A 
ATOM     25  C   UNL     1       4.087  -8.768  -2.324  0.00  0.00    +0.034 A 
BRANCH  25  26
ATOM     26  N   UNL     1       2.951  -8.117  -2.810  0.00  0.00    -0.330 N 
ATOM     27  C   UNL     1       3.018  -7.312  -4.038  0.00  0.00    +0.105 C 
ATOM     28  C   UNL     1       1.934  -7.798  -5.005  0.00  0.00    +0.019 C 
ATOM     29  C   UNL     1       0.575  -7.761  -4.303  0.00  0.00    +0.003 C 
ATOM     30  C   UNL     1       0.599  -8.698  -3.094  0.00  0.00    +0.019 C 
ATOM     31  C   UNL     1       1.666  -8.228  -2.108  0.00  0.00    +0.105 C 
ENDBRANCH  25  26
ENDBRANCH  19  20
ENDBRANCH  17  19
ENDBRANCH   5  15
BRANCH   1  32
ATOM     32  C   UNL     1       0.853  -1.790   1.050  0.00  0.00    +0.096 C 
BRANCH  32  33
ATOM     33  C   UNL     1       1.067  -0.275   1.061  0.00  0.00    +0.009 C 
BRANCH  33  35
ATOM     34  C   UNL     1       0.598   1.855  -0.159  0.00  0.00    +0.004 C 
ATOM     35  C   UNL     1       0.494   0.330  -0.223  0.00  0.00    -0.003 C 
ENDBRANCH  33  35
ENDBRANCH  32  33
ENDBRANCH   1  32
TORSDOF 7
