REMARK  Name = ZINC09072385
REMARK  10 active torsions:
REMARK  status: ('A' for Active; 'I' for Inactive)
REMARK    1  A    between atoms: C_1  and  C_2
REMARK    2  A    between atoms: C_2  and  N_3
REMARK    3  A    between atoms: C_4  and  C_24
REMARK    4  A    between atoms: C_7  and  S_8
REMARK    5  A    between atoms: S_8  and  C_9
REMARK    6  A    between atoms: C_9  and  C_10
REMARK    7  A    between atoms: N_12  and  C_13
REMARK    8  A    between atoms: C_13  and  C_14
REMARK    9  A    between atoms: C_17  and  S_20
REMARK   10  A    between atoms: S_20  and  N_23
REMARK                            x       y       z     vdW  Elec       q    Type
REMARK                         _______ _______ _______ _____ _____    ______ ____
ROOT
ATOM      1  C   UNL     1      -0.455   0.644  -2.532  0.00  0.00    +0.224 C 
ATOM      2  O   UNL     1       0.603   0.071  -2.689  0.00  0.00    -0.275 OA
ATOM      3  N   UNL     1      -1.005   0.718  -1.304  0.00  0.00    -0.311 N 
ATOM      4  H   UNL     1      -1.851   1.176  -1.179  0.00  0.00    +0.149 HD
ENDROOT
BRANCH   1   5
ATOM      5  C   UNL     1      -1.154   1.272  -3.710  0.00  0.00    +0.173 C 
BRANCH   5   6
ATOM      6  S   UNL     1      -0.172   1.004  -5.207  0.00  0.00    -0.077 S 
BRANCH   6  11
ATOM      7  N   UNL     1      -0.941   1.940  -7.729  0.00  0.00    -0.302 N 
ATOM      8  C   UNL     1      -2.006   2.643  -8.243  0.00  0.00    +0.165 A 
ATOM      9  N   UNL     1      -2.813   2.908  -7.242  0.00  0.00    -0.128 NA
ATOM     10  N   UNL     1      -2.334   2.422  -6.153  0.00  0.00    -0.122 NA
ATOM     11  C   UNL     1      -1.192   1.817  -6.392  0.00  0.00    +0.192 A 
BRANCH   8  12
ATOM     12  C   UNL     1      -2.203   3.030  -9.656  0.00  0.00    +0.019 A 
ATOM     13  C   UNL     1      -3.092   4.055  -9.984  0.00  0.00    +0.013 A 
ATOM     14  C   UNL     1      -3.268   4.415 -11.304  0.00  0.00    +0.021 A 
ATOM     15  C   UNL     1      -2.572   3.756 -12.303  0.00  0.00    +0.041 A 
ATOM     16  C   UNL     1      -1.692   2.735 -11.984  0.00  0.00    +0.021 A 
ATOM     17  C   UNL     1      -1.504   2.369 -10.668  0.00  0.00    +0.013 A 
ATOM     18 CL   UNL     1      -2.804   4.210 -13.963  0.00  0.00    -0.084 Cl
ENDBRANCH   8  12
BRANCH   7  20
ATOM     19  C   UNL     1      -0.042  -0.018  -8.885  0.00  0.00    +0.027 C 
ATOM     20  C   UNL     1       0.219   1.429  -8.462  0.00  0.00    +0.122 C 
ENDBRANCH   7  20
ENDBRANCH   6  11
ENDBRANCH   5   6
ENDBRANCH   1   5
BRANCH   3  21
ATOM     21  C   UNL     1      -0.326   0.107  -0.159  0.00  0.00    +0.139 C 
BRANCH  21  22
ATOM     22  C   UNL     1      -1.143   0.331   1.087  0.00  0.00    -0.030 A 
ATOM     23  C   UNL     1      -0.929   1.456   1.862  0.00  0.00    +0.007 A 
ATOM     24  C   UNL     1      -1.682   1.663   3.003  0.00  0.00    +0.029 A 
ATOM     25  C   UNL     1      -2.642   0.740   3.374  0.00  0.00    +0.105 A 
ATOM     26  C   UNL     1      -2.852  -0.387   2.603  0.00  0.00    +0.029 A 
ATOM     27  C   UNL     1      -2.103  -0.592   1.459  0.00  0.00    +0.007 A 
BRANCH  25  28
ATOM     28  S   UNL     1      -3.598   1.002   4.831  0.00  0.00    +0.056 S 
ATOM     29  O   UNL     1      -3.586   2.401   5.079  0.00  0.00    -0.153 OA
ATOM     30  O   UNL     1      -4.804   0.269   4.662  0.00  0.00    -0.153 OA
BRANCH  28  31
ATOM     31  N   UNL     1      -2.784   0.291   6.085  0.00  0.00    -0.204 NA
ATOM     32  H   UNL     1      -1.940  -0.159   5.923  0.00  0.00    +0.144 HD
ATOM     33  H   UNL     1      -3.151   0.326   6.983  0.00  0.00    +0.144 HD
ENDBRANCH  28  31
ENDBRANCH  25  28
ENDBRANCH  21  22
ENDBRANCH   3  21
TORSDOF 9
