REMARK  Name = ZINC39586080
REMARK  7 active torsions:
REMARK  status: ('A' for Active; 'I' for Inactive)
REMARK    1  A    between atoms: C_1  and  C_2
REMARK    2  A    between atoms: C_2  and  C_4
REMARK    3  A    between atoms: C_2  and  S_15
REMARK    4  A    between atoms: C_7  and  C_9
REMARK    5  A    between atoms: S_15  and  C_16
REMARK    6  A    between atoms: C_20  and  C_29
REMARK    7  A    between atoms: N_21  and  C_22
REMARK                            x       y       z     vdW  Elec       q    Type
REMARK                         _______ _______ _______ _____ _____    ______ ____
ROOT
ATOM      1  C   UNL     1       2.163  -0.038   0.913  0.00  0.00    +0.242 C 
ATOM      2  N   UNL     1       2.236   1.425   0.763  0.00  0.00    -0.237 N 
ATOM      3  N   UNL     1       3.331   1.685  -0.070  0.00  0.00    -0.169 NA
ATOM      4  C   UNL     1       3.921   0.579  -0.437  0.00  0.00    +0.151 C 
ATOM      5  N   UNL     1       3.288  -0.544   0.110  0.00  0.00    -0.254 N 
ATOM      6  H   UNL     1       1.642   2.079   1.162  0.00  0.00    +0.171 HD
ENDROOT
BRANCH   4   7
ATOM      7  C   UNL     1       5.048   0.522  -1.273  0.00  0.00    +0.022 C 
ATOM      8  C   UNL     1       5.787   1.598  -1.766  0.00  0.00    +0.006 A 
ATOM      9  C   UNL     1       5.661   2.995  -1.604  0.00  0.00    +0.010 A 
ATOM     10  C   UNL     1       6.545   3.825  -2.215  0.00  0.00    +0.001 A 
ATOM     11  C   UNL     1       7.584   3.333  -3.007  0.00  0.00    +0.002 A 
ATOM     12  C   UNL     1       7.764   2.004  -3.206  0.00  0.00    +0.026 A 
ATOM     13  C   UNL     1       6.881   1.074  -2.599  0.00  0.00    +0.043 A 
ATOM     14  N   UNL     1       6.842  -0.244  -2.635  0.00  0.00    -0.380 N 
ATOM     15  C   UNL     1       5.719  -0.717  -1.821  0.00  0.00    +0.152 C 
ATOM     16  H   UNL     1       7.462  -0.810  -3.121  0.00  0.00    +0.160 HD
ENDBRANCH   4   7
BRANCH   5  17
ATOM     17  C   UNL     1       3.651  -1.882  -0.070  0.00  0.00    +0.038 A 
ATOM     18  C   UNL     1       4.512  -2.497   0.830  0.00  0.00    +0.025 A 
ATOM     19  C   UNL     1       4.869  -3.819   0.650  0.00  0.00    +0.022 A 
ATOM     20  C   UNL     1       4.370  -4.531  -0.426  0.00  0.00    +0.041 A 
ATOM     21  C   UNL     1       3.512  -3.921  -1.325  0.00  0.00    +0.022 A 
ATOM     22  C   UNL     1       3.147  -2.601  -1.146  0.00  0.00    +0.025 A 
ATOM     23 CL   UNL     1       4.821  -6.192  -0.650  0.00  0.00    -0.084 Cl
ENDBRANCH   5  17
BRANCH   1  24
ATOM     24  S   UNL     1       0.589  -0.665   0.265  0.00  0.00    -0.105 S 
BRANCH  24  26
ATOM     25  C   UNL     1       0.499   1.443  -1.475  0.00  0.00    +0.029 C 
ATOM     26  C   UNL     1       0.560  -0.085  -1.453  0.00  0.00    +0.134 C 
BRANCH  26  27
ATOM     27  C   UNL     1      -0.652  -0.646  -2.152  0.00  0.00    +0.230 A 
ATOM     28  N   UNL     1      -1.867  -0.681  -1.677  0.00  0.00    -0.111 NA
ATOM     29  N   UNL     1      -2.650  -1.227  -2.540  0.00  0.00    -0.107 NA
ATOM     30  C   UNL     1      -1.956  -1.561  -3.603  0.00  0.00    +0.248 A 
ATOM     31  O   UNL     1      -0.679  -1.194  -3.379  0.00  0.00    -0.419 OA
BRANCH  30  32
ATOM     32  C   UNL     1      -2.480  -2.213  -4.823  0.00  0.00    +0.038 A 
ATOM     33  C   UNL     1      -1.620  -2.517  -5.879  0.00  0.00    +0.013 A 
ATOM     34  C   UNL     1      -2.115  -3.126  -7.014  0.00  0.00    +0.001 A 
ATOM     35  C   UNL     1      -3.460  -3.435  -7.106  0.00  0.00    +0.000 A 
ATOM     36  C   UNL     1      -4.318  -3.136  -6.063  0.00  0.00    +0.001 A 
ATOM     37  C   UNL     1      -3.835  -2.533  -4.920  0.00  0.00    +0.013 A 
ENDBRANCH  30  32
ENDBRANCH  26  27
ENDBRANCH  24  26
ENDBRANCH   1  24
TORSDOF 6
