REMARK  Name = ZINC01787027
REMARK  10 active torsions:
REMARK  status: ('A' for Active; 'I' for Inactive)
REMARK    1  A    between atoms: C_4  and  C_7
REMARK    2  A    between atoms: C_7  and  C_8
REMARK    3  A    between atoms: N_10  and  C_11
REMARK    4  A    between atoms: C_11  and  C_13
REMARK    5  A    between atoms: C_11  and  N_17
REMARK    6  A    between atoms: N_17  and  C_18
REMARK    7  A    between atoms: C_18  and  N_20
REMARK    8  A    between atoms: N_20  and  C_21
REMARK    9  A    between atoms: C_24  and  S_27
REMARK   10  A    between atoms: S_27  and  N_30
REMARK                            x       y       z     vdW  Elec       q    Type
REMARK                         _______ _______ _______ _____ _____    ______ ____
ROOT
ATOM      1  N   UNL     1       2.297   5.514   0.212  0.00  0.00    -0.305 N 
ATOM      2  H   UNL     1       1.451   5.987   0.222  0.00  0.00    +0.150 HD
ENDROOT
BRANCH   1   3
ATOM      3  C   UNL     1       2.318   4.171   0.104  0.00  0.00    +0.136 C 
ATOM      4  S   UNL     1       3.813   3.337   0.086  0.00  0.00    -0.019 S 
BRANCH   3   5
ATOM      5  N   UNL     1       1.162   3.485   0.009  0.00  0.00    -0.297 N 
ATOM      6  H   UNL     1       0.320   3.961  -0.062  0.00  0.00    +0.154 HD
BRANCH   5   7
ATOM      7  C   UNL     1       1.177   2.086   0.013  0.00  0.00    +0.033 A 
ATOM      8  C   UNL     1       2.010   1.401   0.888  0.00  0.00    +0.025 A 
ATOM      9  C   UNL     1       2.022   0.020   0.890  0.00  0.00    +0.030 A 
ATOM     10  C   UNL     1       1.205  -0.681   0.022  0.00  0.00    +0.105 A 
ATOM     11  C   UNL     1       0.374  -0.002  -0.851  0.00  0.00    +0.030 A 
ATOM     12  C   UNL     1       0.358   1.379  -0.858  0.00  0.00    +0.025 A 
BRANCH  10  13
ATOM     13  S   UNL     1       1.223  -2.443   0.028  0.00  0.00    +0.056 S 
ATOM     14  O   UNL     1       0.770  -2.857  -1.254  0.00  0.00    -0.153 OA
ATOM     15  O   UNL     1       2.483  -2.834   0.554  0.00  0.00    -0.153 OA
BRANCH  13  16
ATOM     16  N   UNL     1       0.079  -2.940   1.117  0.00  0.00    -0.204 NA
ATOM     17  H   UNL     1      -0.444  -2.285   1.604  0.00  0.00    +0.144 HD
ATOM     18  H   UNL     1      -0.067  -3.887   1.268  0.00  0.00    +0.144 HD
ENDBRANCH  13  16
ENDBRANCH  10  13
ENDBRANCH   5   7
ENDBRANCH   3   5
ENDBRANCH   1   3
BRANCH   1  19
ATOM     19  C   UNL     1       3.554   6.260   0.315  0.00  0.00    +0.211 C 
BRANCH  19  22
ATOM     20  C   UNL     1       4.785   6.434  -1.781  0.00  0.00    +0.219 C 
ATOM     21  O   UNL     1       5.410   5.444  -1.462  0.00  0.00    -0.275 OA
ATOM     22  N   UNL     1       3.834   6.923  -0.961  0.00  0.00    -0.293 N 
ATOM     23  H   UNL     1       3.335   7.715  -1.216  0.00  0.00    +0.151 HD
BRANCH  20  24
ATOM     24  C   UNL     1       5.074   7.116  -3.093  0.00  0.00    +0.131 C 
BRANCH  24  28
ATOM     25  C   UNL     1       8.184   5.018  -5.136  0.00  0.00    +0.000 A 
ATOM     26  C   UNL     1       6.863   4.668  -5.343  0.00  0.00    +0.000 A 
ATOM     27  C   UNL     1       5.856   5.347  -4.682  0.00  0.00    +0.004 A 
ATOM     28  C   UNL     1       6.171   6.376  -3.814  0.00  0.00    -0.039 A 
ATOM     29  C   UNL     1       7.492   6.729  -3.611  0.00  0.00    +0.004 A 
ATOM     30  C   UNL     1       8.499   6.047  -4.268  0.00  0.00    +0.000 A 
ENDBRANCH  24  28
ENDBRANCH  20  24
ENDBRANCH  19  22
BRANCH  19  31
ATOM     31  C   UNL     1       3.435   7.311   1.420  0.00  0.00    +0.225 C 
ATOM     32 CL   UNL     1       3.090   6.495   2.990  0.00  0.00    -0.080 Cl
ATOM     33 CL   UNL     1       4.981   8.229   1.546  0.00  0.00    -0.080 Cl
ATOM     34 CL   UNL     1       2.091   8.448   1.026  0.00  0.00    -0.080 Cl
ENDBRANCH  19  31
ENDBRANCH   1  19
TORSDOF 10
