REMARK  Name = ZINC44360711
REMARK  9 active torsions:
REMARK  status: ('A' for Active; 'I' for Inactive)
REMARK    1  A    between atoms: C_1  and  C_2
REMARK    2  A    between atoms: C_2  and  O_3
REMARK    3  A    between atoms: O_3  and  C_4
REMARK    4  A    between atoms: C_4  and  C_6
REMARK    5  A    between atoms: C_6  and  C_8
REMARK    6  A    between atoms: C_6  and  N_28
REMARK    7  A    between atoms: C_8  and  C_9
REMARK    8  A    between atoms: C_10  and  C_19
REMARK    9  A    between atoms: C_23  and  N_25
REMARK                            x       y       z     vdW  Elec       q    Type
REMARK                         _______ _______ _______ _____ _____    ______ ____
ROOT
ATOM      1  C   UNL     1       3.462  -2.817  -3.733  0.00  0.00    +0.050 A 
ATOM      2  C   UNL     1       4.120  -4.000  -3.886  0.00  0.00    +0.093 A 
ATOM      3  N   UNL     1       4.893  -3.914  -4.981  0.00  0.00    -0.228 NA
ATOM      4  C   UNL     1       4.744  -2.715  -5.523  0.00  0.00    +0.139 A 
ATOM      5  N   UNL     1       3.848  -2.007  -4.764  0.00  0.00    -0.302 N 
ATOM      6  C   UNL     1       3.508  -0.729  -5.108  0.00  0.00    +0.108 A 
ATOM      7  C   UNL     1       4.044  -0.145  -6.200  0.00  0.00    +0.034 A 
ATOM      8  C   UNL     1       4.963  -0.846  -7.000  0.00  0.00    +0.020 A 
ATOM      9  C   UNL     1       5.316  -2.116  -6.665  0.00  0.00    +0.048 A 
ATOM     10 BR   UNL     1       3.557   1.624  -6.657  0.00  0.00    -0.049 Br
ENDROOT
BRANCH   2  11
ATOM     11  C   UNL     1       4.002  -5.181  -2.996  0.00  0.00    +0.004 A 
ATOM     12  C   UNL     1       3.897  -6.460  -3.540  0.00  0.00    +0.010 A 
ATOM     13  C   UNL     1       3.788  -7.555  -2.707  0.00  0.00    +0.003 A 
ATOM     14  C   UNL     1       3.784  -7.385  -1.334  0.00  0.00    +0.033 A 
ATOM     15  C   UNL     1       3.888  -6.118  -0.789  0.00  0.00    +0.127 A 
ATOM     16  C   UNL     1       4.003  -5.016  -1.612  0.00  0.00    +0.042 A 
BRANCH  15  17
ATOM     17  N   UNL     1       3.882  -5.944   0.681  0.00  0.00    +0.056 N 
ATOM     18  O   UNL     1       3.787  -6.909   1.404  0.00  0.00    -0.126 OA
ATOM     19  O   UNL     1       3.973  -4.838   1.159  0.00  0.00    -0.126 OA
ENDBRANCH  15  17
ENDBRANCH   2  11
BRANCH   1  20
ATOM     20  C   UNL     1       2.488  -2.469  -2.638  0.00  0.00    +0.051 C 
BRANCH  20  21
ATOM     21  C   UNL     1       1.060  -2.730  -3.123  0.00  0.00    +0.042 C 
BRANCH  21  22
ATOM     22  N   UNL     1       0.879  -4.168  -3.362  0.00  0.00    +0.387 N 
ATOM     23  H   UNL     1      -0.062  -4.340  -3.682  0.00  0.00    -0.089 HD
ATOM     24  H   UNL     1       1.535  -4.477  -4.064  0.00  0.00    -0.089 HD
ATOM     25  H   UNL     1       1.041  -4.674  -2.504  0.00  0.00    -0.089 HD
ENDBRANCH  21  22
BRANCH  21  26
ATOM     26  C   UNL     1       0.081  -2.268  -2.074  0.00  0.00    +0.293 C 
ATOM     27  O   UNL     1      -0.426  -3.070  -1.326  0.00  0.00    -0.253 OA
BRANCH  26  28
ATOM     28  O   UNL     1      -0.227  -0.965  -1.972  0.00  0.00    -0.466 OA
BRANCH  28  30
ATOM     29  C   UNL     1      -1.388   0.915  -0.992  0.00  0.00    +0.048 C 
ATOM     30  C   UNL     1      -1.163  -0.598  -0.956  0.00  0.00    +0.228 C 
ENDBRANCH  28  30
ENDBRANCH  26  28
ENDBRANCH  21  26
ENDBRANCH  20  21
ENDBRANCH   1  20
TORSDOF 8
