REMARK  Name = ZINC54734788
REMARK  5 active torsions:
REMARK  status: ('A' for Active; 'I' for Inactive)
REMARK    1  A    between atoms: C_1  and  C_2
REMARK    2  A    between atoms: C_5  and  C_7
REMARK    3  A    between atoms: C_7  and  C_9
REMARK    4  A    between atoms: C_7  and  N_10
REMARK    5  A    between atoms: C_21  and  C_24
REMARK                            x       y       z     vdW  Elec       q    Type
REMARK                         _______ _______ _______ _____ _____    ______ ____
ROOT
ATOM      1  N   UNL     1       2.198  -4.136  -0.924  0.00  0.00    -0.292 N 
ATOM      2  C   UNL     1       2.539  -5.311  -1.489  0.00  0.00    +0.303 C 
ATOM      3  O   UNL     1       1.942  -6.327  -1.187  0.00  0.00    -0.253 OA
ATOM      4  N   UNL     1       3.542  -5.361  -2.388  0.00  0.00    -0.283 N 
ATOM      5  C   UNL     1       4.350  -4.168  -2.674  0.00  0.00    +0.128 C 
ATOM      6  C   UNL     1       5.828  -4.512  -2.450  0.00  0.00    +0.126 C 
ATOM      7  N   UNL     1       6.132  -5.761  -3.163  0.00  0.00    -0.307 N 
ATOM      8  C   UNL     1       5.324  -6.954  -2.877  0.00  0.00    +0.126 C 
ATOM      9  C   UNL     1       3.849  -6.612  -3.097  0.00  0.00    +0.128 C 
ATOM     10  C   UNL     1       7.163  -5.812  -4.088  0.00  0.00    +0.161 A 
ATOM     11  N   UNL     1       7.563  -6.836  -4.811  0.00  0.00    -0.230 NA
ATOM     12  C   UNL     1       8.571  -6.722  -5.657  0.00  0.00    +0.047 A 
ATOM     13  C   UNL     1       9.169  -5.509  -5.742  0.00  0.00    +0.071 A 
ATOM     14  S   UNL     1       8.203  -4.578  -4.564  0.00  0.00    -0.060 S 
ATOM     15  C   UNL     1       9.037  -7.888  -6.490  0.00  0.00    +0.066 C 
ATOM     16  H   UNL     1       2.720  -3.340  -1.109  0.00  0.00    +0.151 HD
ENDROOT
BRANCH   1  17
ATOM     17  C   UNL     1       1.040  -4.061  -0.030  0.00  0.00    +0.108 C 
ATOM     18  C   UNL     1       1.464  -4.452   1.387  0.00  0.00    +0.033 C 
BRANCH  17  23
ATOM     19  C   UNL     1      -0.037   1.500  -0.009  0.00  0.00    +0.051 C 
ATOM     20  C   UNL     1      -0.012  -0.007  -0.013  0.00  0.00    -0.013 A 
ATOM     21  C   UNL     1      -1.051  -0.877  -0.010  0.00  0.00    +0.011 A 
ATOM     22  C   UNL     1      -0.788  -2.234  -0.015  0.00  0.00    +0.013 A 
ATOM     23  C   UNL     1       0.501  -2.654  -0.023  0.00  0.00    +0.010 A 
ATOM     24  S   UNL     1       1.393  -1.108  -0.030  0.00  0.00    -0.097 S 
ENDBRANCH  17  23
ENDBRANCH   1  17
TORSDOF 2
