REMARK  Name = ZINC64816240
REMARK  7 active torsions:
REMARK  status: ('A' for Active; 'I' for Inactive)
REMARK    1  A    between atoms: C_1  and  C_2
REMARK    2  A    between atoms: C_2  and  C_3
REMARK    3  A    between atoms: C_6  and  N_9
REMARK    4  A    between atoms: C_14  and  C_28
REMARK    5  A    between atoms: C_18  and  C_19
REMARK    6  A    between atoms: C_18  and  C_20
REMARK    7  A    between atoms: N_22  and  C_23
REMARK                            x       y       z     vdW  Elec       q    Type
REMARK                         _______ _______ _______ _____ _____    ______ ____
ROOT
ATOM      1  N   UNL     1      -5.319  -2.212   0.045  0.00  0.00    -0.250 N 
ATOM      2  C   UNL     1      -5.945  -2.590   1.186  0.00  0.00    +0.270 C 
ATOM      3  O   UNL     1      -5.412  -2.488   2.274  0.00  0.00    -0.268 OA
ATOM      4  C   UNL     1      -7.305  -3.132   1.035  0.00  0.00    +0.125 A 
ATOM      5  C   UNL     1      -8.262  -3.433   1.960  0.00  0.00    +0.065 A 
ATOM      6  C   UNL     1      -9.363  -3.900   1.206  0.00  0.00    +0.128 A 
ATOM      7  N   UNL     1      -9.019  -3.861  -0.070  0.00  0.00    -0.167 NA
ATOM      8  N   UNL     1      -7.826  -3.431  -0.205  0.00  0.00    -0.256 N 
ATOM      9  C   UNL     1      -7.028  -3.256  -1.426  0.00  0.00    +0.179 C 
ATOM     10  C   UNL     1      -6.037  -2.107  -1.220  0.00  0.00    +0.135 C 
ATOM     11  C   UNL     1      -5.023  -2.118  -2.366  0.00  0.00    +0.044 C 
ENDROOT
BRANCH   1  15
ATOM     12  C   UNL     1      -1.255  -1.306   0.159  0.00  0.00    -0.048 A 
ATOM     13  C   UNL     1      -1.665  -2.620   0.022  0.00  0.00    +0.005 A 
ATOM     14  C   UNL     1      -3.012  -2.923  -0.015  0.00  0.00    +0.024 A 
ATOM     15  C   UNL     1      -3.954  -1.908   0.084  0.00  0.00    +0.038 A 
ATOM     16  C   UNL     1      -3.539  -0.590   0.220  0.00  0.00    +0.024 A 
ATOM     17  C   UNL     1      -2.190  -0.293   0.263  0.00  0.00    +0.005 A 
BRANCH  12  19
ATOM     18  C   UNL     1       0.707  -1.021   1.648  0.00  0.00    +0.009 C 
ATOM     19  C   UNL     1       0.216  -0.979   0.200  0.00  0.00    +0.032 C 
ENDBRANCH  12  19
ENDBRANCH   1  15
BRANCH   6  20
ATOM     20  C   UNL     1     -10.663  -4.351   1.747  0.00  0.00    +0.155 A 
ATOM     21  C   UNL     1     -11.716  -4.805   1.018  0.00  0.00    +0.051 A 
ATOM     22  C   UNL     1     -12.738  -5.123   1.935  0.00  0.00    +0.042 A 
ATOM     23  C   UNL     1     -12.263  -4.851   3.166  0.00  0.00    +0.196 A 
ATOM     24  O   UNL     1     -11.007  -4.389   3.049  0.00  0.00    -0.461 OA
ENDBRANCH   6  20
BRANCH  10  25
ATOM     25  C   UNL     1      -6.786  -0.800  -1.249  0.00  0.00    +0.239 C 
ATOM     26  O   UNL     1      -6.910  -0.196  -2.293  0.00  0.00    -0.273 OA
ATOM     27  N   UNL     1      -7.318  -0.303  -0.115  0.00  0.00    -0.311 N 
ATOM     28  H   UNL     1      -7.218  -0.786   0.720  0.00  0.00    +0.149 HD
BRANCH  27  29
ATOM     29  C   UNL     1      -8.046   0.968  -0.143  0.00  0.00    +0.073 C 
ATOM     30  C   UNL     1      -7.067   2.143   0.058  0.00  0.00    +0.022 C 
ATOM     31  C   UNL     1      -7.860   3.154   0.922  0.00  0.00    +0.002 C 
ATOM     32  C   UNL     1      -8.644   2.235   1.892  0.00  0.00    +0.002 C 
ATOM     33  C   UNL     1      -9.049   1.027   1.022  0.00  0.00    +0.022 C 
ENDBRANCH  27  29
ENDBRANCH  10  25
TORSDOF 5
