REMARK  Name = ZINC05620511
REMARK  2 active torsions:
REMARK  status: ('A' for Active; 'I' for Inactive)
REMARK    1  A    between atoms: C_1  and  C_2
REMARK    2  A    between atoms: C_1  and  O_8
REMARK                            x       y       z     vdW  Elec       q    Type
REMARK                         _______ _______ _______ _____ _____    ______ ____
ROOT
ATOM      1  C   UNL     1       0.614   3.091   0.016  0.00  0.00    +0.157 A 
ATOM      2  N   UNL     1       1.102   1.823  -0.002  0.00  0.00    -0.131 NA
ATOM      3  N   UNL     1      -0.011   0.966   0.003  0.00  0.00    -0.122 NA
ATOM      4  C   UNL     1      -1.102   1.760   0.016  0.00  0.00    +0.200 A 
ATOM      5  S   UNL     1      -2.729   1.229   0.020  0.00  0.00    -0.009 SA
ATOM      6  N   UNL     1      -0.692   3.040   0.026  0.00  0.00    -0.318 N 
ATOM      7  H   UNL     1      -1.431   3.854   0.041  0.00  0.00    +0.169 HD
ENDROOT
BRANCH   1   8
ATOM      8  C   UNL     1       1.442   4.350   0.017  0.00  0.00    +0.231 C 
BRANCH   8   9
ATOM      9  O   UNL     1       2.829   4.008   0.003  0.00  0.00    -0.387 OA
ATOM     10  H   UNL     1       3.592   4.800   0.002  0.00  0.00    +0.210 HD
ENDBRANCH   8   9
ENDBRANCH   1   8
TORSDOF 2
