REMARK  Name = ZINC12122262
REMARK  13 active torsions:
REMARK  status: ('A' for Active; 'I' for Inactive)
REMARK    1  A    between atoms: C_1  and  N_73
REMARK    2  A    between atoms: C_6  and  C_8
REMARK    3  A    between atoms: N_10  and  C_11
REMARK    4  A    between atoms: N_10  and  C_21
REMARK    5  A    between atoms: C_11  and  C_12
REMARK    6  A    between atoms: C_21  and  C_22
REMARK    7  A    between atoms: C_25  and  O_36
REMARK    8  A    between atoms: C_28  and  O_34
REMARK    9  A    between atoms: C_30  and  N_31
REMARK   10  A    between atoms: N_31  and  C_32
REMARK   11  A    between atoms: N_31  and  C_33
REMARK   12  A    between atoms: O_34  and  C_35
REMARK   13  A    between atoms: O_36  and  C_37
REMARK                            x       y       z     vdW  Elec       q    Type
REMARK                         _______ _______ _______ _____ _____    ______ ____
ROOT
ATOM      1  C   UNL     1       2.502  -0.079  -2.072  0.00  0.00    +0.203 C 
ATOM      2  O   UNL     1       1.963  -1.033  -1.553  0.00  0.00    -0.277 OA
ATOM      3  N   UNL     1       2.896   0.965  -1.316  0.00  0.00    -0.294 N 
ENDROOT
BRANCH   1   9
ATOM      4  C   UNL     1       0.343  -0.335  -3.839  0.00  0.00    -0.095 C 
ATOM      5  C   UNL     1       1.835  -0.796  -5.688  0.00  0.00    -0.078 C 
ATOM      6  C   UNL     1       3.168  -1.447  -6.066  0.00  0.00    -0.019 C 
ATOM      7  C   UNL     1       4.311  -0.685  -5.391  0.00  0.00    -0.003 C 
ATOM      8  C   UNL     1       4.091  -0.688  -3.875  0.00  0.00    -0.006 C 
ATOM      9  C   UNL     1       2.732  -0.060  -3.561  0.00  0.00    +0.019 C 
ATOM     10  N   UNL     1       1.673  -0.853  -4.220  0.00  0.00    +0.385 N 
ATOM     11  H   UNL     1       1.750  -1.830  -3.914  0.00  0.00    -0.081 HD
ENDBRANCH   1   9
BRANCH   3  12
ATOM     12  C   UNL     1       2.587   0.991   0.116  0.00  0.00    +0.143 C 
BRANCH  12  13
ATOM     13  C   UNL     1       1.242   1.637   0.328  0.00  0.00    -0.026 A 
ATOM     14  C   UNL     1       0.093   0.870   0.280  0.00  0.00    +0.009 A 
ATOM     15  C   UNL     1      -1.143   1.460   0.469  0.00  0.00    +0.050 A 
ATOM     16  C   UNL     1      -1.232   2.820   0.717  0.00  0.00    +0.166 A 
ATOM     17  C   UNL     1      -0.075   3.592   0.765  0.00  0.00    +0.167 A 
ATOM     18  C   UNL     1       1.161   2.996   0.570  0.00  0.00    +0.054 A 
ATOM     19  O   UNL     1      -0.425   4.888   1.014  0.00  0.00    -0.453 OA
ATOM     20  C   UNL     1      -1.830   4.971   0.713  0.00  0.00    +0.466 C 
ATOM     21  O   UNL     1      -2.308   3.631   0.937  0.00  0.00    -0.453 OA
ENDBRANCH  12  13
ENDBRANCH   3  12
BRANCH   3  22
ATOM     22  C   UNL     1       3.633   2.075  -1.926  0.00  0.00    +0.146 C 
BRANCH  22  23
ATOM     23  C   UNL     1       5.113   1.805  -1.833  0.00  0.00    +0.009 A 
ATOM     24  C   UNL     1       5.562   0.639  -1.289  0.00  0.00    +0.022 A 
ATOM     25  C   UNL     1       6.953   0.426  -1.221  0.00  0.00    +0.044 A 
ATOM     26  C   UNL     1       7.484  -0.757  -0.671  0.00  0.00    +0.129 A 
ATOM     27  C   UNL     1       8.849  -0.929  -0.623  0.00  0.00    +0.050 A 
ATOM     28  C   UNL     1       9.707   0.053  -1.111  0.00  0.00    +0.051 A 
ATOM     29  C   UNL     1       9.220   1.209  -1.650  0.00  0.00    +0.144 A 
ATOM     30  C   UNL     1       7.828   1.422  -1.716  0.00  0.00    +0.093 A 
ATOM     31  C   UNL     1       6.030   2.751  -2.312  0.00  0.00    +0.104 A 
ATOM     32  N   UNL     1       7.378   2.602  -2.267  0.00  0.00    -0.340 N 
ATOM     33  H   UNL     1       8.020   3.321  -2.620  0.00  0.00    +0.167 HD
BRANCH  31  34
ATOM     34  N   UNL     1       5.558   3.931  -2.868  0.00  0.00    -0.322 N 
ATOM     35  C   UNL     1       6.119   5.100  -2.178  0.00  0.00    +0.130 C 
ATOM     36  C   UNL     1       5.843   3.985  -4.309  0.00  0.00    +0.130 C 
ENDBRANCH  31  34
BRANCH  29  37
ATOM     37  O   UNL     1      10.076   2.154  -2.122  0.00  0.00    -0.493 OA
ATOM     38  C   UNL     1      11.473   1.871  -2.022  0.00  0.00    +0.277 C 
ENDBRANCH  29  37
BRANCH  26  39
ATOM     39  O   UNL     1       6.655  -1.721  -0.192  0.00  0.00    -0.494 OA
ATOM     40  C   UNL     1       7.268  -2.893   0.350  0.00  0.00    +0.277 C 
ENDBRANCH  26  39
ENDBRANCH  22  23
ENDBRANCH   3  22
TORSDOF 8
