REMARK  Name = ZINC14866524
REMARK  7 active torsions:
REMARK  status: ('A' for Active; 'I' for Inactive)
REMARK    1  A    between atoms: C_1  and  C_2
REMARK    2  A    between atoms: C_2  and  C_4
REMARK    3  A    between atoms: C_2  and  O_24
REMARK    4  A    between atoms: N_6  and  C_7
REMARK    5  A    between atoms: C_10  and  S_13
REMARK    6  A    between atoms: S_13  and  N_16
REMARK    7  A    between atoms: O_24  and  C_25
REMARK                            x       y       z     vdW  Elec       q    Type
REMARK                         _______ _______ _______ _____ _____    ______ ____
ROOT
ATOM      1  C   UNL     1      -3.568  -0.720  -1.659  0.00  0.00    +0.034 A 
ATOM      2  C   UNL     1      -4.383  -1.240  -0.661  0.00  0.00    +0.025 A 
ATOM      3  C   UNL     1      -5.551  -1.894  -0.997  0.00  0.00    +0.031 A 
ATOM      4  C   UNL     1      -5.911  -2.033  -2.325  0.00  0.00    +0.113 A 
ATOM      5  C   UNL     1      -5.102  -1.516  -3.321  0.00  0.00    +0.031 A 
ATOM      6  C   UNL     1      -3.935  -0.855  -2.991  0.00  0.00    +0.025 A 
ENDROOT
BRANCH   1   9
ATOM      7  C   UNL     1      -1.960   0.986  -2.066  0.00  0.00    +0.258 C 
ATOM      8  O   UNL     1      -2.655   1.413  -2.963  0.00  0.00    -0.271 OA
ATOM      9  N   UNL     1      -2.384  -0.056  -1.322  0.00  0.00    -0.282 N 
ATOM     10  H   UNL     1      -1.868  -0.344  -0.553  0.00  0.00    +0.155 HD
BRANCH   7  12
ATOM     11  C   UNL     1       0.491   0.608  -2.067  0.00  0.00    +0.062 C 
ATOM     12  C   UNL     1      -0.622   1.619  -1.782  0.00  0.00    +0.256 C 
BRANCH  12  13
ATOM     13  O   UNL     1      -0.451   2.765  -2.618  0.00  0.00    -0.480 OA
BRANCH  13  14
ATOM     14  C   UNL     1       0.401   3.728  -2.178  0.00  0.00    +0.122 A 
ATOM     15  C   UNL     1       0.524   4.919  -2.878  0.00  0.00    +0.047 A 
ATOM     16  C   UNL     1       1.390   5.897  -2.429  0.00  0.00    +0.019 A 
ATOM     17  C   UNL     1       2.134   5.689  -1.281  0.00  0.00    +0.018 A 
ATOM     18  C   UNL     1       2.013   4.502  -0.581  0.00  0.00    +0.019 A 
ATOM     19  C   UNL     1       1.144   3.524  -1.024  0.00  0.00    +0.047 A 
ATOM     20 BR   UNL     1       3.319   7.030  -0.668  0.00  0.00    -0.050 Br
ENDBRANCH  13  14
ENDBRANCH  12  13
ENDBRANCH   7  12
ENDBRANCH   1   9
BRANCH   4  21
ATOM     21  S   UNL     1      -7.403  -2.869  -2.750  0.00  0.00    +0.100 S 
ATOM     22  O   UNL     1      -7.239  -3.342  -4.080  0.00  0.00    -0.146 OA
ATOM     23  O   UNL     1      -7.706  -3.735  -1.665  0.00  0.00    -0.146 OA
BRANCH  21  24
ATOM     24  N   UNL     1      -8.605  -1.731  -2.797  0.00  0.00    -0.118 NA
ATOM     25  C   UNL     1      -9.816  -2.081  -3.088  0.00  0.00    +0.117 C 
ATOM     26  C   UNL     1     -10.140  -3.544  -3.382  0.00  0.00    +0.073 C 
ATOM     27  C   UNL     1     -10.976  -4.060  -2.231  0.00  0.00    +0.008 C 
ATOM     28  C   UNL     1     -12.478  -3.836  -2.421  0.00  0.00    +0.002 C 
ATOM     29  C   UNL     1     -12.812  -2.450  -2.973  0.00  0.00    +0.019 C 
ATOM     30  C   UNL     1     -12.009  -1.341  -2.329  0.00  0.00    +0.102 C 
ATOM     31  N   UNL     1     -10.775  -1.177  -3.126  0.00  0.00    -0.331 N 
ATOM     32  H   UNL     1     -10.671  -0.392  -3.685  0.00  0.00    +0.147 HD
ENDBRANCH  21  24
ENDBRANCH   4  21
TORSDOF 6
