REMARK  Name = ZINC39677088
REMARK  8 active torsions:
REMARK  status: ('A' for Active; 'I' for Inactive)
REMARK    1  A    between atoms: C_1  and  C_2
REMARK    2  A    between atoms: C_5  and  C_32
REMARK    3  A    between atoms: C_6  and  C_8
REMARK    4  A    between atoms: C_8  and  C_9
REMARK    5  A    between atoms: C_9  and  N_10
REMARK    6  A    between atoms: C_11  and  C_13
REMARK    7  A    between atoms: C_24  and  C_26
REMARK    8  A    between atoms: C_27  and  C_31
REMARK                            x       y       z     vdW  Elec       q    Type
REMARK                         _______ _______ _______ _____ _____    ______ ____
ROOT
ATOM      1  C   UNL     1       2.687  -5.108   5.949  0.00  0.00    +0.100 C 
ATOM      2  C   UNL     1       2.273  -4.181   7.114  0.00  0.00    +0.121 C 
ATOM      3  N   UNL     1       3.126  -4.604   8.249  0.00  0.00    -0.296 N 
ATOM      4  C   UNL     1       4.447  -4.880   7.635  0.00  0.00    +0.115 C 
ATOM      5  C   UNL     1       4.114  -5.564   6.294  0.00  0.00    -0.004 C 
ATOM      6  C   UNL     1       5.090  -5.108   5.214  0.00  0.00    -0.010 C 
ATOM      7  C   UNL     1       6.493  -5.622   5.550  0.00  0.00    -0.082 C 
ATOM      8  N   UNL     1       6.472  -7.088   5.631  0.00  0.00    +0.379 N 
ATOM      9  C   UNL     1       5.602  -7.515   6.734  0.00  0.00    -0.082 C 
ATOM     10  C   UNL     1       4.162  -7.081   6.448  0.00  0.00    -0.010 C 
ATOM     11  C   UNL     1       2.779  -4.714   9.547  0.00  0.00    +0.254 C 
ATOM     12  O   UNL     1       1.621  -4.550   9.884  0.00  0.00    -0.269 OA
ATOM     13  H   UNL     1       6.123  -7.467   4.763  0.00  0.00    -0.086 HD
ATOM     14  H   UNL     1       7.408  -7.428   5.792  0.00  0.00    -0.086 HD
ENDROOT
BRANCH  11  15
ATOM     15  C   UNL     1       3.797  -5.031  10.553  0.00  0.00    +0.077 A 
ATOM     16  C   UNL     1       3.638  -5.290  11.906  0.00  0.00    -0.031 A 
ATOM     17  C   UNL     1       4.791  -5.559  12.603  0.00  0.00    +0.011 A 
ATOM     18  C   UNL     1       5.976  -5.554  11.943  0.00  0.00    +0.046 A 
ATOM     19  S   UNL     1       5.561  -5.192  10.355  0.00  0.00    -0.092 S 
ATOM     20  C   UNL     1       2.285  -5.278  12.571  0.00  0.00    +0.045 C 
ENDBRANCH  11  15
BRANCH   1  22
ATOM     21  N   UNL     1       2.596  -5.015   3.478  0.00  0.00    -0.315 N 
ATOM     22  C   UNL     1       2.679  -4.349   4.647  0.00  0.00    +0.218 C 
ATOM     23  O   UNL     1       2.747  -3.138   4.650  0.00  0.00    -0.275 OA
ATOM     24  H   UNL     1       2.541  -5.984   3.475  0.00  0.00    +0.149 HD
BRANCH  21  25
ATOM     25  C   UNL     1       2.588  -4.277   2.213  0.00  0.00    +0.109 C 
BRANCH  25  26
ATOM     26  C   UNL     1       2.487  -5.264   1.048  0.00  0.00    +0.054 C 
BRANCH  26  32
ATOM     27  C   UNL     1      -0.037  -3.132  -2.711  0.00  0.00    +0.044 C 
ATOM     28  C   UNL     1       1.272  -3.486  -2.053  0.00  0.00    -0.050 A 
ATOM     29  C   UNL     1       2.465  -3.114  -2.643  0.00  0.00    +0.003 A 
ATOM     30  C   UNL     1       3.665  -3.438  -2.039  0.00  0.00    +0.004 A 
ATOM     31  C   UNL     1       3.672  -4.134  -0.845  0.00  0.00    -0.047 A 
ATOM     32  C   UNL     1       2.479  -4.505  -0.254  0.00  0.00    -0.043 A 
ATOM     33  C   UNL     1       1.279  -4.177  -0.856  0.00  0.00    +0.007 A 
ATOM     34  C   UNL     1       4.981  -4.488  -0.187  0.00  0.00    +0.044 C 
ENDBRANCH  26  32
ENDBRANCH  25  26
ENDBRANCH  21  25
ENDBRANCH   1  22
TORSDOF 5
