REMARK  Name = ZINC63182687
REMARK  8 active torsions:
REMARK  status: ('A' for Active; 'I' for Inactive)
REMARK    1  A    between atoms: C_7  and  C_10
REMARK    2  A    between atoms: C_10  and  C_11
REMARK    3  A    between atoms: C_11  and  C_13
REMARK    4  A    between atoms: C_11  and  N_25
REMARK    5  A    between atoms: N_15  and  C_16
REMARK    6  A    between atoms: C_19  and  C_22
REMARK    7  A    between atoms: C_22  and  C_23
REMARK    8  A    between atoms: C_26  and  C_28
REMARK                            x       y       z     vdW  Elec       q    Type
REMARK                         _______ _______ _______ _____ _____    ______ ____
ROOT
ATOM      1  C   UNL     1       0.464  -3.680  -1.300  0.00  0.00    +0.163 C 
ENDROOT
BRANCH   1   2
ATOM      2  C   UNL     1      -0.582  -4.764  -1.303  0.00  0.00    +0.238 C 
ATOM      3  O   UNL     1      -0.250  -5.928  -1.224  0.00  0.00    -0.273 OA
ATOM      4  N   UNL     1      -1.887  -4.441  -1.394  0.00  0.00    -0.284 N 
ATOM      5  H   UNL     1      -2.159  -3.510  -1.381  0.00  0.00    +0.155 HD
BRANCH   4   6
ATOM      6  C   UNL     1      -2.851  -5.449  -1.508  0.00  0.00    +0.033 A 
ATOM      7  C   UNL     1      -4.108  -5.276  -0.944  0.00  0.00    +0.023 A 
ATOM      8  C   UNL     1      -5.058  -6.273  -1.058  0.00  0.00    +0.006 A 
ATOM      9  C   UNL     1      -4.758  -7.441  -1.734  0.00  0.00    -0.034 A 
ATOM     10  C   UNL     1      -3.507  -7.616  -2.297  0.00  0.00    +0.006 A 
ATOM     11  C   UNL     1      -2.555  -6.621  -2.191  0.00  0.00    +0.023 A 
BRANCH   9  12
ATOM     12  C   UNL     1      -5.796  -8.527  -1.857  0.00  0.00    +0.153 C 
BRANCH  12  13
ATOM     13  C   UNL     1      -6.587  -8.313  -3.079  0.00  0.00    +0.067 C 
ATOM     14  N   UNL     1      -7.198  -8.148  -4.023  0.00  0.00    -0.196 NA
ENDBRANCH  12  13
ENDBRANCH   9  12
ENDBRANCH   4   6
ENDBRANCH   1   2
BRANCH   1  15
ATOM     15  N   UNL     1       1.761  -4.252  -1.671  0.00  0.00    -0.299 N 
ATOM     16  C   UNL     1       2.305  -5.231  -0.921  0.00  0.00    +0.251 C 
ATOM     17  O   UNL     1       1.718  -5.640   0.064  0.00  0.00    -0.270 OA
ATOM     18  H   UNL     1       2.229  -3.925  -2.456  0.00  0.00    +0.150 HD
BRANCH  16  19
ATOM     19  C   UNL     1       3.603  -5.803  -1.292  0.00  0.00    +0.074 A 
ATOM     20  C   UNL     1       4.325  -6.808  -0.667  0.00  0.00    +0.021 A 
ATOM     21  C   UNL     1       5.524  -7.135  -1.254  0.00  0.00    +0.008 A 
ATOM     22  C   UNL     1       5.912  -6.473  -2.373  0.00  0.00    +0.046 A 
ATOM     23  S   UNL     1       4.660  -5.393  -2.667  0.00  0.00    -0.092 S 
ENDBRANCH  16  19
ENDBRANCH   1  15
BRANCH   1  24
ATOM     24  C   UNL     1       0.558  -3.066   0.098  0.00  0.00    +0.065 C 
BRANCH  24  31
ATOM     25  C   UNL     1      -0.070   1.451  -0.410  0.00  0.00    +0.001 A 
ATOM     26  C   UNL     1       1.119   2.192  -0.373  0.00  0.00    +0.002 A 
ATOM     27  C   UNL     1       2.330   1.619  -0.203  0.00  0.00    +0.026 A 
ATOM     28  C   UNL     1       2.443   0.210  -0.052  0.00  0.00    +0.043 A 
ATOM     29  N   UNL     1       3.484  -0.568   0.123  0.00  0.00    -0.380 N 
ATOM     30  C   UNL     1       3.019  -1.957   0.217  0.00  0.00    +0.144 C 
ATOM     31  C   UNL     1       1.515  -1.901   0.072  0.00  0.00    -0.039 C 
ATOM     32  C   UNL     1       1.201  -0.595  -0.087  0.00  0.00    -0.001 A 
ATOM     33  C   UNL     1      -0.074   0.105  -0.276  0.00  0.00    +0.010 A 
ATOM     34  H   UNL     1       4.407  -0.275   0.179  0.00  0.00    +0.160 HD
ENDBRANCH  24  31
ENDBRANCH   1  24
TORSDOF 8
