REMARK  Name = ZINC12498214
REMARK  14 active torsions:
REMARK  status: ('A' for Active; 'I' for Inactive)
REMARK    1  A    between atoms: C_1  and  C_2
REMARK    2  A    between atoms: C_2  and  C_3
REMARK    3  A    between atoms: C_3  and  C_4
REMARK    4  A    between atoms: C_4  and  C_34
REMARK    5  A    between atoms: C_9  and  C_11
REMARK    6  A    between atoms: C_14  and  N_17
REMARK    7  A    between atoms: N_17  and  C_18
REMARK    8  A    between atoms: N_17  and  C_19
REMARK    9  A    between atoms: N_22  and  C_25
REMARK   10  A    between atoms: C_29  and  C_31
REMARK   11  A    between atoms: C_31  and  C_33
REMARK   12  A    between atoms: C_34  and  O_36
REMARK   13  A    between atoms: O_36  and  C_37
REMARK   14  A    between atoms: C_37  and  C_38
REMARK                            x       y       z     vdW  Elec       q    Type
REMARK                         _______ _______ _______ _____ _____    ______ ____
ROOT
ATOM      1  C   UNL     1      -4.615   2.600  -0.016  0.00  0.00    +0.044 C 
ATOM      2  C   UNL     1      -3.883   2.474  -1.330  0.00  0.00    +0.086 C 
ATOM      3  C   UNL     1      -3.156   3.880  -1.310  0.00  0.00    +0.077 C 
ATOM      4  C   UNL     1      -2.554   3.866   0.047  0.00  0.00    -0.027 C 
ATOM      5  C   UNL     1      -2.618   3.887  -2.670  0.00  0.00    +0.229 C 
ATOM      6  O   UNL     1      -1.561   4.354  -3.034  0.00  0.00    -0.275 OA
ATOM      7  N   UNL     1      -3.557   3.244  -3.437  0.00  0.00    -0.210 N 
ATOM      8  C   UNL     1      -4.478   2.566  -2.682  0.00  0.00    +0.229 C 
ATOM      9  O   UNL     1      -5.551   2.134  -3.044  0.00  0.00    -0.275 OA
ATOM     10  N   UNL     1      -3.550   3.137   0.883  0.00  0.00    +0.395 N 
ATOM     11  H   UNL     1      -3.088   2.363   1.376  0.00  0.00    -0.083 HD
ATOM     12  H   UNL     1      -3.965   3.779   1.569  0.00  0.00    -0.083 HD
ENDROOT
BRANCH   4  13
ATOM     13  C   UNL     1      -1.237   3.134   0.031  0.00  0.00    -0.060 A 
ATOM     14  C   UNL     1      -1.217   1.751   0.017  0.00  0.00    +0.004 A 
ATOM     15  C   UNL     1      -0.013   1.076   0.008  0.00  0.00    +0.023 A 
ATOM     16  C   UNL     1       1.180   1.788   0.000  0.00  0.00    +0.029 A 
ATOM     17  C   UNL     1       1.157   3.176   0.008  0.00  0.00    +0.023 A 
ATOM     18  C   UNL     1      -0.051   3.845   0.023  0.00  0.00    +0.004 A 
BRANCH  16  19
ATOM     19  N   UNL     1       2.401   1.108  -0.015  0.00  0.00    -0.336 N 
ATOM     20  C   UNL     1       2.423  -0.357  -0.022  0.00  0.00    +0.129 C 
ATOM     21  C   UNL     1       3.658   1.860  -0.022  0.00  0.00    +0.129 C 
ENDBRANCH  16  19
ENDBRANCH   4  13
BRANCH   7  22
ATOM     22  C   UNL     1      -3.573   3.277  -4.839  0.00  0.00    +0.045 A 
ATOM     23  C   UNL     1      -4.563   2.597  -5.539  0.00  0.00    +0.024 A 
ATOM     24  C   UNL     1      -4.585   2.626  -6.921  0.00  0.00    +0.003 A 
ATOM     25  C   UNL     1      -3.624   3.331  -7.616  0.00  0.00    +0.011 A 
ATOM     26  C   UNL     1      -2.624   4.020  -6.922  0.00  0.00    +0.019 A 
ATOM     27  C   UNL     1      -2.606   3.993  -5.525  0.00  0.00    +0.035 A 
BRANCH  26  28
ATOM     28  C   UNL     1      -1.597   4.773  -7.660  0.00  0.00    +0.160 C 
ATOM     29  O   UNL     1      -0.731   5.369  -7.056  0.00  0.00    -0.292 OA
ATOM     30  C   UNL     1      -1.623   4.804  -9.167  0.00  0.00    +0.091 C 
ENDBRANCH  26  28
ENDBRANCH   7  22
BRANCH   1  31
ATOM     31  C   UNL     1      -5.762   3.571  -0.128  0.00  0.00    +0.297 C 
ATOM     32  O   UNL     1      -6.338   3.706  -1.181  0.00  0.00    -0.252 OA
BRANCH  31  33
ATOM     33  O   UNL     1      -6.142   4.287   0.942  0.00  0.00    -0.466 OA
BRANCH  33  34
ATOM     34  C   UNL     1      -7.254   5.203   0.761  0.00  0.00    +0.228 C 
ATOM     35  C   UNL     1      -7.541   5.924   2.080  0.00  0.00    +0.048 C 
ENDBRANCH  33  34
ENDBRANCH  31  33
ENDBRANCH   1  31
BRANCH   1  36
ATOM     36  C   UNL     1      -5.108   1.234   0.466  0.00  0.00    -0.001 C 
BRANCH  36  38
ATOM     37  C   UNL     1      -6.214   0.009   2.341  0.00  0.00    +0.004 C 
ATOM     38  C   UNL     1      -5.721   1.375   1.860  0.00  0.00    -0.004 C 
ENDBRANCH  36  38
ENDBRANCH   1  36
TORSDOF 9
