REMARK  Name = ZINC39147169
REMARK  7 active torsions:
REMARK  status: ('A' for Active; 'I' for Inactive)
REMARK    1  A    between atoms: C_1  and  C_2
REMARK    2  A    between atoms: C_8  and  C_11
REMARK    3  A    between atoms: C_11  and  C_12
REMARK    4  A    between atoms: C_12  and  N_13
REMARK    5  A    between atoms: C_15  and  C_20
REMARK    6  A    between atoms: N_22  and  C_23
REMARK    7  A    between atoms: C_29  and  C_33
REMARK                            x       y       z     vdW  Elec       q    Type
REMARK                         _______ _______ _______ _____ _____    ______ ____
ROOT
ATOM      1  N   UNL     1       2.745   1.103  -6.445  0.00  0.00    -0.300 N 
ATOM      2  C   UNL     1       3.094   1.372  -7.845  0.00  0.00    +0.121 C 
ATOM      3  C   UNL     1       4.507   0.778  -8.039  0.00  0.00    +0.101 C 
ATOM      4  C   UNL     1       5.067   0.818  -6.598  0.00  0.00    +0.110 C 
ATOM      5  C   UNL     1       3.835   0.800  -5.719  0.00  0.00    +0.216 C 
ATOM      6  O   UNL     1       3.832   0.547  -4.533  0.00  0.00    -0.276 OA
ENDROOT
BRANCH   3   7
ATOM      7  C   UNL     1       5.331   1.637  -8.963  0.00  0.00    +0.220 C 
ATOM      8  O   UNL     1       4.854   2.644  -9.440  0.00  0.00    -0.275 OA
ATOM      9  N   UNL     1       6.598   1.285  -9.259  0.00  0.00    -0.288 N 
ATOM     10  H   UNL     1       6.979   0.479  -8.877  0.00  0.00    +0.151 HD
BRANCH   9  11
ATOM     11  C   UNL     1       7.399   2.120 -10.157  0.00  0.00    +0.224 C 
ATOM     12  N   UNL     1       8.631   1.429 -10.562  0.00  0.00    -0.316 N 
ATOM     13  C   UNL     1       9.845   2.011 -10.200  0.00  0.00    +0.043 A 
ATOM     14  C   UNL     1      11.120   1.497 -10.497  0.00  0.00    +0.024 A 
ATOM     15  C   UNL     1      12.262   2.148 -10.093  0.00  0.00    +0.005 A 
ATOM     16  C   UNL     1      12.196   3.330  -9.379  0.00  0.00    -0.049 A 
ATOM     17  C   UNL     1      10.954   3.859  -9.072  0.00  0.00    +0.020 A 
ATOM     18  C   UNL     1       9.811   3.207  -9.477  0.00  0.00    +0.032 A 
ATOM     19  S   UNL     1       8.082   3.577  -9.271  0.00  0.00    -0.082 S 
ATOM     20  C   UNL     1      13.456   4.031  -8.941  0.00  0.00    +0.044 C 
ATOM     21  H   UNL     1       8.601   0.599 -11.064  0.00  0.00    +0.149 HD
ENDBRANCH   9  11
ENDBRANCH   3   7
BRANCH   1  22
ATOM     22  C   UNL     1       1.384   1.162  -5.906  0.00  0.00    +0.112 C 
BRANCH  22  23
ATOM     23  C   UNL     1       1.093   2.580  -5.410  0.00  0.00    +0.056 C 
BRANCH  23  31
ATOM     24  C   UNL     1      -0.013   1.086   0.008  0.00  0.00    +0.044 C 
ATOM     25  C   UNL     1      -0.742   1.585  -1.213  0.00  0.00    -0.050 A 
ATOM     26  C   UNL     1      -2.112   1.796  -1.158  0.00  0.00    +0.005 A 
ATOM     27  C   UNL     1      -2.798   2.251  -2.263  0.00  0.00    +0.026 A 
ATOM     28  C   UNL     1      -2.112   2.504  -3.446  0.00  0.00    +0.047 A 
ATOM     29  N   UNL     1      -2.498   2.952  -4.689  0.00  0.00    -0.360 N 
ATOM     30  C   UNL     1      -1.411   3.028  -5.516  0.00  0.00    +0.087 A 
ATOM     31  C   UNL     1      -0.307   2.641  -4.856  0.00  0.00    -0.021 A 
ATOM     32  C   UNL     1      -0.722   2.289  -3.496  0.00  0.00    +0.003 A 
ATOM     33  C   UNL     1      -0.047   1.832  -2.363  0.00  0.00    +0.013 A 
ATOM     34  H   UNL     1      -3.407   3.180  -4.942  0.00  0.00    +0.165 HD
ENDBRANCH  23  31
ENDBRANCH  22  23
ENDBRANCH   1  22
TORSDOF 5
