REMARK  Name = ZINC45971259
REMARK  7 active torsions:
REMARK  status: ('A' for Active; 'I' for Inactive)
REMARK    1  A    between atoms: C_1  and  C_2
REMARK    2  A    between atoms: C_5  and  C_8
REMARK    3  A    between atoms: C_14  and  S_20
REMARK    4  A    between atoms: S_20  and  C_21
REMARK    5  A    between atoms: C_21  and  C_22
REMARK    6  A    between atoms: N_24  and  C_25
REMARK    7  A    between atoms: C_28  and  C_31
REMARK                            x       y       z     vdW  Elec       q    Type
REMARK                         _______ _______ _______ _____ _____    ______ ____
ROOT
ATOM      1  C   UNL     1       0.091  -4.255  -0.020  0.00  0.00    +0.094 A 
ATOM      2  C   UNL     1       0.104  -5.081   1.113  0.00  0.00    +0.061 A 
ATOM      3  C   UNL     1       0.111  -6.385   0.676  0.00  0.00    +0.112 A 
ATOM      4  C   UNL     1       0.124  -7.683   1.358  0.00  0.00    +0.187 A 
ATOM      5  N   UNL     1       0.134  -8.063   2.613  0.00  0.00    -0.126 NA
ATOM      6  N   UNL     1       0.143  -9.349   2.678  0.00  0.00    -0.122 NA
ATOM      7  C   UNL     1       0.140  -9.866   1.468  0.00  0.00    +0.196 A 
ATOM      8  N   UNL     1       0.128  -8.828   0.586  0.00  0.00    -0.274 N 
ATOM      9  C   UNL     1       0.119  -8.729  -0.793  0.00  0.00    +0.115 A 
ATOM     10  C   UNL     1       0.108  -7.552  -1.405  0.00  0.00    +0.131 A 
ATOM     11  N   UNL     1       0.102  -6.362  -0.696  0.00  0.00    -0.234 N 
ATOM     12  N   UNL     1       0.085  -5.020  -1.096  0.00  0.00    -0.166 NA
ENDROOT
BRANCH   1  17
ATOM     13  C   UNL     1       0.043   1.504   0.012  0.00  0.00    +0.044 C 
ATOM     14  C   UNL     1       0.056  -0.003   0.004  0.00  0.00    -0.050 A 
ATOM     15  C   UNL     1       0.050  -0.685  -1.200  0.00  0.00    +0.004 A 
ATOM     16  C   UNL     1       0.061  -2.066  -1.213  0.00  0.00    +0.010 A 
ATOM     17  C   UNL     1       0.079  -2.771  -0.012  0.00  0.00    +0.002 A 
ATOM     18  C   UNL     1       0.086  -2.079   1.197  0.00  0.00    +0.010 A 
ATOM     19  C   UNL     1       0.080  -0.699   1.199  0.00  0.00    +0.004 A 
ENDBRANCH   1  17
BRANCH   7  20
ATOM     20  S   UNL     1       0.150 -11.581   1.064  0.00  0.00    -0.076 S 
BRANCH  20  21
ATOM     21  C   UNL     1       0.165 -12.411   2.676  0.00  0.00    +0.173 C 
BRANCH  21  22
ATOM     22  C   UNL     1       0.174 -13.904   2.472  0.00  0.00    +0.227 C 
ATOM     23  O   UNL     1       0.171 -14.363   1.349  0.00  0.00    -0.275 OA
ATOM     24  N   UNL     1       0.186 -14.730   3.537  0.00  0.00    -0.285 N 
ATOM     25  H   UNL     1       0.256 -14.365   4.433  0.00  0.00    +0.155 HD
BRANCH  24  26
ATOM     26  C   UNL     1       0.097 -16.114   3.350  0.00  0.00    +0.033 A 
ATOM     27  C   UNL     1      -0.595 -16.897   4.265  0.00  0.00    +0.023 A 
ATOM     28  C   UNL     1      -0.681 -18.262   4.078  0.00  0.00    +0.005 A 
ATOM     29  C   UNL     1      -0.079 -18.851   2.981  0.00  0.00    -0.050 A 
ATOM     30  C   UNL     1       0.611 -18.074   2.068  0.00  0.00    +0.005 A 
ATOM     31  C   UNL     1       0.696 -16.707   2.246  0.00  0.00    +0.023 A 
ATOM     32  C   UNL     1      -0.174 -20.341   2.780  0.00  0.00    +0.044 C 
ENDBRANCH  24  26
ENDBRANCH  21  22
ENDBRANCH  20  21
ENDBRANCH   7  20
TORSDOF 5
