REMARK  Name = ZINC67298141
REMARK  3 active torsions:
REMARK  status: ('A' for Active; 'I' for Inactive)
REMARK    1  A    between atoms: C_3  and  O_28
REMARK    2  A    between atoms: C_8  and  C_20
REMARK    3  A    between atoms: N_10  and  C_11
REMARK                            x       y       z     vdW  Elec       q    Type
REMARK                         _______ _______ _______ _____ _____    ______ ____
ROOT
ATOM      1  C   UNL     1      -0.467   1.336  -0.208  0.00  0.00    +0.015 A 
ATOM      2  C   UNL     1       0.577   2.215  -0.217  0.00  0.00    +0.046 A 
ATOM      3  C   UNL     1       1.890   1.752  -0.159  0.00  0.00    +0.120 A 
ATOM      4  C   UNL     1       2.155   0.392  -0.105  0.00  0.00    +0.092 A 
ATOM      5  C   UNL     1       1.107  -0.514  -0.102  0.00  0.00    +0.141 A 
ATOM      6  C   UNL     1      -0.220  -0.042  -0.130  0.00  0.00    +0.018 A 
ATOM      7  C   UNL     1      -1.297  -0.963  -0.084  0.00  0.00    +0.030 A 
ATOM      8  C   UNL     1      -1.012  -2.292   0.197  0.00  0.00    +0.098 A 
ATOM      9  C   UNL     1       0.398  -2.642   0.461  0.00  0.00    +0.212 A 
ATOM     10  N   UNL     1       0.714  -3.686   1.195  0.00  0.00    -0.325 N 
ATOM     11  O   UNL     1       1.356  -1.846  -0.081  0.00  0.00    -0.438 OA
ATOM     12  H   UNL     1       0.015  -4.242   1.574  0.00  0.00    +0.169 HD
ENDROOT
BRANCH   8  13
ATOM     13  C   UNL     1      -2.073  -3.311   0.231  0.00  0.00    +0.255 C 
ATOM     14  O   UNL     1      -1.783  -4.487   0.350  0.00  0.00    -0.270 OA
ATOM     15  N   UNL     1      -3.365  -2.943   0.130  0.00  0.00    -0.261 N 
ATOM     16  C   UNL     1      -4.370  -3.893   0.260  0.00  0.00    +0.165 A 
ATOM     17  N   UNL     1      -4.251  -5.183   0.487  0.00  0.00    -0.233 NA
ATOM     18  C   UNL     1      -5.314  -5.959   0.586  0.00  0.00    +0.120 A 
ATOM     19  C   UNL     1      -6.525  -5.367   0.442  0.00  0.00    +0.068 A 
ATOM     20  S   UNL     1      -6.036  -3.671   0.172  0.00  0.00    -0.061 S 
ATOM     21  H   UNL     1      -3.593  -2.014  -0.034  0.00  0.00    +0.157 HD
ENDBRANCH   8  13
BRANCH  10  22
ATOM     22  C   UNL     1       2.029  -3.988   1.424  0.00  0.00    +0.043 A 
ATOM     23  C   UNL     1       2.950  -3.952   0.374  0.00  0.00    +0.028 A 
ATOM     24  C   UNL     1       4.274  -4.258   0.611  0.00  0.00    +0.042 A 
ATOM     25  C   UNL     1       4.692  -4.600   1.886  0.00  0.00    +0.142 A 
ATOM     26  C   UNL     1       3.783  -4.638   2.933  0.00  0.00    +0.078 A 
ATOM     27  C   UNL     1       2.456  -4.328   2.709  0.00  0.00    +0.048 A 
ATOM     28 CL   UNL     1       4.316  -5.069   4.528  0.00  0.00    -0.081 Cl
ATOM     29  F   UNL     1       5.990  -4.899   2.111  0.00  0.00    -0.204 F 
ENDBRANCH  10  22
BRANCH   3  30
ATOM     30  O   UNL     1       2.917   2.639  -0.155  0.00  0.00    -0.507 OA
ATOM     31  H   UNL     1       3.186   2.926   0.729  0.00  0.00    +0.292 HD
ENDBRANCH   3  30
TORSDOF 3
