REMARK  Name = ZINC33694675
REMARK  11 active torsions:
REMARK  status: ('A' for Active; 'I' for Inactive)
REMARK    1  A    between atoms: C_1  and  C_2
REMARK    2  A    between atoms: C_5  and  C_7
REMARK    3  A    between atoms: C_7  and  N_8
REMARK    4  A    between atoms: N_8  and  C_9
REMARK    5  A    between atoms: C_9  and  C_10
REMARK    6  A    between atoms: C_19  and  C_21
REMARK    7  A    between atoms: C_21  and  N_22
REMARK    8  A    between atoms: N_22  and  C_23
REMARK    9  A    between atoms: C_23  and  C_24
REMARK   10  A    between atoms: C_26  and  C_28
REMARK   11  A    between atoms: C_31  and  C_34
REMARK                            x       y       z     vdW  Elec       q    Type
REMARK                         _______ _______ _______ _____ _____    ______ ____
ROOT
ATOM      1  N   UNL     1       2.606   3.494   0.368  0.00  0.00    -0.289 N 
ATOM      2  C   UNL     1       3.544   3.428   1.334  0.00  0.00    +0.234 C 
ATOM      3  O   UNL     1       3.231   3.587   2.495  0.00  0.00    -0.274 OA
ENDROOT
BRANCH   1   4
ATOM      4  C   UNL     1       2.985   3.302  -1.034  0.00  0.00    +0.182 C 
BRANCH   4   9
ATOM      5  C   UNL     1       3.902  -1.579  -1.915  0.00  0.00    +0.086 C 
ATOM      6  C   UNL     1       3.177  -0.263  -1.801  0.00  0.00    +0.102 A 
ATOM      7  C   UNL     1       1.879  -0.053  -2.085  0.00  0.00    +0.045 A 
ATOM      8  C   UNL     1       1.622   1.315  -1.838  0.00  0.00    +0.046 A 
ATOM      9  C   UNL     1       2.778   1.859  -1.417  0.00  0.00    +0.122 A 
ATOM     10  O   UNL     1       3.716   0.899  -1.397  0.00  0.00    -0.463 OA
ENDBRANCH   4   9
ENDBRANCH   1   4
BRANCH   1  11
ATOM     11  C   UNL     1       1.209   3.756   0.721  0.00  0.00    +0.143 C 
BRANCH  11  12
ATOM     12  C   UNL     1       0.927   5.231   0.591  0.00  0.00    -0.026 A 
ATOM     13  C   UNL     1       1.204   6.081   1.645  0.00  0.00    +0.009 A 
ATOM     14  C   UNL     1       0.953   7.436   1.529  0.00  0.00    +0.050 A 
ATOM     15  C   UNL     1       0.410   7.942   0.359  0.00  0.00    +0.166 A 
ATOM     16  C   UNL     1       0.125   7.085  -0.701  0.00  0.00    +0.167 A 
ATOM     17  C   UNL     1       0.386   5.730  -0.579  0.00  0.00    +0.054 A 
ATOM     18  O   UNL     1      -0.396   7.818  -1.727  0.00  0.00    -0.453 OA
ATOM     19  C   UNL     1      -0.807   9.066  -1.138  0.00  0.00    +0.466 C 
ATOM     20  O   UNL     1       0.067   9.213  -0.003  0.00  0.00    -0.453 OA
ENDBRANCH  11  12
ENDBRANCH   1  11
BRANCH   2  21
ATOM     21  C   UNL     1       4.982   3.158   0.972  0.00  0.00    +0.204 C 
BRANCH  21  22
ATOM     22  N   UNL     1       5.796   3.136   2.189  0.00  0.00    -0.285 N 
ATOM     23  C   UNL     1       6.542   4.209   2.521  0.00  0.00    +0.247 C 
ATOM     24  O   UNL     1       7.243   4.179   3.513  0.00  0.00    -0.270 OA
BRANCH  23  25
ATOM     25  C   UNL     1       6.508   5.421   1.677  0.00  0.00    +0.037 A 
ATOM     26  C   UNL     1       5.405   5.670   0.856  0.00  0.00    +0.013 A 
ATOM     27  C   UNL     1       5.372   6.803   0.074  0.00  0.00    +0.009 A 
ATOM     28  C   UNL     1       6.443   7.696   0.093  0.00  0.00    -0.018 A 
ATOM     29  C   UNL     1       7.547   7.446   0.909  0.00  0.00    +0.009 A 
ATOM     30  C   UNL     1       7.580   6.316   1.696  0.00  0.00    +0.013 A 
BRANCH  28  31
ATOM     31  C   UNL     1       6.409   8.913  -0.753  0.00  0.00    -0.018 A 
ATOM     32  C   UNL     1       7.475   9.811  -0.732  0.00  0.00    +0.008 A 
ATOM     33  C   UNL     1       7.440  10.939  -1.525  0.00  0.00    +0.001 A 
ATOM     34  C   UNL     1       6.345  11.185  -2.334  0.00  0.00    +0.000 A 
ATOM     35  C   UNL     1       5.281  10.300  -2.356  0.00  0.00    +0.001 A 
ATOM     36  C   UNL     1       5.308   9.166  -1.570  0.00  0.00    +0.008 A 
ENDBRANCH  28  31
ENDBRANCH  23  25
BRANCH  22  37
ATOM     37  C   UNL     1       5.800   1.948   3.047  0.00  0.00    +0.135 C 
BRANCH  37  38
ATOM     38  C   UNL     1       6.965   1.066   2.677  0.00  0.00    -0.016 C 
ATOM     39  C   UNL     1       7.846   0.730   3.586  0.00  0.00    +0.005 C 
ENDBRANCH  37  38
ENDBRANCH  22  37
ENDBRANCH  21  22
ENDBRANCH   2  21
TORSDOF 10
