REMARK  Name = ZINC38743208
REMARK  4 active torsions:
REMARK  status: ('A' for Active; 'I' for Inactive)
REMARK    1  A    between atoms: C_4  and  C_7
REMARK    2  A    between atoms: C_9  and  C_17
REMARK    3  A    between atoms: C_21  and  C_26
REMARK    4  A    between atoms: C_29  and  C_32
REMARK                            x       y       z     vdW  Elec       q    Type
REMARK                         _______ _______ _______ _____ _____    ______ ____
ROOT
ATOM      1  C   UNL     1       4.917  -4.273  -0.080  0.00  0.00    +0.183 C 
ATOM      2  N   UNL     1       3.550  -4.848  -0.202  0.00  0.00    -0.263 N 
ATOM      3  N   UNL     1       3.342  -5.993   0.507  0.00  0.00    -0.222 N 
ATOM      4  C   UNL     1       2.457  -7.056   0.483  0.00  0.00    +0.181 A 
ATOM      5  N   UNL     1       2.747  -7.843   1.477  0.00  0.00    -0.129 NA
ATOM      6  N   UNL     1       3.755  -7.379   2.127  0.00  0.00    -0.121 NA
ATOM      7  C   UNL     1       4.159  -6.280   1.571  0.00  0.00    +0.211 A 
ATOM      8  S   UNL     1       5.355  -4.959   1.576  0.00  0.00    -0.056 S 
ATOM      9  H   UNL     1       2.847  -4.156   0.013  0.00  0.00    +0.168 HD
ENDROOT
BRANCH   1  12
ATOM     10  C   UNL     1       3.763  -0.683  -0.427  0.00  0.00    +0.072 A 
ATOM     11  C   UNL     1       3.768  -2.087  -0.449  0.00  0.00    +0.035 A 
ATOM     12  C   UNL     1       4.886  -2.767  -0.066  0.00  0.00    -0.004 A 
ATOM     13  C   UNL     1       6.012  -2.025   0.343  0.00  0.00    +0.006 A 
ATOM     14  C   UNL     1       7.195  -2.661   0.749  0.00  0.00    +0.010 A 
ATOM     15  C   UNL     1       8.264  -1.912   1.138  0.00  0.00    +0.001 A 
ATOM     16  C   UNL     1       8.199  -0.520   1.139  0.00  0.00    +0.002 A 
ATOM     17  C   UNL     1       7.068   0.130   0.751  0.00  0.00    +0.028 A 
ATOM     18  C   UNL     1       5.943  -0.609   0.343  0.00  0.00    +0.072 A 
ATOM     19  N   UNL     1       4.823   0.004  -0.048  0.00  0.00    -0.247 NA
BRANCH  10  23
ATOM     20  C   UNL     1       0.257   1.400  -1.629  0.00  0.00    +0.000 A 
ATOM     21  C   UNL     1       1.376   2.108  -1.228  0.00  0.00    +0.001 A 
ATOM     22  C   UNL     1       2.517   1.437  -0.837  0.00  0.00    +0.010 A 
ATOM     23  C   UNL     1       2.540   0.043  -0.846  0.00  0.00    +0.000 A 
ATOM     24  C   UNL     1       1.410  -0.665  -1.251  0.00  0.00    +0.010 A 
ATOM     25  C   UNL     1       0.275   0.017  -1.640  0.00  0.00    +0.001 A 
ENDBRANCH  10  23
ENDBRANCH   1  12
BRANCH   4  26
ATOM     26  C   UNL     1       1.351  -7.266  -0.519  0.00  0.00    +0.222 C 
ATOM     27  C   UNL     1      -0.004  -7.008   0.117  0.00  0.00    +0.039 C 
ATOM     28  C   UNL     1      -0.638  -8.193   0.016  0.00  0.00    +0.091 C 
ATOM     29  N   UNL     1       0.162  -9.108  -0.591  0.00  0.00    -0.153 NA
ATOM     30  N   UNL     1       1.274  -8.680  -0.921  0.00  0.00    -0.171 NA
BRANCH  28  31
ATOM     31  C   UNL     1      -2.014  -8.460   0.502  0.00  0.00    +0.002 A 
ATOM     32  C   UNL     1      -2.751  -7.445   1.108  0.00  0.00    +0.010 A 
ATOM     33  C   UNL     1      -4.031  -7.699   1.557  0.00  0.00    +0.001 A 
ATOM     34  C   UNL     1      -4.583  -8.959   1.406  0.00  0.00    +0.000 A 
ATOM     35  C   UNL     1      -3.856  -9.970   0.805  0.00  0.00    +0.001 A 
ATOM     36  C   UNL     1      -2.577  -9.726   0.347  0.00  0.00    +0.010 A 
ENDBRANCH  28  31
ENDBRANCH   4  26
TORSDOF 4
