REMARK  Name = ZINC52094851
REMARK  4 active torsions:
REMARK  status: ('A' for Active; 'I' for Inactive)
REMARK    1  A    between atoms: C_2  and  C_14
REMARK    2  A    between atoms: C_14  and  C_16
REMARK    3  A    between atoms: C_14  and  O_23
REMARK    4  A    between atoms: C_16  and  C_17
REMARK                            x       y       z     vdW  Elec       q    Type
REMARK                         _______ _______ _______ _____ _____    ______ ____
ROOT
ATOM      1  C   UNL     1      -0.017   1.382   0.010  0.00  0.00    +0.035 A 
ATOM      2  C   UNL     1       1.172   2.086   0.002  0.00  0.00    -0.003 A 
ATOM      3  C   UNL     1       2.382   1.413  -0.013  0.00  0.00    +0.026 A 
ATOM      4  C   UNL     1       2.410   0.031  -0.021  0.00  0.00    +0.043 A 
ATOM      5  C   UNL     1       1.222  -0.683  -0.013  0.00  0.00    +0.068 A 
ATOM      6  C   UNL     1       0.002  -0.004   0.002  0.00  0.00    +0.067 A 
ATOM      7  N   UNL     1      -0.998  -0.974   0.006  0.00  0.00    -0.306 N 
ATOM      8  H   UNL     1      -1.953  -0.804   0.016  0.00  0.00    +0.170 HD
ATOM      9  C   UNL     1      -0.413  -2.186  -0.006  0.00  0.00    +0.325 A 
ATOM     10  O   UNL     1      -1.005  -3.250  -0.005  0.00  0.00    -0.247 OA
ATOM     11  N   UNL     1       0.925  -2.044  -0.018  0.00  0.00    -0.306 N 
ATOM     12  H   UNL     1       1.573  -2.767  -0.028  0.00  0.00    +0.170 HD
ATOM     13 BR   UNL     1       4.002   2.388  -0.024  0.00  0.00    -0.050 Br
ENDROOT
BRANCH   2  14
ATOM     14  C   UNL     1       1.151   3.593   0.010  0.00  0.00    +0.146 C 
BRANCH  14  15
ATOM     15  O   UNL     1      -0.071   4.050   0.593  0.00  0.00    -0.387 OA
ATOM     16  H   UNL     1      -0.864   3.756   0.124  0.00  0.00    +0.210 HD
ENDBRANCH  14  15
BRANCH  14  17
ATOM     17  C   UNL     1       1.257   4.112  -1.426  0.00  0.00    +0.039 C 
BRANCH  17  18
ATOM     18  C   UNL     1       1.361   5.638  -1.410  0.00  0.00    -0.008 C 
ATOM     19  C   UNL     1       2.669   6.053  -0.733  0.00  0.00    +0.003 C 
ATOM     20  C   UNL     1       2.774   7.579  -0.717  0.00  0.00    +0.000 C 
ATOM     21  C   UNL     1       2.754   8.106  -2.153  0.00  0.00    +0.000 C 
ATOM     22  C   UNL     1       1.446   7.692  -2.830  0.00  0.00    +0.000 C 
ATOM     23  C   UNL     1       1.341   6.166  -2.846  0.00  0.00    +0.003 C 
ENDBRANCH  17  18
ENDBRANCH  14  17
ENDBRANCH   2  14
TORSDOF 4
