REMARK  Name = ZINC39607177
REMARK  9 active torsions:
REMARK  status: ('A' for Active; 'I' for Inactive)
REMARK    1  A    between atoms: C_1  and  C_2
REMARK    2  A    between atoms: C_5  and  C_9
REMARK    3  A    between atoms: C_6  and  C_8
REMARK    4  A    between atoms: C_9  and  N_10
REMARK    5  A    between atoms: C_11  and  C_13
REMARK    6  A    between atoms: C_24  and  C_26
REMARK    7  A    between atoms: C_27  and  C_37
REMARK    8  A    between atoms: C_30  and  C_31
REMARK    9  A    between atoms: C_33  and  C_36
REMARK                            x       y       z     vdW  Elec       q    Type
REMARK                         _______ _______ _______ _____ _____    ______ ____
ROOT
ATOM      1  C   UNL     1      -2.909  -6.633   0.512  0.00  0.00    +0.100 C 
ATOM      2  C   UNL     1      -3.887  -6.094  -0.557  0.00  0.00    +0.121 C 
ATOM      3  N   UNL     1      -3.943  -7.160  -1.585  0.00  0.00    -0.296 N 
ATOM      4  C   UNL     1      -3.935  -8.422  -0.807  0.00  0.00    +0.115 C 
ATOM      5  C   UNL     1      -2.946  -8.161   0.346  0.00  0.00    -0.004 C 
ATOM      6  C   UNL     1      -1.561  -8.687  -0.019  0.00  0.00    -0.010 C 
ATOM      7  C   UNL     1      -1.611 -10.213  -0.122  0.00  0.00    -0.082 C 
ATOM      8  N   UNL     1      -2.049 -10.778   1.160  0.00  0.00    +0.379 N 
ATOM      9  C   UNL     1      -3.418 -10.342   1.459  0.00  0.00    -0.082 C 
ATOM     10  C   UNL     1      -3.445  -8.820   1.629  0.00  0.00    -0.010 C 
ATOM     11  C   UNL     1      -3.990  -7.015  -2.924  0.00  0.00    +0.252 C 
ATOM     12  O   UNL     1      -4.033  -7.996  -3.641  0.00  0.00    -0.270 OA
ATOM     13  H   UNL     1      -2.022 -11.786   1.109  0.00  0.00    -0.086 HD
ATOM     14  H   UNL     1      -1.430 -10.465   1.893  0.00  0.00    -0.086 HD
ENDROOT
BRANCH  11  15
ATOM     15  C   UNL     1      -3.989  -5.668  -3.519  0.00  0.00    +0.108 A 
ATOM     16  C   UNL     1      -2.849  -4.921  -3.906  0.00  0.00    +0.093 A 
ATOM     17  N   UNL     1      -3.254  -3.784  -4.388  0.00  0.00    -0.082 NA
ATOM     18  O   UNL     1      -4.667  -3.741  -4.335  0.00  0.00    -0.352 OA
ATOM     19  C   UNL     1      -5.105  -4.896  -3.810  0.00  0.00    +0.201 A 
ATOM     20  C   UNL     1      -1.415  -5.368  -3.781  0.00  0.00    +0.070 C 
BRANCH  19  21
ATOM     21  C   UNL     1      -6.516  -5.274  -3.581  0.00  0.00    +0.152 A 
ATOM     22  C   UNL     1      -7.653  -4.485  -3.885  0.00  0.00    +0.079 A 
ATOM     23  C   UNL     1      -8.748  -5.178  -3.529  0.00  0.00    +0.135 A 
ATOM     24  O   UNL     1      -8.355  -6.356  -3.020  0.00  0.00    -0.359 OA
ATOM     25  N   UNL     1      -6.940  -6.404  -3.064  0.00  0.00    -0.075 NA
ATOM     26  C   UNL     1     -10.174  -4.713  -3.676  0.00  0.00    +0.089 C 
ENDBRANCH  19  21
ENDBRANCH  11  15
BRANCH   1  28
ATOM     27  N   UNL     1      -0.657  -5.966   1.286  0.00  0.00    -0.311 N 
ATOM     28  C   UNL     1      -1.518  -6.111   0.260  0.00  0.00    +0.218 C 
ATOM     29  O   UNL     1      -1.174  -5.821  -0.866  0.00  0.00    -0.275 OA
ATOM     30  H   UNL     1      -0.932  -6.197   2.187  0.00  0.00    +0.149 HD
BRANCH  27  31
ATOM     31  C   UNL     1       0.696  -5.459   1.042  0.00  0.00    +0.139 C 
BRANCH  31  36
ATOM     32  C   UNL     1       3.587  -5.205   6.038  0.00  0.00    +0.044 C 
ATOM     33  C   UNL     1       2.833  -5.271   4.735  0.00  0.00    -0.050 A 
ATOM     34  C   UNL     1       2.272  -4.126   4.203  0.00  0.00    +0.004 A 
ATOM     35  C   UNL     1       1.580  -4.186   3.008  0.00  0.00    +0.006 A 
ATOM     36  C   UNL     1       1.450  -5.393   2.344  0.00  0.00    -0.027 A 
ATOM     37  C   UNL     1       2.013  -6.538   2.876  0.00  0.00    -0.046 A 
ATOM     38  C   UNL     1       2.708  -6.476   4.070  0.00  0.00    +0.007 A 
ATOM     39  C   UNL     1       1.871  -7.852   2.154  0.00  0.00    +0.044 C 
ENDBRANCH  31  36
ENDBRANCH  27  31
ENDBRANCH   1  28
TORSDOF 5
