REMARK  Name = ZINC34869252
REMARK  14 active torsions:
REMARK  status: ('A' for Active; 'I' for Inactive)
REMARK    1  A    between atoms: C_1  and  C_2
REMARK    2  A    between atoms: C_2  and  C_3
REMARK    3  A    between atoms: C_3  and  C_4
REMARK    4  A    between atoms: C_4  and  N_5
REMARK    5  A    between atoms: N_5  and  C_6
REMARK    6  A    between atoms: N_5  and  S_10
REMARK    7  A    between atoms: C_6  and  C_7
REMARK    8  A    between atoms: C_7  and  C_8
REMARK    9  A    between atoms: C_8  and  C_9
REMARK   10  A    between atoms: S_10  and  C_13
REMARK   11  A    between atoms: C_16  and  C_19
REMARK   12  A    between atoms: C_19  and  N_21
REMARK   13  A    between atoms: N_23  and  C_32
REMARK   14  A    between atoms: C_32  and  C_33
REMARK                            x       y       z     vdW  Elec       q    Type
REMARK                         _______ _______ _______ _____ _____    ______ ____
ROOT
ATOM      1  C   UNL     1      -4.312  -1.539   2.060  0.00  0.00    +0.106 A 
ATOM      2  C   UNL     1      -3.627  -0.665   2.884  0.00  0.00    +0.029 A 
ATOM      3  C   UNL     1      -4.252   0.467   3.366  0.00  0.00    +0.015 A 
ATOM      4  C   UNL     1      -5.578   0.729   3.020  0.00  0.00    +0.039 A 
ATOM      5  C   UNL     1      -6.263  -0.157   2.189  0.00  0.00    +0.015 A 
ATOM      6  C   UNL     1      -5.626  -1.282   1.709  0.00  0.00    +0.029 A 
ENDROOT
BRANCH   1   7
ATOM      7  S   UNL     1      -3.507  -2.982   1.448  0.00  0.00    +0.061 S 
ATOM      8  O   UNL     1      -4.530  -3.917   1.135  0.00  0.00    -0.153 OA
ATOM      9  O   UNL     1      -2.458  -3.279   2.359  0.00  0.00    -0.153 OA
BRANCH   7  10
ATOM     10  N   UNL     1      -2.787  -2.571   0.015  0.00  0.00    -0.177 NA
BRANCH  10  11
ATOM     11  C   UNL     1      -1.413  -2.063   0.004  0.00  0.00    +0.109 C 
BRANCH  11  12
ATOM     12  C   UNL     1      -1.433  -0.534   0.013  0.00  0.00    +0.017 C 
BRANCH  12  14
ATOM     13  C   UNL     1      -0.019   1.526   0.010  0.00  0.00    +0.004 C 
ATOM     14  C   UNL     1       0.002  -0.004   0.002  0.00  0.00    -0.002 C 
ENDBRANCH  12  14
ENDBRANCH  11  12
ENDBRANCH  10  11
BRANCH  10  15
ATOM     15  C   UNL     1      -3.525  -2.714  -1.243  0.00  0.00    +0.109 C 
BRANCH  15  16
ATOM     16  C   UNL     1      -3.187  -4.063  -1.881  0.00  0.00    +0.017 C 
BRANCH  16  17
ATOM     17  C   UNL     1      -3.958  -4.212  -3.195  0.00  0.00    -0.002 C 
ATOM     18  C   UNL     1      -3.620  -5.561  -3.833  0.00  0.00    +0.004 C 
ENDBRANCH  16  17
ENDBRANCH  15  16
ENDBRANCH  10  15
ENDBRANCH   7  10
ENDBRANCH   1   7
BRANCH   4  19
ATOM     19  C   UNL     1      -6.255   1.942   3.534  0.00  0.00    +0.269 C 
ATOM     20  O   UNL     1      -5.653   2.713   4.261  0.00  0.00    -0.268 OA
BRANCH  19  21
ATOM     21  N   UNL     1      -7.525   2.190   3.202  0.00  0.00    -0.152 NA
ATOM     22  C   UNL     1      -8.133   3.278   3.663  0.00  0.00    +0.167 A 
ATOM     23  N   UNL     1      -9.409   3.680   3.433  0.00  0.00    -0.317 N 
ATOM     24  C   UNL     1      -9.874   4.851   4.002  0.00  0.00    +0.058 A 
ATOM     25  C   UNL     1     -11.140   5.444   3.897  0.00  0.00    +0.028 A 
ATOM     26  C   UNL     1     -11.415   6.626   4.545  0.00  0.00    +0.022 A 
ATOM     27  C   UNL     1     -10.455   7.263   5.316  0.00  0.00    +0.042 A 
ATOM     28  C   UNL     1      -9.196   6.697   5.434  0.00  0.00    +0.037 A 
ATOM     29  C   UNL     1      -8.921   5.515   4.787  0.00  0.00    +0.040 A 
ATOM     30  S   UNL     1      -7.497   4.465   4.669  0.00  0.00    -0.052 S 
ATOM     31 CL   UNL     1     -10.825   8.754   6.123  0.00  0.00    -0.084 Cl
BRANCH  23  32
ATOM     32  C   UNL     1     -10.291   2.875   2.584  0.00  0.00    +0.151 C 
BRANCH  32  33
ATOM     33  C   UNL     1     -11.029   1.872   3.434  0.00  0.00    -0.013 C 
ATOM     34  C   UNL     1     -12.337   1.825   3.404  0.00  0.00    +0.005 C 
ENDBRANCH  32  33
ENDBRANCH  23  32
ENDBRANCH  19  21
ENDBRANCH   4  19
TORSDOF 12
