REMARK  Name = ZINC12747256
REMARK  8 active torsions:
REMARK  status: ('A' for Active; 'I' for Inactive)
REMARK    1  A    between atoms: C_1  and  C_2
REMARK    2  A    between atoms: C_2  and  C_4
REMARK    3  A    between atoms: C_2  and  S_17
REMARK    4  A    between atoms: N_6  and  C_7
REMARK    5  A    between atoms: C_10  and  S_13
REMARK    6  A    between atoms: S_13  and  N_16
REMARK    7  A    between atoms: S_17  and  C_18
REMARK    8  A    between atoms: C_20  and  C_23
REMARK                            x       y       z     vdW  Elec       q    Type
REMARK                         _______ _______ _______ _____ _____    ______ ____
ROOT
ATOM      1  C   UNL     1      -3.559   6.411  -0.054  0.00  0.00    +0.230 C 
ATOM      2  O   UNL     1      -2.988   7.442   0.234  0.00  0.00    -0.274 OA
ATOM      3  N   UNL     1      -4.842   6.444  -0.465  0.00  0.00    -0.285 N 
ATOM      4  H   UNL     1      -5.278   5.628  -0.758  0.00  0.00    +0.155 HD
ENDROOT
BRANCH   3   5
ATOM      5  C   UNL     1      -5.546   7.653  -0.467  0.00  0.00    +0.034 A 
ATOM      6  C   UNL     1      -6.903   7.669  -0.172  0.00  0.00    +0.025 A 
ATOM      7  C   UNL     1      -7.593   8.866  -0.169  0.00  0.00    +0.030 A 
ATOM      8  C   UNL     1      -6.937  10.045  -0.471  0.00  0.00    +0.105 A 
ATOM      9  C   UNL     1      -5.587  10.031  -0.771  0.00  0.00    +0.030 A 
ATOM     10  C   UNL     1      -4.890   8.839  -0.770  0.00  0.00    +0.025 A 
BRANCH   8  11
ATOM     11  S   UNL     1      -7.823  11.568  -0.474  0.00  0.00    +0.056 S 
ATOM     12  O   UNL     1      -8.950  11.383   0.372  0.00  0.00    -0.153 OA
ATOM     13  O   UNL     1      -6.866  12.595  -0.254  0.00  0.00    -0.153 OA
BRANCH  11  14
ATOM     14  N   UNL     1      -8.412  11.789  -2.006  0.00  0.00    -0.204 NA
ATOM     15  H   UNL     1      -8.234  11.129  -2.694  0.00  0.00    +0.144 HD
ATOM     16  H   UNL     1      -8.934  12.580  -2.215  0.00  0.00    +0.144 HD
ENDBRANCH  11  14
ENDBRANCH   8  11
ENDBRANCH   3   5
BRANCH   1  18
ATOM     17  C   UNL     1      -3.228   4.394   1.350  0.00  0.00    +0.029 C 
ATOM     18  C   UNL     1      -2.833   5.095   0.048  0.00  0.00    +0.136 C 
BRANCH  18  19
ATOM     19  S   UNL     1      -1.047   5.388   0.038  0.00  0.00    -0.086 S 
BRANCH  19  20
ATOM     20  C   UNL     1      -0.465   3.725   0.013  0.00  0.00    +0.136 A 
ATOM     21  N   UNL     1       0.777   3.275  -0.002  0.00  0.00    -0.233 NA
ATOM     22  C   UNL     1       1.036   1.970  -0.020  0.00  0.00    +0.079 A 
ATOM     23  C   UNL     1      -0.003   1.082  -0.022  0.00  0.00    +0.076 A 
ATOM     24  S   UNL     1      -1.397   2.200  -0.005  0.00  0.00    -0.069 S 
BRANCH  22  25
ATOM     25  C   UNL     1       2.437   1.483  -0.036  0.00  0.00    +0.001 A 
ATOM     26  C   UNL     1       2.703   0.115  -0.049  0.00  0.00    +0.010 A 
ATOM     27  C   UNL     1       4.008  -0.332  -0.069  0.00  0.00    +0.001 A 
ATOM     28  C   UNL     1       5.052   0.576  -0.066  0.00  0.00    +0.000 A 
ATOM     29  C   UNL     1       4.795   1.935  -0.049  0.00  0.00    +0.001 A 
ATOM     30  C   UNL     1       3.493   2.393  -0.034  0.00  0.00    +0.010 A 
ENDBRANCH  22  25
ENDBRANCH  19  20
ENDBRANCH  18  19
ENDBRANCH   1  18
TORSDOF 7
