REMARK  Name = ZINC11718277
REMARK  7 active torsions:
REMARK  status: ('A' for Active; 'I' for Inactive)
REMARK    1  A    between atoms: C_1  and  C_2
REMARK    2  A    between atoms: C_2  and  C_4
REMARK    3  A    between atoms: C_2  and  N_49
REMARK    4  A    between atoms: N_6  and  C_7
REMARK    5  A    between atoms: C_16  and  N_19
REMARK    6  A    between atoms: N_19  and  S_20
REMARK    7  A    between atoms: S_20  and  C_23
REMARK                            x       y       z     vdW  Elec       q    Type
REMARK                         _______ _______ _______ _____ _____    ______ ____
ROOT
ATOM      1  C   UNL     1      -1.515   5.895   1.543  0.00  0.00    -0.076 C 
ATOM      2  C   UNL     1      -1.155   7.383   1.541  0.00  0.00    +0.002 C 
ATOM      3  C   UNL     1      -2.440   8.214   1.542  0.00  0.00    +0.073 C 
ATOM      4  C   UNL     1      -3.284   7.837   0.322  0.00  0.00    +0.002 C 
ATOM      5  C   UNL     1      -3.583   6.336   0.359  0.00  0.00    -0.076 C 
ATOM      6  N   UNL     1      -2.306   5.592   0.332  0.00  0.00    +0.387 N 
ATOM      7  H   UNL     1      -1.771   5.879  -0.496  0.00  0.00    -0.081 HD
ENDROOT
BRANCH   6   9
ATOM      8  C   UNL     1      -3.304   3.657   1.504  0.00  0.00    -0.004 C 
ATOM      9  C   UNL     1      -2.570   4.140   0.252  0.00  0.00    +0.016 C 
BRANCH   9  10
ATOM     10  C   UNL     1      -1.256   3.412   0.128  0.00  0.00    +0.203 C 
ATOM     11  O   UNL     1      -0.215   4.035   0.127  0.00  0.00    -0.277 OA
ATOM     12  N   UNL     1      -1.238   2.069   0.019  0.00  0.00    -0.287 N 
ATOM     13  H   UNL     1      -2.070   1.576  -0.048  0.00  0.00    +0.155 HD
BRANCH  12  14
ATOM     14  C   UNL     1      -0.017   1.385   0.002  0.00  0.00    +0.033 A 
ATOM     15  C   UNL     1       1.091   1.953  -0.614  0.00  0.00    +0.024 A 
ATOM     16  C   UNL     1       2.293   1.274  -0.634  0.00  0.00    +0.017 A 
ATOM     17  C   UNL     1       2.395   0.028  -0.042  0.00  0.00    +0.018 A 
ATOM     18  C   UNL     1       1.293  -0.541   0.573  0.00  0.00    +0.017 A 
ATOM     19  C   UNL     1       0.089   0.135   0.597  0.00  0.00    +0.024 A 
ATOM     20 BR   UNL     1       4.043  -0.899  -0.071  0.00  0.00    -0.050 Br
ENDBRANCH  12  14
ENDBRANCH   9  10
ENDBRANCH   6   9
BRANCH   3  21
ATOM     21  N   UNL     1      -2.102   9.639   1.481  0.00  0.00    -0.187 NA
ATOM     22  H   UNL     1      -1.934  10.061   0.624  0.00  0.00    +0.148 HD
BRANCH  21  23
ATOM     23  S   UNL     1      -2.005  10.527   2.875  0.00  0.00    +0.065 S 
ATOM     24  O   UNL     1      -1.637  11.845   2.492  0.00  0.00    -0.153 OA
ATOM     25  O   UNL     1      -3.185  10.250   3.616  0.00  0.00    -0.153 OA
BRANCH  23  26
ATOM     26  C   UNL     1      -0.659   9.882   3.811  0.00  0.00    +0.142 A 
ATOM     27  C   UNL     1       0.647  10.243   3.790  0.00  0.00    +0.036 A 
ATOM     28  C   UNL     1       1.537   9.591   4.622  0.00  0.00    +0.010 A 
ATOM     29  C   UNL     1       1.078   8.609   5.436  0.00  0.00    +0.047 A 
ATOM     30  S   UNL     1      -0.663   8.587   5.041  0.00  0.00    -0.077 S 
ENDBRANCH  23  26
ENDBRANCH  21  23
ENDBRANCH   3  21
TORSDOF 6
