REMARK  Name = ZINC11910331
REMARK  13 active torsions:
REMARK  status: ('A' for Active; 'I' for Inactive)
REMARK    1  A    between atoms: C_1  and  C_2
REMARK    2  A    between atoms: C_10  and  C_11
REMARK    3  A    between atoms: N_13  and  C_14
REMARK    4  A    between atoms: C_14  and  C_15
REMARK    5  A    between atoms: C_15  and  C_16
REMARK    6  A    between atoms: C_15  and  C_17
REMARK    7  A    between atoms: C_15  and  C_18
REMARK    8  A    between atoms: C_18  and  N_58
REMARK    9  A    between atoms: C_19  and  N_58
REMARK   10  A    between atoms: C_20  and  N_58
REMARK   11  A    between atoms: N_21  and  C_22
REMARK   12  A    between atoms: C_22  and  C_24
REMARK   13  A    between atoms: C_22  and  C_25
REMARK                            x       y       z     vdW  Elec       q    Type
REMARK                         _______ _______ _______ _____ _____    ______ ____
ROOT
ATOM      1  C   UNL     1       4.238   4.640  -3.331  0.00  0.00    +0.046 C 
ATOM      2  C   UNL     1       4.391   5.911  -4.126  0.00  0.00    -0.019 A 
ATOM      3  C   UNL     1       3.259   6.655  -4.485  0.00  0.00    +0.051 A 
ATOM      4  C   UNL     1       1.883   6.398  -4.206  0.00  0.00    +0.131 A 
ATOM      5  N   UNL     1       0.967   7.241  -4.651  0.00  0.00    -0.220 NA
ATOM      6  C   UNL     1       1.279   8.325  -5.338  0.00  0.00    +0.224 A 
ATOM      7  N   UNL     1       2.532   8.619  -5.628  0.00  0.00    -0.228 NA
ATOM      8  C   UNL     1       3.511   7.833  -5.231  0.00  0.00    +0.114 A 
ATOM      9  S   UNL     1       5.278   7.844  -5.391  0.00  0.00    -0.064 S 
ATOM     10  C   UNL     1       5.629   6.340  -4.497  0.00  0.00    +0.079 A 
ATOM     11  N   UNL     1       1.514   5.279  -3.487  0.00  0.00    -0.321 N 
ATOM     12  H   UNL     1       2.179   4.615  -3.248  0.00  0.00    +0.148 HD
ENDROOT
BRANCH  10  13
ATOM     13  C   UNL     1       6.931   5.717  -4.228  0.00  0.00    +0.251 C 
ATOM     14  O   UNL     1       6.990   4.679  -3.596  0.00  0.00    -0.270 OA
ATOM     15  N   UNL     1       8.061   6.296  -4.682  0.00  0.00    -0.310 N 
ATOM     16  H   UNL     1       8.013   7.123  -5.186  0.00  0.00    +0.149 HD
BRANCH  15  17
ATOM     17  C   UNL     1       9.360   5.675  -4.414  0.00  0.00    +0.109 C 
BRANCH  17  18
ATOM     18  C   UNL     1      10.470   6.526  -5.033  0.00  0.00    -0.034 C 
ATOM     19  C   UNL     1      10.254   6.624  -6.545  0.00  0.00    +0.010 C 
ATOM     20  C   UNL     1      10.439   7.928  -4.422  0.00  0.00    +0.010 C 
BRANCH  18  21
ATOM     21  C   UNL     1      11.827   5.878  -4.753  0.00  0.00    -0.072 C 
BRANCH  21  24
ATOM     22  C   UNL     1      13.334   7.697  -4.224  0.00  0.00    -0.097 C 
ATOM     23  C   UNL     1      14.031   5.954  -5.753  0.00  0.00    -0.097 C 
ATOM     24  N   UNL     1      12.888   6.762  -5.279  0.00  0.00    +0.376 N 
ATOM     25  H   UNL     1      12.512   7.303  -6.066  0.00  0.00    -0.083 HD
ENDBRANCH  21  24
ENDBRANCH  18  21
ENDBRANCH  17  18
ENDBRANCH  15  17
ENDBRANCH  10  13
BRANCH  11  26
ATOM     26  C   UNL     1       0.117   5.096  -3.084  0.00  0.00    +0.106 C 
ATOM     27  C   UNL     1      -0.138   5.843  -1.774  0.00  0.00    +0.033 C 
BRANCH  26  28
ATOM     28  C   UNL     1      -0.161   3.628  -2.888  0.00  0.00    +0.010 A 
ATOM     29  C   UNL     1      -1.261   2.914  -3.228  0.00  0.00    +0.013 A 
ATOM     30  C   UNL     1      -1.295   1.560  -2.952  0.00  0.00    +0.008 A 
ATOM     31  C   UNL     1      -0.230   0.989  -2.339  0.00  0.00    +0.045 A 
ATOM     32  S   UNL     1       0.875   2.378  -2.145  0.00  0.00    -0.100 S 
ENDBRANCH  26  28
ENDBRANCH  11  26
TORSDOF 7
