REMARK  Name = ZINC14986608
REMARK  14 active torsions:
REMARK  status: ('A' for Active; 'I' for Inactive)
REMARK    1  A    between atoms: C_1  and  C_2
REMARK    2  A    between atoms: C_2  and  C_4
REMARK    3  A    between atoms: C_2  and  C_10
REMARK    4  A    between atoms: C_4  and  C_5
REMARK    5  A    between atoms: C_5  and  C_6
REMARK    6  A    between atoms: C_7  and  C_8
REMARK    7  A    between atoms: C_7  and  C_9
REMARK    8  A    between atoms: C_10  and  N_72
REMARK    9  A    between atoms: C_13  and  C_16
REMARK   10  A    between atoms: C_13  and  O_35
REMARK   11  A    between atoms: C_23  and  C_25
REMARK   12  A    between atoms: N_27  and  C_28
REMARK   13  A    between atoms: N_27  and  C_29
REMARK   14  A    between atoms: C_29  and  C_30
REMARK                            x       y       z     vdW  Elec       q    Type
REMARK                         _______ _______ _______ _____ _____    ______ ____
ROOT
ATOM      1  C   UNL     1       5.217   3.813  -1.599  0.00  0.00    -0.015 A 
ATOM      2  C   UNL     1       4.427   4.954  -1.618  0.00  0.00    +0.010 A 
ATOM      3  C   UNL     1       3.076   4.881  -1.356  0.00  0.00    +0.047 A 
ATOM      4  C   UNL     1       2.493   3.652  -1.068  0.00  0.00    +0.136 A 
ATOM      5  C   UNL     1       3.298   2.498  -1.050  0.00  0.00    +0.021 A 
ATOM      6  C   UNL     1       4.665   2.594  -1.319  0.00  0.00    +0.018 A 
ATOM      7  C   UNL     1       2.399   1.393  -0.721  0.00  0.00    +0.063 A 
ATOM      8  C   UNL     1       1.166   1.943  -0.571  0.00  0.00    +0.191 A 
ATOM      9  O   UNL     1       1.232   3.274  -0.784  0.00  0.00    -0.450 OA
ENDROOT
BRANCH   1  12
ATOM     10  C   UNL     1       8.448   5.227  -3.088  0.00  0.00    -0.076 C 
ATOM     11  C   UNL     1       6.943   5.088  -2.845  0.00  0.00    +0.021 C 
ATOM     12  C   UNL     1       6.692   3.918  -1.890  0.00  0.00    +0.088 C 
ATOM     13  C   UNL     1       7.454   4.161  -0.584  0.00  0.00    +0.021 C 
ATOM     14  C   UNL     1       8.944   4.329  -0.893  0.00  0.00    -0.076 C 
ATOM     15  N   UNL     1       9.120   5.485  -1.797  0.00  0.00    +0.380 N 
ATOM     16  H   UNL     1       8.699   6.315  -1.362  0.00  0.00    -0.082 HD
BRANCH  12  17
ATOM     17  O   UNL     1       7.148   2.704  -2.490  0.00  0.00    -0.384 OA
ATOM     18  H   UNL     1       7.022   1.920  -1.938  0.00  0.00    +0.211 HD
ENDBRANCH  12  17
BRANCH  15  19
ATOM     19  C   UNL     1      10.559   5.737  -2.019  0.00  0.00    -0.076 C 
BRANCH  19  21
ATOM     20  C   UNL     1      10.565   7.559  -0.309  0.00  0.00    +0.005 C 
ATOM     21  C   UNL     1      11.183   6.217  -0.707  0.00  0.00    -0.030 C 
BRANCH  21  22
ATOM     22  C   UNL     1      12.692   6.386  -0.892  0.00  0.00    +0.005 C 
BRANCH  22  23
ATOM     23  C   UNL     1      13.334   6.745   0.450  0.00  0.00    +0.027 C 
BRANCH  23  24
ATOM     24  C   UNL     1      14.820   6.911   0.267  0.00  0.00    -0.028 C 
ATOM     25  C   UNL     1      15.406   8.023   0.639  0.00  0.00    -0.080 C 
ATOM     26  C   UNL     1      14.592   9.136   1.248  0.00  0.00    +0.038 C 
ATOM     27  C   UNL     1      16.892   8.189   0.456  0.00  0.00    +0.038 C 
ENDBRANCH  23  24
ENDBRANCH  22  23
ENDBRANCH  21  22
ENDBRANCH  19  21
ENDBRANCH  15  19
ENDBRANCH   1  12
BRANCH   8  28
ATOM     28  C   UNL     1      -0.056   1.199  -0.235  0.00  0.00    +0.282 C 
ATOM     29  O   UNL     1      -0.036  -0.016  -0.189  0.00  0.00    -0.267 OA
ATOM     30  N   UNL     1      -1.202   1.864   0.017  0.00  0.00    -0.292 N 
ATOM     31  C   UNL     1      -1.244   3.323  -0.108  0.00  0.00    +0.133 C 
BRANCH  30  32
ATOM     32  C   UNL     1      -2.403   1.127   0.417  0.00  0.00    +0.163 C 
BRANCH  32  33
ATOM     33  C   UNL     1      -2.440   1.003   1.918  0.00  0.00    +0.066 A 
ATOM     34  C   UNL     1      -3.130   1.896   2.673  0.00  0.00    +0.071 A 
ATOM     35  S   UNL     1      -2.817   1.253   4.311  0.00  0.00    -0.084 S 
ATOM     36  C   UNL     1      -1.823  -0.091   3.838  0.00  0.00    +0.156 A 
ATOM     37  N   UNL     1      -1.800   0.029   2.530  0.00  0.00    -0.251 NA
ENDBRANCH  32  33
ENDBRANCH  30  32
ENDBRANCH   8  28
TORSDOF 10
