REMARK  Name = ZINC33960781
REMARK  9 active torsions:
REMARK  status: ('A' for Active; 'I' for Inactive)
REMARK    1  A    between atoms: C_1  and  C_2
REMARK    2  A    between atoms: C_5  and  C_23
REMARK    3  A    between atoms: C_6  and  C_7
REMARK    4  A    between atoms: C_6  and  C_8
REMARK    5  A    between atoms: N_12  and  N_13
REMARK    6  A    between atoms: N_13  and  C_14
REMARK    7  A    between atoms: C_17  and  N_20
REMARK    8  A    between atoms: N_25  and  C_26
REMARK    9  A    between atoms: C_29  and  N_32
REMARK                            x       y       z     vdW  Elec       q    Type
REMARK                         _______ _______ _______ _____ _____    ______ ____
ROOT
ATOM      1  C   UNL     1      -0.034   1.525   0.019  0.00  0.00    +0.018 C 
ATOM      2  C   UNL     1      -0.011  -0.005   0.010  0.00  0.00    +0.022 C 
ATOM      3  C   UNL     1      -1.400  -0.713   0.073  0.00  0.00    +0.015 C 
ATOM      4  C   UNL     1      -1.067  -2.157   0.518  0.00  0.00    +0.026 C 
ATOM      5  C   UNL     1       0.486  -2.158   0.673  0.00  0.00    +0.117 C 
ATOM      6  C   UNL     1       0.722  -0.701   1.212  0.00  0.00    -0.003 C 
ATOM      7  C   UNL     1       0.004  -0.470   2.543  0.00  0.00    +0.013 C 
ATOM      8  C   UNL     1       2.203  -0.323   1.287  0.00  0.00    +0.013 C 
ATOM      9  C   UNL     1       1.009  -2.003  -0.762  0.00  0.00    +0.195 C 
ATOM     10  O   UNL     1       1.575  -2.852  -1.421  0.00  0.00    -0.290 OA
ATOM     11  C   UNL     1       0.717  -0.663  -1.170  0.00  0.00    +0.109 C 
ATOM     12  N   UNL     1       0.992  -0.111  -2.323  0.00  0.00    -0.183 NA
ENDROOT
BRANCH   5  13
ATOM     13  C   UNL     1       1.071  -3.280   1.492  0.00  0.00    +0.232 C 
ATOM     14  O   UNL     1       1.698  -3.031   2.500  0.00  0.00    -0.274 OA
ATOM     15  N   UNL     1       0.897  -4.559   1.104  0.00  0.00    -0.285 N 
ATOM     16  H   UNL     1       0.339  -4.761   0.336  0.00  0.00    +0.155 HD
BRANCH  15  17
ATOM     17  C   UNL     1       1.520  -5.594   1.808  0.00  0.00    +0.034 A 
ATOM     18  C   UNL     1       1.674  -5.505   3.186  0.00  0.00    +0.025 A 
ATOM     19  C   UNL     1       2.290  -6.529   3.878  0.00  0.00    +0.034 A 
ATOM     20  C   UNL     1       2.753  -7.642   3.201  0.00  0.00    +0.126 A 
ATOM     21  C   UNL     1       2.602  -7.734   1.830  0.00  0.00    +0.034 A 
ATOM     22  C   UNL     1       1.981  -6.716   1.133  0.00  0.00    +0.025 A 
BRANCH  20  23
ATOM     23  N   UNL     1       3.413  -8.738   3.947  0.00  0.00    +0.056 N 
ATOM     24  O   UNL     1       3.546  -8.659   5.146  0.00  0.00    -0.126 OA
ATOM     25  O   UNL     1       3.818  -9.712   3.356  0.00  0.00    -0.126 OA
ENDBRANCH  20  23
ENDBRANCH  15  17
ENDBRANCH   5  13
BRANCH  12  26
ATOM     26  N   UNL     1       1.614  -0.786  -3.229  0.00  0.00    -0.237 N 
ATOM     27  H   UNL     1       1.877  -1.704  -3.056  0.00  0.00    +0.174 HD
BRANCH  26  28
ATOM     28  C   UNL     1       1.907  -0.197  -4.460  0.00  0.00    +0.048 A 
ATOM     29  C   UNL     1       1.535   1.119  -4.708  0.00  0.00    +0.027 A 
ATOM     30  C   UNL     1       1.827   1.699  -5.927  0.00  0.00    +0.034 A 
ATOM     31  C   UNL     1       2.489   0.972  -6.900  0.00  0.00    +0.126 A 
ATOM     32  C   UNL     1       2.860  -0.338  -6.656  0.00  0.00    +0.034 A 
ATOM     33  C   UNL     1       2.577  -0.923  -5.438  0.00  0.00    +0.027 A 
BRANCH  31  34
ATOM     34  N   UNL     1       2.800   1.597  -8.205  0.00  0.00    +0.056 N 
ATOM     35  O   UNL     1       2.476   2.741  -8.420  0.00  0.00    -0.126 OA
ATOM     36  O   UNL     1       3.378   0.962  -9.056  0.00  0.00    -0.126 OA
ENDBRANCH  31  34
ENDBRANCH  26  28
ENDBRANCH  12  26
TORSDOF 6
