REMARK  Name = ZINC35400120
REMARK  9 active torsions:
REMARK  status: ('A' for Active; 'I' for Inactive)
REMARK    1  A    between atoms: C_1  and  C_2
REMARK    2  A    between atoms: C_3  and  C_33
REMARK    3  A    between atoms: N_4  and  C_27
REMARK    4  A    between atoms: C_5  and  N_9
REMARK    5  A    between atoms: C_6  and  C_7
REMARK    6  A    between atoms: C_10  and  C_12
REMARK    7  A    between atoms: C_12  and  N_13
REMARK    8  A    between atoms: C_22  and  C_24
REMARK    9  A    between atoms: C_27  and  C_28
REMARK                            x       y       z     vdW  Elec       q    Type
REMARK                         _______ _______ _______ _____ _____    ______ ____
ROOT
ATOM      1  N   UNL     1      -1.830  -4.455   3.490  0.00  0.00    -0.270 N 
ATOM      2  C   UNL     1      -1.448  -5.458   2.674  0.00  0.00    +0.232 C 
ATOM      3  O   UNL     1      -1.357  -5.267   1.480  0.00  0.00    -0.274 OA
ATOM      4  H   UNL     1      -1.875  -4.600   4.448  0.00  0.00    +0.156 HD
ENDROOT
BRANCH   1   9
ATOM      5  C   UNL     1      -4.005  -0.746   0.835  0.00  0.00    +0.047 C 
ATOM      6  C   UNL     1      -3.117  -1.519   1.776  0.00  0.00    -0.011 A 
ATOM      7  C   UNL     1      -2.142  -1.018   2.552  0.00  0.00    +0.022 A 
ATOM      8  N   UNL     1      -1.563  -2.034   3.264  0.00  0.00    -0.327 N 
ATOM      9  C   UNL     1      -2.157  -3.217   2.959  0.00  0.00    +0.124 A 
ATOM     10  C   UNL     1      -3.154  -2.965   2.027  0.00  0.00    +0.095 A 
ATOM     11  C   UNL     1      -1.746   0.434   2.626  0.00  0.00    +0.064 C 
BRANCH  10  12
ATOM     12  C   UNL     1      -4.038  -3.921   1.430  0.00  0.00    +0.103 C 
ATOM     13  N   UNL     1      -4.739  -4.679   0.957  0.00  0.00    -0.191 NA
ENDBRANCH  10  12
BRANCH   8  14
ATOM     14  C   UNL     1      -0.462  -1.870   4.216  0.00  0.00    +0.165 C 
BRANCH  14  15
ATOM     15  C   UNL     1      -1.017  -1.756   5.612  0.00  0.00    +0.009 A 
ATOM     16  C   UNL     1      -1.266  -2.736   6.515  0.00  0.00    +0.013 A 
ATOM     17  C   UNL     1      -1.782  -2.395   7.750  0.00  0.00    +0.008 A 
ATOM     18  C   UNL     1      -2.025  -1.089   8.023  0.00  0.00    +0.045 A 
ATOM     19  S   UNL     1      -1.512  -0.294   6.510  0.00  0.00    -0.100 S 
ENDBRANCH  14  15
ENDBRANCH   8  14
ENDBRANCH   1   9
BRANCH   2  20
ATOM     20  C   UNL     1      -1.136  -6.817   3.245  0.00  0.00    +0.181 C 
BRANCH  20  21
ATOM     21  N   UNL     1      -0.748  -7.728   2.160  0.00  0.00    -0.278 NA
ATOM     22  C   UNL     1      -1.893  -8.034   1.296  0.00  0.00    +0.121 C 
ATOM     23  C   UNL     1      -1.506  -9.043   0.247  0.00  0.00    -0.030 A 
ATOM     24  C   UNL     1      -2.319  -9.179  -0.869  0.00  0.00    +0.005 A 
ATOM     25  C   UNL     1      -2.005 -10.094  -1.854  0.00  0.00    +0.000 A 
ATOM     26  C   UNL     1      -0.875 -10.880  -1.728  0.00  0.00    +0.000 A 
ATOM     27  C   UNL     1      -0.064 -10.745  -0.619  0.00  0.00    +0.004 A 
ATOM     28  C   UNL     1      -0.377  -9.824   0.370  0.00  0.00    -0.041 A 
ATOM     29  C   UNL     1       0.543  -9.703   1.557  0.00  0.00    +0.063 C 
ATOM     30  C   UNL     1      -0.167  -8.969   2.695  0.00  0.00    +0.148 C 
BRANCH  30  31
ATOM     31  C   UNL     1       0.825  -8.638   3.780  0.00  0.00    +0.228 C 
ATOM     32  O   UNL     1       1.607  -7.723   3.628  0.00  0.00    -0.274 OA
ATOM     33  N   UNL     1       0.843  -9.357   4.920  0.00  0.00    -0.328 N 
ATOM     34  H   UNL     1       0.217 -10.089   5.041  0.00  0.00    +0.145 HD
ATOM     35  H   UNL     1       1.481  -9.144   5.618  0.00  0.00    +0.145 HD
ENDBRANCH  30  31
ENDBRANCH  20  21
ENDBRANCH   2  20
TORSDOF 7
