REMARK  Name = ZINC40851452
REMARK  9 active torsions:
REMARK  status: ('A' for Active; 'I' for Inactive)
REMARK    1  A    between atoms: C_1  and  C_2
REMARK    2  A    between atoms: C_2  and  O_3
REMARK    3  A    between atoms: O_3  and  C_4
REMARK    4  A    between atoms: C_4  and  C_6
REMARK    5  A    between atoms: C_10  and  N_11
REMARK    6  A    between atoms: N_14  and  N_15
REMARK    7  A    between atoms: C_16  and  C_17
REMARK    8  A    between atoms: C_20  and  O_24
REMARK    9  A    between atoms: C_26  and  C_30
REMARK                            x       y       z     vdW  Elec       q    Type
REMARK                         _______ _______ _______ _____ _____    ______ ____
ROOT
ATOM      1  N   UNL     1      -3.034  -2.523   2.498  0.00  0.00    -0.262 N 
ATOM      2  C   UNL     1      -3.809  -2.867   3.546  0.00  0.00    +0.324 C 
ATOM      3  O   UNL     1      -4.913  -3.339   3.356  0.00  0.00    -0.251 OA
ATOM      4  N   UNL     1      -3.360  -2.687   4.804  0.00  0.00    -0.191 N 
ATOM      5  H   UNL     1      -2.153  -2.147   2.650  0.00  0.00    +0.157 HD
ATOM      6  H   UNL     1      -3.918  -2.934   5.558  0.00  0.00    +0.179 HD
ENDROOT
BRANCH   1  11
ATOM      7  C   UNL     1      -2.842  -2.416   0.016  0.00  0.00    +0.091 A 
ATOM      8  C   UNL     1      -3.548  -2.714  -1.219  0.00  0.00    -0.021 A 
ATOM      9  C   UNL     1      -4.777  -3.242  -1.039  0.00  0.00    -0.004 A 
ATOM     10  S   UNL     1      -4.974  -3.335   0.716  0.00  0.00    -0.077 S 
ATOM     11  C   UNL     1      -3.495  -2.708   1.205  0.00  0.00    +0.088 A 
ATOM     12  C   UNL     1      -5.745  -3.651  -2.106  0.00  0.00    +0.046 C 
ATOM     13  C   UNL     1      -5.287  -3.033  -3.436  0.00  0.00    -0.009 C 
ATOM     14  C   UNL     1      -3.790  -3.299  -3.616  0.00  0.00    +0.008 C 
ATOM     15  C   UNL     1      -2.988  -2.468  -2.612  0.00  0.00    +0.037 C 
ATOM     16  C   UNL     1      -6.066  -3.665  -4.590  0.00  0.00    +0.008 C 
BRANCH   7  17
ATOM     17  C   UNL     1      -1.497  -1.838   0.006  0.00  0.00    +0.342 C 
ATOM     18  O   UNL     1      -0.522  -2.566  -0.007  0.00  0.00    -0.245 OA
BRANCH  17  19
ATOM     19  O   UNL     1      -1.339  -0.499   0.012  0.00  0.00    -0.461 OA
BRANCH  19  21
ATOM     20  C   UNL     1      -0.019   1.526   0.010  0.00  0.00    +0.048 C 
ATOM     21  C   UNL     1       0.002  -0.004   0.002  0.00  0.00    +0.229 C 
ENDBRANCH  19  21
ENDBRANCH  17  19
ENDBRANCH   7  17
ENDBRANCH   1  11
BRANCH   4  22
ATOM     22  N   UNL     1      -2.087  -2.143   5.022  0.00  0.00    -0.186 NA
ATOM     23  C   UNL     1      -1.655  -1.970   6.234  0.00  0.00    +0.138 C 
BRANCH  23  24
ATOM     24  C   UNL     1      -0.316  -1.397   6.464  0.00  0.00    -0.004 A 
ATOM     25  C   UNL     1       0.487  -1.035   5.379  0.00  0.00    +0.013 A 
ATOM     26  C   UNL     1       1.738  -0.500   5.599  0.00  0.00    +0.047 A 
ATOM     27  C   UNL     1       2.201  -0.321   6.895  0.00  0.00    +0.131 A 
ATOM     28  C   UNL     1       1.406  -0.679   7.977  0.00  0.00    +0.060 A 
ATOM     29  C   UNL     1       0.151  -1.210   7.767  0.00  0.00    +0.028 A 
ATOM     30 BR   UNL     1       2.044  -0.433   9.740  0.00  0.00    -0.047 Br
BRANCH  27  31
ATOM     31  O   UNL     1       3.436   0.206   7.107  0.00  0.00    -0.506 OA
ATOM     32  H   UNL     1       3.444   1.170   7.180  0.00  0.00    +0.292 HD
ENDBRANCH  27  31
ENDBRANCH  23  24
ENDBRANCH   4  22
TORSDOF 7
