REMARK  Name = ZINC38783316
REMARK  8 active torsions:
REMARK  status: ('A' for Active; 'I' for Inactive)
REMARK    1  A    between atoms: C_1  and  C_2
REMARK    2  A    between atoms: C_2  and  C_3
REMARK    3  A    between atoms: C_2  and  C_4
REMARK    4  A    between atoms: C_4  and  C_6
REMARK    5  A    between atoms: C_4  and  N_21
REMARK    6  A    between atoms: N_8  and  C_9
REMARK    7  A    between atoms: C_9  and  C_10
REMARK    8  A    between atoms: C_10  and  C_11
REMARK                            x       y       z     vdW  Elec       q    Type
REMARK                         _______ _______ _______ _____ _____    ______ ____
ROOT
ATOM      1  C   UNL     1       0.504  -0.389  -1.149  0.00  0.00    +0.183 C 
ENDROOT
BRANCH   1   2
ATOM      2  N   UNL     1       0.896  -1.670  -1.741  0.00  0.00    -0.205 N 
ATOM      3  C   UNL     1       2.211  -1.962  -1.870  0.00  0.00    +0.264 C 
ATOM      4  O   UNL     1       3.067  -1.225  -1.419  0.00  0.00    -0.269 OA
ATOM      5  C   UNL     1       2.568  -3.207  -2.577  0.00  0.00    +0.060 A 
ATOM      6  C   UNL     1       3.850  -3.741  -2.565  0.00  0.00    +0.015 A 
ATOM      7  C   UNL     1       4.100  -4.910  -3.257  0.00  0.00    +0.001 A 
ATOM      8  C   UNL     1       3.086  -5.546  -3.957  0.00  0.00    +0.002 A 
ATOM      9  C   UNL     1       1.806  -5.023  -3.974  0.00  0.00    +0.025 A 
ATOM     10  C   UNL     1       1.538  -3.855  -3.286  0.00  0.00    +0.055 A 
ATOM     11  N   UNL     1       0.278  -3.270  -3.247  0.00  0.00    -0.264 N 
ATOM     12  N   UNL     1      -0.072  -2.538  -2.143  0.00  0.00    -0.157 NA
ATOM     13  H   UNL     1      -0.341  -3.381  -3.985  0.00  0.00    +0.168 HD
ATOM     14  H   UNL     1      -0.358  -3.138  -1.383  0.00  0.00    +0.168 HD
ENDBRANCH   1   2
BRANCH   1  15
ATOM     15  C   UNL     1      -0.316   0.394  -2.143  0.00  0.00    +0.235 C 
ATOM     16  O   UNL     1      -0.794  -0.165  -3.108  0.00  0.00    -0.274 OA
ATOM     17  N   UNL     1      -0.518   1.714  -1.959  0.00  0.00    -0.313 N 
ATOM     18  H   UNL     1      -0.093   2.171  -1.217  0.00  0.00    +0.149 HD
BRANCH  17  19
ATOM     19  C   UNL     1      -1.379   2.458  -2.882  0.00  0.00    +0.109 C 
BRANCH  19  20
ATOM     20  C   UNL     1      -1.439   3.925  -2.451  0.00  0.00    +0.056 C 
BRANCH  20  21
ATOM     21  C   UNL     1      -2.324   4.691  -3.400  0.00  0.00    -0.021 A 
ATOM     22  C   UNL     1      -3.783   4.812  -3.325  0.00  0.00    +0.006 A 
ATOM     23  C   UNL     1      -4.753   4.318  -2.451  0.00  0.00    +0.048 A 
ATOM     24  C   UNL     1      -6.080   4.623  -2.663  0.00  0.00    +0.124 A 
ATOM     25  C   UNL     1      -6.454   5.418  -3.741  0.00  0.00    +0.040 A 
ATOM     26  C   UNL     1      -5.507   5.912  -4.611  0.00  0.00    +0.029 A 
ATOM     27  C   UNL     1      -4.163   5.616  -4.415  0.00  0.00    +0.047 A 
ATOM     28  N   UNL     1      -3.011   5.952  -5.093  0.00  0.00    -0.360 N 
ATOM     29  C   UNL     1      -1.926   5.397  -4.470  0.00  0.00    +0.087 A 
ATOM     30  F   UNL     1      -7.022   4.146  -1.820  0.00  0.00    -0.205 F 
ATOM     31  H   UNL     1      -2.974   6.503  -5.890  0.00  0.00    +0.165 HD
ENDBRANCH  20  21
ENDBRANCH  19  20
ENDBRANCH  17  19
ENDBRANCH   1  15
BRANCH   1  33
ATOM     32  C   UNL     1       0.464  -1.530   1.073  0.00  0.00    +0.009 C 
ATOM     33  C   UNL     1      -0.327  -0.641   0.110  0.00  0.00    +0.014 C 
ATOM     34  C   UNL     1      -0.642   0.693   0.790  0.00  0.00    +0.009 C 
ENDBRANCH   1  33
TORSDOF 6
