REMARK  Name = ZINC09257308
REMARK  10 active torsions:
REMARK  status: ('A' for Active; 'I' for Inactive)
REMARK    1  A    between atoms: C_1  and  C_2
REMARK    2  A    between atoms: C_2  and  C_4
REMARK    3  A    between atoms: C_2  and  S_19
REMARK    4  A    between atoms: N_6  and  C_7
REMARK    5  A    between atoms: C_8  and  C_17
REMARK    6  A    between atoms: S_19  and  C_20
REMARK    7  A    between atoms: N_24  and  C_25
REMARK    8  A    between atoms: C_25  and  C_26
REMARK    9  A    between atoms: C_29  and  O_32
REMARK   10  A    between atoms: O_32  and  C_33
REMARK                            x       y       z     vdW  Elec       q    Type
REMARK                         _______ _______ _______ _____ _____    ______ ____
ROOT
ATOM      1  C   UNL     1      -2.674   0.275   1.325  0.00  0.00    +0.029 C 
ATOM      2  C   UNL     1      -2.742   1.074   0.022  0.00  0.00    +0.137 C 
ENDROOT
BRANCH   2   3
ATOM      3  C   UNL     1      -4.091   1.736  -0.091  0.00  0.00    +0.231 C 
ATOM      4  O   UNL     1      -4.217   2.908   0.195  0.00  0.00    -0.274 OA
ATOM      5  N   UNL     1      -5.157   1.026  -0.510  0.00  0.00    -0.278 N 
ATOM      6  H   UNL     1      -5.056   0.089  -0.739  0.00  0.00    +0.155 HD
BRANCH   5   7
ATOM      7  C   UNL     1      -6.399   1.636  -0.615  0.00  0.00    +0.090 A 
ATOM      8  C   UNL     1      -7.600   1.079  -1.022  0.00  0.00    +0.084 A 
ATOM      9  C   UNL     1      -8.775   1.940  -1.043  0.00  0.00    -0.018 A 
ATOM     10  C   UNL     1      -8.552   3.216  -0.661  0.00  0.00    -0.004 A 
ATOM     11  S   UNL     1      -6.827   3.277  -0.260  0.00  0.00    -0.077 S 
ATOM     12  C   UNL     1      -9.541   4.337  -0.590  0.00  0.00    +0.043 C 
ATOM     13  C   UNL     1     -10.791   3.861   0.161  0.00  0.00    +0.005 C 
ATOM     14  C   UNL     1     -11.764   3.260  -0.850  0.00  0.00    +0.001 C 
ATOM     15  C   UNL     1     -10.994   2.587  -1.984  0.00  0.00    +0.005 C 
ATOM     16  C   UNL     1     -10.153   1.433  -1.448  0.00  0.00    +0.037 C 
BRANCH   8  17
ATOM     17  C   UNL     1      -7.684  -0.297  -1.410  0.00  0.00    +0.102 C 
ATOM     18  N   UNL     1      -7.751  -1.388  -1.718  0.00  0.00    -0.191 NA
ENDBRANCH   8  17
ENDBRANCH   5   7
ENDBRANCH   2   3
BRANCH   2  19
ATOM     19  S   UNL     1      -1.447   2.339   0.022  0.00  0.00    -0.072 S 
BRANCH  19  20
ATOM     20  C   UNL     1      -0.016   1.311   0.009  0.00  0.00    +0.210 A 
ATOM     21  N   UNL     1       0.002  -0.004   0.002  0.00  0.00    -0.101 NA
ATOM     22  N   UNL     1       1.211  -0.437  -0.012  0.00  0.00    -0.022 NA
ATOM     23  N   UNL     1       2.041   0.549  -0.015  0.00  0.00    -0.043 NA
ATOM     24  N   UNL     1       1.273   1.727  -0.001  0.00  0.00    -0.216 N 
BRANCH  24  25
ATOM     25  C   UNL     1       1.762   3.108   0.001  0.00  0.00    +0.183 C 
BRANCH  25  26
ATOM     26  C   UNL     1       1.943   3.574   1.423  0.00  0.00    -0.026 A 
ATOM     27  C   UNL     1       0.899   4.193   2.084  0.00  0.00    +0.009 A 
ATOM     28  C   UNL     1       1.060   4.617   3.389  0.00  0.00    +0.046 A 
ATOM     29  C   UNL     1       2.276   4.431   4.032  0.00  0.00    +0.120 A 
ATOM     30  C   UNL     1       3.324   3.814   3.364  0.00  0.00    +0.046 A 
ATOM     31  C   UNL     1       3.155   3.388   2.061  0.00  0.00    +0.009 A 
BRANCH  29  32
ATOM     32  O   UNL     1       2.439   4.851   5.314  0.00  0.00    -0.495 OA
ATOM     33  C   UNL     1       1.317   5.478   5.939  0.00  0.00    +0.277 C 
ENDBRANCH  29  32
ENDBRANCH  25  26
ENDBRANCH  24  25
ENDBRANCH  19  20
ENDBRANCH   2  19
TORSDOF 8
