REMARK  Name = ZINC20978530
REMARK  9 active torsions:
REMARK  status: ('A' for Active; 'I' for Inactive)
REMARK    1  A    between atoms: C_1  and  C_2
REMARK    2  A    between atoms: C_5  and  C_8
REMARK    3  A    between atoms: C_8  and  N_9
REMARK    4  A    between atoms: C_12  and  C_15
REMARK    5  A    between atoms: C_15  and  N_16
REMARK    6  A    between atoms: N_16  and  S_17
REMARK    7  A    between atoms: S_17  and  C_20
REMARK    8  A    between atoms: C_23  and  C_25
REMARK    9  A    between atoms: C_27  and  C_30
REMARK                            x       y       z     vdW  Elec       q    Type
REMARK                         _______ _______ _______ _____ _____    ______ ____
ROOT
ATOM      1  C   UNL     1       0.415   5.985   5.148  0.00  0.00    +0.109 C 
ENDROOT
BRANCH   1   5
ATOM      2  N   UNL     1       1.157   4.075   1.397  0.00  0.00    +0.382 N 
ATOM      3  C   UNL     1      -0.082   3.700   2.091  0.00  0.00    -0.078 C 
ATOM      4  C   UNL     1       0.020   4.089   3.567  0.00  0.00    -0.014 C 
ATOM      5  C   UNL     1       0.252   5.599   3.677  0.00  0.00    +0.001 C 
ATOM      6  C   UNL     1       1.521   5.970   2.906  0.00  0.00    -0.014 C 
ATOM      7  C   UNL     1       1.376   5.526   1.449  0.00  0.00    -0.078 C 
ATOM      8  H   UNL     1       1.994   3.591   1.922  0.00  0.00    -0.081 HD
BRANCH   2   9
ATOM      9  C   UNL     1       1.151   3.592   0.010  0.00  0.00    -0.043 C 
BRANCH   9  14
ATOM     10  C   UNL     1       1.229  -2.186  -0.022  0.00  0.00    +0.044 C 
ATOM     11  C   UNL     1       1.208  -0.679  -0.014  0.00  0.00    -0.050 A 
ATOM     12  C   UNL     1       0.002  -0.004   0.002  0.00  0.00    +0.003 A 
ATOM     13  C   UNL     1      -0.017   1.378   0.010  0.00  0.00    +0.002 A 
ATOM     14  C   UNL     1       1.171   2.086   0.002  0.00  0.00    -0.064 A 
ATOM     15  C   UNL     1       2.377   1.411  -0.014  0.00  0.00    +0.002 A 
ATOM     16  C   UNL     1       2.396   0.029  -0.021  0.00  0.00    +0.003 A 
ENDBRANCH   9  14
ENDBRANCH   2   9
ENDBRANCH   1   5
BRANCH   1  17
ATOM     17  N   UNL     1      -0.842   5.740   5.860  0.00  0.00    -0.189 NA
ATOM     18  H   UNL     1      -1.794   5.740   5.311  0.00  0.00    +0.148 HD
BRANCH  17  19
ATOM     19  S   UNL     1      -0.863   5.710   7.516  0.00  0.00    +0.065 S 
ATOM     20  O   UNL     1      -2.212   5.480   7.901  0.00  0.00    -0.153 OA
ATOM     21  O   UNL     1       0.200   4.857   7.920  0.00  0.00    -0.153 OA
BRANCH  19  22
ATOM     22  C   UNL     1      -0.449   7.329   8.072  0.00  0.00    +0.143 A 
ATOM     23  C   UNL     1      -1.273   8.380   8.328  0.00  0.00    +0.037 A 
ATOM     24  C   UNL     1      -0.733   9.567   8.764  0.00  0.00    +0.021 A 
ATOM     25  C   UNL     1       0.639   9.651   8.914  0.00  0.00    +0.059 A 
ATOM     26  S   UNL     1       1.160   8.011   8.436  0.00  0.00    -0.065 S 
BRANCH  25  27
ATOM     27  C   UNL     1       1.455  10.791   9.354  0.00  0.00    +0.174 A 
ATOM     28  C   UNL     1       2.821  10.826   9.489  0.00  0.00    +0.076 A 
ATOM     29  C   UNL     1       3.083  12.136   9.933  0.00  0.00    +0.081 A 
ATOM     30  N   UNL     1       1.930  12.739  10.021  0.00  0.00    -0.083 NA
ATOM     31  O   UNL     1       1.016  12.016   9.701  0.00  0.00    -0.354 OA
ATOM     32  C   UNL     1       4.434  12.727  10.246  0.00  0.00    +0.069 C 
ENDBRANCH  25  27
ENDBRANCH  19  22
ENDBRANCH  17  19
ENDBRANCH   1  17
TORSDOF 7
