REMARK  Name = ZINC12205565
REMARK  10 active torsions:
REMARK  status: ('A' for Active; 'I' for Inactive)
REMARK    1  A    between atoms: C_1  and  C_2
REMARK    2  A    between atoms: C_2  and  C_32
REMARK    3  A    between atoms: C_4  and  N_9
REMARK    4  A    between atoms: C_6  and  C_7
REMARK    5  A    between atoms: C_6  and  C_8
REMARK    6  A    between atoms: N_9  and  C_10
REMARK    7  A    between atoms: C_11  and  C_13
REMARK    8  A    between atoms: C_13  and  C_14
REMARK    9  A    between atoms: C_21  and  C_22
REMARK   10  A    between atoms: C_21  and  N_72
REMARK                            x       y       z     vdW  Elec       q    Type
REMARK                         _______ _______ _______ _____ _____    ______ ____
ROOT
ATOM      1  C   UNL     1      -4.073   1.691   0.317  0.00  0.00    +0.028 C 
ATOM      2  C   UNL     1      -4.331   3.138   0.626  0.00  0.00    +0.200 C 
ATOM      3  O   UNL     1      -3.638   3.979   0.092  0.00  0.00    -0.278 OA
ATOM      4  N   UNL     1      -5.292   3.539   1.465  0.00  0.00    -0.318 N 
ATOM      5  C   UNL     1      -6.155   2.607   2.185  0.00  0.00    +0.085 C 
ATOM      6  C   UNL     1      -6.112   1.231   1.520  0.00  0.00    -0.058 C 
ATOM      7  H   UNL     1      -5.421   4.490   1.602  0.00  0.00    +0.149 HD
ATOM      8  N   UNL     1      -4.695   0.847   1.354  0.00  0.00    +0.391 N 
ATOM      9  H   UNL     1      -4.203   0.991   2.244  0.00  0.00    -0.080 HD
ENDROOT
BRANCH   1  10
ATOM     10  C   UNL     1      -2.565   1.434   0.306  0.00  0.00    +0.090 C 
BRANCH  10  13
ATOM     11  N   UNL     1      -0.683   1.532   1.908  0.00  0.00    -0.302 N 
ATOM     12  C   UNL     1       0.202   1.100   0.823  0.00  0.00    +0.132 C 
ATOM     13  C   UNL     1      -2.001   1.695   1.679  0.00  0.00    +0.214 C 
ATOM     14  O   UNL     1      -2.733   2.052   2.577  0.00  0.00    -0.276 OA
BRANCH  11  18
ATOM     15  C   UNL     1      -0.053   0.853   6.188  0.00  0.00    -0.010 C 
ATOM     16  C   UNL     1       1.086   0.749   5.170  0.00  0.00    -0.072 C 
ATOM     17  C   UNL     1       0.512   0.504   3.776  0.00  0.00    +0.009 C 
ATOM     18  C   UNL     1      -0.134   1.786   3.246  0.00  0.00    +0.073 C 
ATOM     19  C   UNL     1       0.946   2.864   3.151  0.00  0.00    +0.009 C 
ATOM     20  C   UNL     1       1.562   3.127   4.522  0.00  0.00    -0.072 C 
ATOM     21  C   UNL     1       0.594   3.966   5.366  0.00  0.00    -0.010 C 
ATOM     22  C   UNL     1       2.833   3.979   4.304  0.00  0.00    -0.010 C 
ATOM     23  C   UNL     1       1.931  -0.488   5.549  0.00  0.00    -0.010 C 
ATOM     24  N   UNL     1       2.010   1.913   5.255  0.00  0.00    +0.386 N 
ATOM     25  H   UNL     1       2.919   1.627   4.871  0.00  0.00    -0.084 HD
ATOM     26  H   UNL     1       2.120   2.161   6.245  0.00  0.00    -0.084 HD
ENDBRANCH  11  18
ENDBRANCH  10  13
ENDBRANCH   1  10
BRANCH   8  27
ATOM     27  C   UNL     1      -4.596  -0.580   0.974  0.00  0.00    -0.042 C 
BRANCH  27  28
ATOM     28  C   UNL     1      -4.894  -1.429   2.183  0.00  0.00    -0.063 A 
ATOM     29  C   UNL     1      -6.205  -1.830   2.434  0.00  0.00    +0.002 A 
ATOM     30  C   UNL     1      -6.508  -2.597   3.516  0.00  0.00    +0.009 A 
ATOM     31  C   UNL     1      -5.486  -2.993   4.396  0.00  0.00    -0.018 A 
ATOM     32  C   UNL     1      -5.760  -3.785   5.524  0.00  0.00    +0.008 A 
ATOM     33  C   UNL     1      -4.745  -4.149   6.354  0.00  0.00    +0.001 A 
ATOM     34  C   UNL     1      -3.434  -3.748   6.103  0.00  0.00    +0.001 A 
ATOM     35  C   UNL     1      -3.131  -2.981   5.021  0.00  0.00    +0.008 A 
ATOM     36  C   UNL     1      -4.153  -2.585   4.141  0.00  0.00    -0.018 A 
ATOM     37  C   UNL     1      -3.878  -1.798   3.010  0.00  0.00    +0.010 A 
ENDBRANCH  27  28
ENDBRANCH   8  27
TORSDOF 5
