REMARK  Name = ZINC13123354
REMARK  7 active torsions:
REMARK  status: ('A' for Active; 'I' for Inactive)
REMARK    1  A    between atoms: C_1  and  O_2
REMARK    2  A    between atoms: O_2  and  C_3
REMARK    3  A    between atoms: C_6  and  C_9
REMARK    4  A    between atoms: C_12  and  C_28
REMARK    5  A    between atoms: C_20  and  C_22
REMARK    6  A    between atoms: C_31  and  O_34
REMARK    7  A    between atoms: O_34  and  C_35
REMARK                            x       y       z     vdW  Elec       q    Type
REMARK                         _______ _______ _______ _____ _____    ______ ____
ROOT
ATOM      1  C   UNL     1      -4.981  -2.629   0.035  0.00  0.00    +0.106 C 
ATOM      2  C   UNL     1      -5.326  -3.097  -1.384  0.00  0.00    +0.058 C 
ATOM      3  C   UNL     1      -6.707  -3.764  -1.388  0.00  0.00    +0.143 C 
ATOM      4  N   UNL     1      -6.762  -4.743  -0.302  0.00  0.00    -0.224 N 
ATOM      5  C   UNL     1      -5.920  -4.753   0.759  0.00  0.00    +0.216 A 
ATOM      6  N   UNL     1      -6.247  -5.757   1.528  0.00  0.00    -0.180 NA
ATOM      7  C   UNL     1      -7.290  -6.409   0.993  0.00  0.00    +0.242 A 
ATOM      8  N   UNL     1      -7.635  -5.817  -0.129  0.00  0.00    -0.131 NA
ATOM      9  N   UNL     1      -7.910  -7.535   1.540  0.00  0.00    -0.249 N 
ATOM     10  C   UNL     1      -7.465  -8.052   2.702  0.00  0.00    +0.257 C 
ATOM     11  O   UNL     1      -6.521  -7.538   3.275  0.00  0.00    -0.269 OA
ATOM     12  N   UNL     1      -4.914  -3.808   0.920  0.00  0.00    -0.307 N 
ATOM     13  H   UNL     1      -8.662  -7.944   1.084  0.00  0.00    +0.158 HD
ATOM     14  H   UNL     1      -4.206  -3.918   1.574  0.00  0.00    +0.149 HD
ENDROOT
BRANCH   1  18
ATOM     15  C   UNL     1      -1.200  -0.637   0.010  0.00  0.00    +0.120 A 
ATOM     16  C   UNL     1      -2.375   0.101   0.019  0.00  0.00    +0.046 A 
ATOM     17  C   UNL     1      -3.596  -0.545   0.027  0.00  0.00    +0.009 A 
ATOM     18  C   UNL     1      -3.648  -1.927   0.026  0.00  0.00    -0.027 A 
ATOM     19  C   UNL     1      -2.479  -2.665   0.017  0.00  0.00    +0.009 A 
ATOM     20  C   UNL     1      -1.255  -2.024   0.003  0.00  0.00    +0.046 A 
BRANCH  15  22
ATOM     21  C   UNL     1      -0.017   1.425   0.010  0.00  0.00    +0.277 C 
ATOM     22  O   UNL     1       0.002  -0.004   0.002  0.00  0.00    -0.495 OA
ENDBRANCH  15  22
ENDBRANCH   1  18
BRANCH   3  23
ATOM     23  C   UNL     1      -6.930  -4.456  -2.708  0.00  0.00    -0.023 A 
ATOM     24  C   UNL     1      -6.076  -5.466  -3.110  0.00  0.00    +0.009 A 
ATOM     25  C   UNL     1      -6.278  -6.102  -4.320  0.00  0.00    +0.046 A 
ATOM     26  C   UNL     1      -7.339  -5.726  -5.131  0.00  0.00    +0.120 A 
ATOM     27  C   UNL     1      -8.194  -4.712  -4.725  0.00  0.00    +0.046 A 
ATOM     28  C   UNL     1      -7.991  -4.083  -3.512  0.00  0.00    +0.009 A 
BRANCH  26  29
ATOM     29  O   UNL     1      -7.539  -6.349  -6.322  0.00  0.00    -0.495 OA
ATOM     30  C   UNL     1      -8.651  -5.910  -7.105  0.00  0.00    +0.277 C 
ENDBRANCH  26  29
ENDBRANCH   3  23
BRANCH  10  31
ATOM     31  C   UNL     1      -8.115  -9.233   3.276  0.00  0.00    +0.074 A 
ATOM     32  C   UNL     1      -7.819  -9.911   4.449  0.00  0.00    +0.021 A 
ATOM     33  C   UNL     1      -8.614 -10.996   4.728  0.00  0.00    +0.008 A 
ATOM     34  C   UNL     1      -9.607 -11.326   3.865  0.00  0.00    +0.046 A 
ATOM     35  S   UNL     1      -9.498 -10.169   2.651  0.00  0.00    -0.092 S 
ENDBRANCH  10  31
TORSDOF 5
