REMARK  Name = ZINC39673235
REMARK  6 active torsions:
REMARK  status: ('A' for Active; 'I' for Inactive)
REMARK    1  A    between atoms: C_3  and  O_32
REMARK    2  A    between atoms: C_6  and  C_7
REMARK    3  A    between atoms: C_7  and  N_8
REMARK    4  A    between atoms: C_9  and  C_11
REMARK    5  A    between atoms: C_22  and  C_24
REMARK    6  A    between atoms: O_32  and  C_33
REMARK                            x       y       z     vdW  Elec       q    Type
REMARK                         _______ _______ _______ _____ _____    ______ ____
ROOT
ATOM      1  C   UNL     1      -3.308  -1.938  -3.024  0.00  0.00    +0.100 C 
ATOM      2  C   UNL     1      -2.226  -2.714  -3.808  0.00  0.00    +0.121 C 
ATOM      3  N   UNL     1      -2.626  -4.136  -3.689  0.00  0.00    -0.296 N 
ATOM      4  C   UNL     1      -4.103  -4.115  -3.812  0.00  0.00    +0.115 C 
ATOM      5  C   UNL     1      -4.539  -2.859  -3.032  0.00  0.00    -0.004 C 
ATOM      6  C   UNL     1      -4.928  -3.235  -1.606  0.00  0.00    -0.010 C 
ATOM      7  C   UNL     1      -6.188  -4.104  -1.637  0.00  0.00    -0.082 C 
ATOM      8  N   UNL     1      -7.279  -3.366  -2.285  0.00  0.00    +0.379 N 
ATOM      9  C   UNL     1      -6.934  -3.089  -3.685  0.00  0.00    -0.082 C 
ATOM     10  C   UNL     1      -5.706  -2.177  -3.740  0.00  0.00    -0.010 C 
ATOM     11  C   UNL     1      -1.827  -5.207  -3.510  0.00  0.00    +0.248 C 
ATOM     12  O   UNL     1      -0.634  -5.052  -3.329  0.00  0.00    -0.270 OA
ATOM     13  H   UNL     1      -8.123  -3.916  -2.250  0.00  0.00    -0.086 HD
ATOM     14  H   UNL     1      -7.428  -2.494  -1.799  0.00  0.00    -0.086 HD
ENDROOT
BRANCH  11  15
ATOM     15  C   UNL     1      -2.400  -6.568  -3.533  0.00  0.00    +0.055 A 
ATOM     16  C   UNL     1      -3.461  -6.868  -4.390  0.00  0.00    +0.016 A 
ATOM     17  C   UNL     1      -3.991  -8.140  -4.407  0.00  0.00    +0.021 A 
ATOM     18  C   UNL     1      -3.474  -9.121  -3.576  0.00  0.00    +0.042 A 
ATOM     19  C   UNL     1      -2.423  -8.832  -2.724  0.00  0.00    +0.040 A 
ATOM     20  C   UNL     1      -1.879  -7.563  -2.701  0.00  0.00    +0.054 A 
ATOM     21 CL   UNL     1      -0.555  -7.203  -1.637  0.00  0.00    -0.083 Cl
ATOM     22 CL   UNL     1      -4.149 -10.720  -3.604  0.00  0.00    -0.083 Cl
ENDBRANCH  11  15
BRANCH   1  24
ATOM     23  N   UNL     1      -3.270  -0.584  -0.954  0.00  0.00    -0.311 N 
ATOM     24  C   UNL     1      -2.852  -1.685  -1.610  0.00  0.00    +0.218 C 
ATOM     25  O   UNL     1      -2.108  -2.471  -1.063  0.00  0.00    -0.275 OA
ATOM     26  H   UNL     1      -3.864   0.045  -1.392  0.00  0.00    +0.149 HD
BRANCH  23  27
ATOM     27  C   UNL     1      -2.826  -0.338   0.420  0.00  0.00    +0.139 C 
BRANCH  27  33
ATOM     28  C   UNL     1      -4.655   0.931   1.564  0.00  0.00    +0.009 A 
ATOM     29  C   UNL     1      -5.211   2.109   2.024  0.00  0.00    +0.046 A 
ATOM     30  C   UNL     1      -4.541   3.309   1.840  0.00  0.00    +0.127 A 
ATOM     31  C   UNL     1      -3.313   3.324   1.194  0.00  0.00    +0.046 A 
ATOM     32  C   UNL     1      -2.761   2.144   0.736  0.00  0.00    +0.009 A 
ATOM     33  C   UNL     1      -3.431   0.948   0.921  0.00  0.00    -0.030 A 
BRANCH  30  34
ATOM     34  O   UNL     1      -5.087   4.470   2.291  0.00  0.00    -0.434 OA
BRANCH  34  35
ATOM     35  C   UNL     1      -4.341   5.668   2.067  0.00  0.00    +0.541 C 
ATOM     36  F   UNL     1      -3.096   5.567   2.698  0.00  0.00    -0.166 F 
ATOM     37  F   UNL     1      -4.153   5.850   0.693  0.00  0.00    -0.166 F 
ENDBRANCH  34  35
ENDBRANCH  30  34
ENDBRANCH  27  33
ENDBRANCH  23  27
ENDBRANCH   1  24
TORSDOF 6
