REMARK  Name = ZINC36970330
REMARK  5 active torsions:
REMARK  status: ('A' for Active; 'I' for Inactive)
REMARK    1  A    between atoms: C_1  and  C_2
REMARK    2  A    between atoms: C_2  and  C_4
REMARK    3  A    between atoms: C_2  and  N_12
REMARK    4  A    between atoms: N_12  and  C_13
REMARK    5  A    between atoms: C_18  and  N_19
REMARK                            x       y       z     vdW  Elec       q    Type
REMARK                         _______ _______ _______ _____ _____    ______ ____
ROOT
ATOM      1  N   UNL     1       0.608  -0.990  -1.155  0.00  0.00    -0.335 N 
ATOM      2  H   UNL     1       1.549  -1.223  -1.136  0.00  0.00    +0.147 HD
ENDROOT
BRANCH   1   3
ATOM      3  C   UNL     1      -0.059  -0.869  -2.376  0.00  0.00    +0.060 A 
ATOM      4  C   UNL     1      -1.430  -0.651  -2.402  0.00  0.00    +0.045 A 
ATOM      5  C   UNL     1      -2.086  -0.531  -3.613  0.00  0.00    +0.043 A 
ATOM      6  C   UNL     1      -1.377  -0.629  -4.798  0.00  0.00    +0.022 A 
ATOM      7  C   UNL     1      -0.012  -0.847  -4.774  0.00  0.00    +0.036 A 
ATOM      8  C   UNL     1       0.650  -0.960  -3.567  0.00  0.00    +0.147 A 
ATOM      9 CL   UNL     1      -3.800  -0.259  -3.648  0.00  0.00    -0.083 Cl
BRANCH   8  10
ATOM     10  N   UNL     1       2.112  -1.187  -3.543  0.00  0.00    +0.058 N 
ATOM     11  O   UNL     1       2.792  -0.656  -2.696  0.00  0.00    -0.126 OA
ATOM     12  O   UNL     1       2.627  -1.902  -4.371  0.00  0.00    -0.126 OA
ENDBRANCH   8  10
ENDBRANCH   1   3
BRANCH   1  14
ATOM     13  C   UNL     1      -0.125   0.732   0.420  0.00  0.00    +0.033 C 
ATOM     14  C   UNL     1      -0.115  -0.764   0.100  0.00  0.00    +0.098 C 
BRANCH  14  15
ATOM     15  C   UNL     1       0.568  -1.512   1.215  0.00  0.00    -0.026 A 
ATOM     16  C   UNL     1       1.948  -1.546   1.280  0.00  0.00    +0.008 A 
ATOM     17  C   UNL     1       2.577  -2.232   2.302  0.00  0.00    +0.040 A 
ATOM     18  C   UNL     1       1.823  -2.885   3.263  0.00  0.00    +0.142 A 
ATOM     19  C   UNL     1       0.440  -2.850   3.197  0.00  0.00    +0.076 A 
ATOM     20  C   UNL     1      -0.186  -2.159   2.176  0.00  0.00    +0.028 A 
ATOM     21 CL   UNL     1      -0.507  -3.668   4.401  0.00  0.00    -0.081 Cl
ATOM     22  F   UNL     1       2.436  -3.555   4.262  0.00  0.00    -0.204 F 
ENDBRANCH  14  15
ENDBRANCH   1  14
TORSDOF 4
