REMARK  Name = ZINC51711415
REMARK  5 active torsions:
REMARK  status: ('A' for Active; 'I' for Inactive)
REMARK    1  A    between atoms: C_4  and  C_7
REMARK    2  A    between atoms: C_7  and  C_8
REMARK    3  A    between atoms: C_7  and  N_16
REMARK    4  A    between atoms: C_8  and  C_9
REMARK    5  A    between atoms: C_23  and  C_25
REMARK                            x       y       z     vdW  Elec       q    Type
REMARK                         _______ _______ _______ _____ _____    ______ ____
ROOT
ATOM      1  C   UNL     1       3.709  -0.707  -0.037  0.00  0.00    +0.109 C 
ENDROOT
BRANCH   1   2
ATOM      2  N   UNL     1       3.630  -1.873   0.845  0.00  0.00    -0.292 N 
ATOM      3  C   UNL     1       3.871  -1.738   2.164  0.00  0.00    +0.303 C 
ATOM      4  O   UNL     1       4.244  -0.669   2.608  0.00  0.00    -0.253 OA
ATOM      5  N   UNL     1       3.698  -2.788   2.992  0.00  0.00    -0.280 N 
ATOM      6  C   UNL     1       3.843  -2.635   4.449  0.00  0.00    +0.137 C 
ATOM      7  C   UNL     1       2.605  -3.237   5.123  0.00  0.00    +0.180 C 
ATOM      8  O   UNL     1       2.406  -4.568   4.640  0.00  0.00    -0.364 OA
ATOM      9  C   UNL     1       2.145  -4.649   3.237  0.00  0.00    +0.221 C 
ATOM     10  C   UNL     1       3.354  -4.118   2.467  0.00  0.00    +0.150 C 
ATOM     11  H   UNL     1       3.405  -2.743   0.480  0.00  0.00    +0.151 HD
BRANCH   9  12
ATOM     12  C   UNL     1       1.892  -6.084   2.854  0.00  0.00    +0.241 C 
ATOM     13  O   UNL     1       2.021  -6.964   3.679  0.00  0.00    -0.273 OA
ATOM     14  N   UNL     1       1.524  -6.391   1.594  0.00  0.00    -0.327 N 
ATOM     15  H   UNL     1       1.421  -5.687   0.934  0.00  0.00    +0.145 HD
ATOM     16  H   UNL     1       1.361  -7.315   1.348  0.00  0.00    +0.145 HD
ENDBRANCH   9  12
ENDBRANCH   1   2
BRANCH   1  20
ATOM     17  C   UNL     1      -0.022   1.373   0.010  0.00  0.00    +0.000 A 
ATOM     18  C   UNL     1       1.165   2.082   0.003  0.00  0.00    +0.000 A 
ATOM     19  C   UNL     1       2.372   1.409  -0.012  0.00  0.00    +0.005 A 
ATOM     20  C   UNL     1       2.393   0.027  -0.020  0.00  0.00    -0.027 A 
ATOM     21  C   UNL     1       1.207  -0.683  -0.011  0.00  0.00    +0.005 A 
ATOM     22  C   UNL     1      -0.001  -0.010   0.002  0.00  0.00    +0.000 A 
ENDBRANCH   1  20
BRANCH   1  23
ATOM     23  C   UNL     1       4.018  -1.167  -1.464  0.00  0.00    +0.062 C 
BRANCH  23  24
ATOM     24  C   UNL     1       5.389  -1.791  -1.505  0.00  0.00    -0.045 A 
ATOM     25  C   UNL     1       6.498  -1.007  -1.759  0.00  0.00    +0.005 A 
ATOM     26  C   UNL     1       7.756  -1.579  -1.796  0.00  0.00    +0.020 A 
ATOM     27  C   UNL     1       7.904  -2.937  -1.580  0.00  0.00    +0.041 A 
ATOM     28  C   UNL     1       6.793  -3.722  -1.325  0.00  0.00    +0.020 A 
ATOM     29  C   UNL     1       5.537  -3.148  -1.282  0.00  0.00    +0.005 A 
ATOM     30 CL   UNL     1       9.483  -3.657  -1.627  0.00  0.00    -0.084 Cl
ENDBRANCH  23  24
ENDBRANCH   1  23
TORSDOF 5
