REMARK  Name = ZINC02953022
REMARK  6 active torsions:
REMARK  status: ('A' for Active; 'I' for Inactive)
REMARK    1  A    between atoms: C_4  and  O_7
REMARK    2  A    between atoms: O_7  and  S_8
REMARK    3  A    between atoms: S_8  and  C_11
REMARK    4  A    between atoms: C_13  and  S_24
REMARK    5  A    between atoms: S_24  and  O_27
REMARK    6  A    between atoms: O_27  and  C_28
REMARK                            x       y       z     vdW  Elec       q    Type
REMARK                         _______ _______ _______ _____ _____    ______ ____
ROOT
ATOM      1  C   UNL     1      -1.899   1.768   0.407  0.00  0.00    +0.138 A 
ATOM      2  C   UNL     1      -2.973   2.614   0.353  0.00  0.00    +0.063 A 
ATOM      3  C   UNL     1      -2.874   3.990   0.560  0.00  0.00    +0.152 A 
ATOM      4  C   UNL     1      -1.645   4.560   0.835  0.00  0.00    +0.071 A 
ATOM      5  C   UNL     1      -0.563   3.688   0.886  0.00  0.00    +0.019 A 
ATOM      6  C   UNL     1      -0.632   2.310   0.678  0.00  0.00    +0.013 A 
ATOM      7  C   UNL     1       0.569   1.585   0.774  0.00  0.00    +0.010 A 
ATOM      8  C   UNL     1       1.729   2.257   1.049  0.00  0.00    +0.001 A 
ATOM      9  C   UNL     1       1.781   3.637   1.249  0.00  0.00    +0.014 A 
ATOM     10  C   UNL     1       0.621   4.386   1.170  0.00  0.00    +0.047 A 
ATOM     11  C   UNL     1       0.193   5.784   1.296  0.00  0.00    +0.249 C 
ATOM     12  O   UNL     1       0.914   6.733   1.543  0.00  0.00    -0.270 OA
ATOM     13  N   UNL     1      -1.150   5.833   1.091  0.00  0.00    -0.279 N 
ATOM     14  H   UNL     1      -1.686   6.641   1.118  0.00  0.00    +0.155 HD
ENDROOT
BRANCH   1  15
ATOM     15  S   UNL     1      -2.100   0.039   0.135  0.00  0.00    +0.152 S 
ATOM     16  O   UNL     1      -1.145  -0.331  -0.850  0.00  0.00    -0.131 OA
ATOM     17  O   UNL     1      -2.147  -0.571   1.417  0.00  0.00    -0.131 OA
BRANCH  15  18
ATOM     18  O   UNL     1      -3.472  -0.162  -0.493  0.00  0.00    -0.342 OA
BRANCH  18  22
ATOM     19  C   UNL     1      -3.633   0.775  -4.507  0.00  0.00    +0.000 A 
ATOM     20  C   UNL     1      -3.194  -0.473  -4.107  0.00  0.00    +0.004 A 
ATOM     21  C   UNL     1      -3.139  -0.789  -2.763  0.00  0.00    +0.048 A 
ATOM     22  C   UNL     1      -3.525   0.147  -1.815  0.00  0.00    +0.157 A 
ATOM     23  C   UNL     1      -3.971   1.397  -2.220  0.00  0.00    +0.048 A 
ATOM     24  C   UNL     1      -4.018   1.710  -3.564  0.00  0.00    +0.004 A 
ENDBRANCH  18  22
ENDBRANCH  15  18
ENDBRANCH   1  15
BRANCH   3  25
ATOM     25  S   UNL     1      -4.315   5.000   0.471  0.00  0.00    +0.153 S 
ATOM     26  O   UNL     1      -4.297   5.835   1.620  0.00  0.00    -0.131 OA
ATOM     27  O   UNL     1      -4.363   5.523  -0.850  0.00  0.00    -0.131 OA
BRANCH  25  28
ATOM     28  O   UNL     1      -5.519   4.082   0.620  0.00  0.00    -0.342 OA
BRANCH  28  29
ATOM     29  C   UNL     1      -5.771   3.704   1.900  0.00  0.00    +0.157 A 
ATOM     30  C   UNL     1      -5.294   2.490   2.373  0.00  0.00    +0.048 A 
ATOM     31  C   UNL     1      -5.546   2.111   3.678  0.00  0.00    +0.004 A 
ATOM     32  C   UNL     1      -6.284   2.934   4.508  0.00  0.00    +0.000 A 
ATOM     33  C   UNL     1      -6.766   4.142   4.037  0.00  0.00    +0.004 A 
ATOM     34  C   UNL     1      -6.511   4.528   2.736  0.00  0.00    +0.048 A 
ENDBRANCH  28  29
ENDBRANCH  25  28
ENDBRANCH   3  25
TORSDOF 6
