REMARK  Name = ZINC09312839
REMARK  15 active torsions:
REMARK  status: ('A' for Active; 'I' for Inactive)
REMARK    1  A    between atoms: C_1  and  C_2
REMARK    2  A    between atoms: C_2  and  N_71
REMARK    3  A    between atoms: C_3  and  C_4
REMARK    4  A    between atoms: C_3  and  N_71
REMARK    5  A    between atoms: C_5  and  C_6
REMARK    6  A    between atoms: C_5  and  N_71
REMARK    7  A    between atoms: C_6  and  C_7
REMARK    8  A    between atoms: C_7  and  N_8
REMARK    9  A    between atoms: C_9  and  C_29
REMARK   10  A    between atoms: C_12  and  C_13
REMARK   11  A    between atoms: C_12  and  O_24
REMARK   12  A    between atoms: C_20  and  C_23
REMARK   13  A    between atoms: C_32  and  C_35
REMARK   14  A    between atoms: C_35  and  O_37
REMARK   15  A    between atoms: O_37  and  C_38
REMARK                            x       y       z     vdW  Elec       q    Type
REMARK                         _______ _______ _______ _____ _____    ______ ____
ROOT
ATOM      1  N   UNL     1       7.201   0.388  -0.500  0.00  0.00    -0.284 N 
ATOM      2  C   UNL     1       6.302  -0.768  -0.439  0.00  0.00    +0.144 C 
ATOM      3  C   UNL     1       4.896  -0.219  -0.363  0.00  0.00    +0.071 C 
ATOM      4  C   UNL     1       3.724  -0.946  -0.293  0.00  0.00    +0.133 C 
ATOM      5  C   UNL     1       5.022   1.178  -0.372  0.00  0.00    +0.249 C 
ATOM      6  O   UNL     1       4.105   1.978  -0.319  0.00  0.00    -0.282 OA
ATOM      7  C   UNL     1       6.469   1.514  -0.458  0.00  0.00    +0.288 C 
ATOM      8  O   UNL     1       6.922   2.640  -0.486  0.00  0.00    -0.266 OA
ENDROOT
BRANCH   4   9
ATOM      9  C   UNL     1       2.426  -0.256  -0.353  0.00  0.00    +0.017 A 
ATOM     10  C   UNL     1       1.424  -0.554   0.580  0.00  0.00    +0.015 A 
ATOM     11  C   UNL     1       0.212   0.089   0.520  0.00  0.00    +0.046 A 
ATOM     12  C   UNL     1      -0.035   1.044  -0.469  0.00  0.00    +0.124 A 
ATOM     13  C   UNL     1       0.967   1.343  -1.389  0.00  0.00    -0.002 A 
ATOM     14  C   UNL     1       2.181   0.705  -1.342  0.00  0.00    +0.019 A 
ATOM     15  C   UNL     1       0.419   2.418  -2.308  0.00  0.00    +0.083 C 
ATOM     16  C   UNL     1      -0.816   2.913  -1.519  0.00  0.00    +0.175 C 
ATOM     17  O   UNL     1      -1.157   1.773  -0.712  0.00  0.00    -0.488 OA
ATOM     18  C   UNL     1      -1.962   3.264  -2.471  0.00  0.00    +0.052 C 
ENDBRANCH   4   9
BRANCH   2  19
ATOM     19  C   UNL     1       6.462  -1.608  -1.680  0.00  0.00    -0.022 A 
ATOM     20  C   UNL     1       6.642  -0.995  -2.908  0.00  0.00    +0.006 A 
ATOM     21  C   UNL     1       6.793  -1.758  -4.047  0.00  0.00    +0.015 A 
ATOM     22  C   UNL     1       6.754  -3.151  -3.961  0.00  0.00    +0.059 A 
ATOM     23  C   UNL     1       6.567  -3.763  -2.720  0.00  0.00    +0.015 A 
ATOM     24  C   UNL     1       6.422  -2.988  -1.588  0.00  0.00    +0.006 A 
BRANCH  22  25
ATOM     25  C   UNL     1       6.910  -3.975  -5.177  0.00  0.00    +0.339 C 
ATOM     26  O   UNL     1       6.876  -5.186  -5.099  0.00  0.00    -0.245 OA
BRANCH  25  27
ATOM     27  O   UNL     1       7.091  -3.382  -6.373  0.00  0.00    -0.464 OA
ATOM     28  C   UNL     1       7.237  -4.253  -7.526  0.00  0.00    +0.280 C 
ENDBRANCH  25  27
ENDBRANCH  22  25
ENDBRANCH   2  19
BRANCH   4  29
ATOM     29  O   UNL     1       3.769  -2.290  -0.170  0.00  0.00    -0.506 OA
ATOM     30  H   UNL     1       2.838  -2.653  -0.134  0.00  0.00    +0.292 HD
ENDBRANCH   4  29
BRANCH   1  31
ATOM     31  C   UNL     1       8.663   0.326  -0.586  0.00  0.00    +0.107 C 
BRANCH  31  32
ATOM     32  C   UNL     1       9.256   0.306   0.824  0.00  0.00    +0.000 C 
BRANCH  32  33
ATOM     33  C   UNL     1      10.782   0.241   0.735  0.00  0.00    -0.077 C 
BRANCH  33  34
ATOM     34  N   UNL     1      11.340   0.244   2.104  0.00  0.00    +0.379 N 
ATOM     35  H   UNL     1      10.941   1.033   2.625  0.00  0.00    -0.082 HD
BRANCH  34  37
ATOM     36  C   UNL     1      11.605  -2.213   2.070  0.00  0.00    -0.017 C 
ATOM     37  C   UNL     1      10.990  -1.014   2.795  0.00  0.00    -0.082 C 
ENDBRANCH  34  37
BRANCH  34  38
ATOM     38  C   UNL     1      12.809   0.399   2.050  0.00  0.00    -0.082 C 
ATOM     39  C   UNL     1      13.318   0.754   3.448  0.00  0.00    -0.017 C 
ENDBRANCH  34  38
ENDBRANCH  33  34
ENDBRANCH  32  33
ENDBRANCH  31  32
ENDBRANCH   1  31
TORSDOF 11
