REMARK  Name = ZINC62868471
REMARK  4 active torsions:
REMARK  status: ('A' for Active; 'I' for Inactive)
REMARK    1  A    between atoms: C_1  and  C_2
REMARK    2  A    between atoms: C_5  and  C_7
REMARK    3  A    between atoms: C_13  and  C_15
REMARK    4  A    between atoms: C_13  and  C_16
REMARK                            x       y       z     vdW  Elec       q    Type
REMARK                         _______ _______ _______ _____ _____    ______ ____
ROOT
ATOM      1  C   UNL     1       1.656  -3.216  -0.025  0.00  0.00    +0.282 C 
ATOM      2  O   UNL     1       1.218  -4.344   0.106  0.00  0.00    -0.267 OA
ATOM      3  N   UNL     1       2.985  -3.018  -0.132  0.00  0.00    -0.294 N 
ATOM      4  C   UNL     1       3.542  -1.658  -0.123  0.00  0.00    +0.108 C 
ATOM      5  C   UNL     1       4.623  -1.575   0.960  0.00  0.00    +0.020 C 
ATOM      6  C   UNL     1       5.658  -2.678   0.726  0.00  0.00    +0.021 C 
ATOM      7  C   UNL     1       4.981  -4.046   0.824  0.00  0.00    +0.085 C 
ATOM      8  C   UNL     1       3.904  -4.157  -0.254  0.00  0.00    +0.126 C 
ATOM      9  C   UNL     1       4.335  -4.199   2.203  0.00  0.00    +0.024 C 
ENDROOT
BRANCH   1  14
ATOM     10  C   UNL     1      -0.063   1.458  -0.543  0.00  0.00    +0.086 C 
ATOM     11  C   UNL     1      -0.021  -0.027  -0.290  0.00  0.00    +0.103 A 
ATOM     12  C   UNL     1      -1.081  -0.801   0.030  0.00  0.00    +0.045 A 
ATOM     13  C   UNL     1      -0.605  -2.114   0.176  0.00  0.00    +0.055 A 
ATOM     14  C   UNL     1       0.738  -2.073  -0.065  0.00  0.00    +0.190 A 
ATOM     15  O   UNL     1       1.073  -0.798  -0.351  0.00  0.00    -0.455 OA
ENDBRANCH   1  14
BRANCH   7  16
ATOM     16  C   UNL     1       6.007  -5.131   0.626  0.00  0.00    +0.363 C 
ATOM     17  O   UNL     1       5.864  -6.213   1.170  0.00  0.00    -0.246 OA
ATOM     18  O   UNL     1       6.981  -4.928  -0.079  0.00  0.00    -0.246 OA
ENDBRANCH   7  16
TORSDOF 2
