REMARK  Name = ZINC38491704
REMARK  12 active torsions:
REMARK  status: ('A' for Active; 'I' for Inactive)
REMARK    1  A    between atoms: C_1  and  C_2
REMARK    2  A    between atoms: C_4  and  C_38
REMARK    3  A    between atoms: C_6  and  S_8
REMARK    4  A    between atoms: S_8  and  C_9
REMARK    5  A    between atoms: C_9  and  C_10
REMARK    6  A    between atoms: C_11  and  C_23
REMARK    7  A    between atoms: N_14  and  C_15
REMARK    8  A    between atoms: C_18  and  O_21
REMARK    9  A    between atoms: O_21  and  C_22
REMARK   10  A    between atoms: N_25  and  C_26
REMARK   11  A    between atoms: C_26  and  C_27
REMARK   12  A    between atoms: C_27  and  C_28
REMARK                            x       y       z     vdW  Elec       q    Type
REMARK                         _______ _______ _______ _____ _____    ______ ____
ROOT
ATOM      1  C   UNL     1       0.056  -2.148   5.299  0.00  0.00    +0.087 A 
ATOM      2  C   UNL     1      -1.033  -2.497   6.048  0.00  0.00    +0.171 A 
ATOM      3  N   UNL     1      -0.602  -3.003   7.215  0.00  0.00    -0.124 NA
ATOM      4  N   UNL     1       0.685  -2.993   7.242  0.00  0.00    -0.060 NA
ATOM      5  N   UNL     1       1.148  -2.458   6.031  0.00  0.00    -0.215 N 
ENDROOT
BRANCH   5   6
ATOM      6  C   UNL     1       2.487  -2.276   5.654  0.00  0.00    +0.068 A 
ATOM      7  C   UNL     1       2.862  -2.437   4.327  0.00  0.00    +0.031 A 
ATOM      8  C   UNL     1       4.180  -2.259   3.956  0.00  0.00    +0.048 A 
ATOM      9  C   UNL     1       5.129  -1.919   4.910  0.00  0.00    +0.120 A 
ATOM     10  C   UNL     1       4.755  -1.758   6.236  0.00  0.00    +0.048 A 
ATOM     11  C   UNL     1       3.436  -1.931   6.606  0.00  0.00    +0.031 A 
BRANCH   9  12
ATOM     12  O   UNL     1       6.427  -1.744   4.544  0.00  0.00    -0.495 OA
ATOM     13  C   UNL     1       7.350  -1.395   5.577  0.00  0.00    +0.277 C 
ENDBRANCH   9  12
ENDBRANCH   5   6
BRANCH   2  14
ATOM     14  C   UNL     1      -2.443  -2.342   5.643  0.00  0.00    +0.266 C 
ATOM     15  O   UNL     1      -2.715  -1.867   4.556  0.00  0.00    -0.268 OA
ATOM     16  N   UNL     1      -3.430  -2.726   6.476  0.00  0.00    -0.310 N 
ATOM     17  H   UNL     1      -3.213  -3.104   7.343  0.00  0.00    +0.149 HD
BRANCH  16  18
ATOM     18  C   UNL     1      -4.830  -2.572   6.074  0.00  0.00    +0.109 C 
BRANCH  18  19
ATOM     19  C   UNL     1      -5.741  -3.080   7.194  0.00  0.00    +0.056 C 
BRANCH  19  20
ATOM     20  C   UNL     1      -7.181  -2.922   6.780  0.00  0.00    -0.021 A 
ATOM     21  C   UNL     1      -7.987  -1.888   7.071  0.00  0.00    +0.087 A 
ATOM     22  N   UNL     1      -9.225  -2.094   6.527  0.00  0.00    -0.360 N 
ATOM     23  H   UNL     1      -9.976  -1.484   6.603  0.00  0.00    +0.165 HD
ATOM     24  C   UNL     1      -9.247  -3.295   5.854  0.00  0.00    +0.047 A 
ATOM     25  C   UNL     1      -7.966  -3.864   5.978  0.00  0.00    +0.003 A 
ATOM     26  C   UNL     1      -7.691  -5.096   5.383  0.00  0.00    +0.010 A 
ATOM     27  C   UNL     1      -8.667  -5.743   4.680  0.00  0.00    +0.001 A 
ATOM     28  C   UNL     1      -9.931  -5.185   4.551  0.00  0.00    +0.002 A 
ATOM     29  C   UNL     1     -10.228  -3.974   5.138  0.00  0.00    +0.026 A 
ENDBRANCH  19  20
ENDBRANCH  18  19
ENDBRANCH  16  18
ENDBRANCH   2  14
BRANCH   1  30
ATOM     30  C   UNL     1       0.041  -1.542   3.919  0.00  0.00    +0.135 C 
BRANCH  30  31
ATOM     31  S   UNL     1       0.053  -2.864   2.678  0.00  0.00    -0.080 S 
BRANCH  31  37
ATOM     32  C   UNL     1      -0.018   1.503   0.010  0.00  0.00    +0.066 C 
ATOM     33  C   UNL     1       0.002  -0.004   0.002  0.00  0.00    +0.043 A 
ATOM     34  C   UNL     1       0.006  -0.699  -1.198  0.00  0.00    +0.046 A 
ATOM     35  C   UNL     1       0.025  -2.084  -1.161  0.00  0.00    +0.043 A 
ATOM     36  N   UNL     1       0.039  -2.699   0.010  0.00  0.00    -0.227 NA
ATOM     37  C   UNL     1       0.035  -2.005   1.140  0.00  0.00    +0.189 A 
ATOM     38  N   UNL     1       0.022  -0.679   1.139  0.00  0.00    -0.227 NA
ATOM     39  C   UNL     1       0.029  -2.881  -2.440  0.00  0.00    +0.066 C 
ENDBRANCH  31  37
ENDBRANCH  30  31
ENDBRANCH   1  30
TORSDOF 9
