REMARK  Name = ZINC01195365
REMARK  8 active torsions:
REMARK  status: ('A' for Active; 'I' for Inactive)
REMARK    1  A    between atoms: C_1  and  C_2
REMARK    2  A    between atoms: C_7  and  N_8
REMARK    3  A    between atoms: C_9  and  C_11
REMARK    4  A    between atoms: C_11  and  C_29
REMARK    5  A    between atoms: C_12  and  C_13
REMARK    6  A    between atoms: C_15  and  C_28
REMARK    7  A    between atoms: N_16  and  C_19
REMARK    8  A    between atoms: C_17  and  C_18
REMARK                            x       y       z     vdW  Elec       q    Type
REMARK                         _______ _______ _______ _____ _____    ______ ____
ROOT
ATOM      1  C   UNL     1      -0.203   0.169  -0.408  0.00  0.00    -0.003 A 
ATOM      2  C   UNL     1      -0.285   1.621  -0.193  0.00  0.00    +0.031 A 
ATOM      3  C   UNL     1       0.927   2.119  -0.490  0.00  0.00    +0.022 A 
ATOM      4  N   UNL     1       1.752   1.097  -0.871  0.00  0.00    -0.317 N 
ATOM      5  C   UNL     1       1.095  -0.079  -0.828  0.00  0.00    +0.028 A 
ATOM      6  C   UNL     1       1.669  -1.427  -1.177  0.00  0.00    +0.064 C 
ATOM      7  C   UNL     1       1.315   3.573  -0.417  0.00  0.00    +0.064 C 
ENDROOT
BRANCH   4   8
ATOM      8  C   UNL     1       3.093   1.250  -1.251  0.00  0.00    +0.050 A 
ATOM      9  C   UNL     1       3.483   0.961  -2.552  0.00  0.00    +0.030 A 
ATOM     10  C   UNL     1       4.803   1.112  -2.929  0.00  0.00    +0.051 A 
ATOM     11  C   UNL     1       5.742   1.553  -2.010  0.00  0.00    +0.166 A 
ATOM     12  C   UNL     1       5.354   1.845  -0.704  0.00  0.00    +0.168 A 
ATOM     13  C   UNL     1       4.029   1.698  -0.329  0.00  0.00    +0.075 A 
ATOM     14  O   UNL     1       6.451   2.255  -0.004  0.00  0.00    -0.453 OA
ATOM     15  C   UNL     1       7.586   1.822  -0.778  0.00  0.00    +0.466 C 
ATOM     16  O   UNL     1       7.084   1.782  -2.127  0.00  0.00    -0.453 OA
ENDBRANCH   4   8
BRANCH   1  18
ATOM     17  C   UNL     1      -2.345  -0.459   0.536  0.00  0.00    +0.114 C 
ATOM     18  C   UNL     1      -1.238  -0.782  -0.224  0.00  0.00    +0.033 C 
BRANCH  17  20
ATOM     19  N   UNL     1      -4.489  -1.137   1.485  0.00  0.00    -0.281 N 
ATOM     20  C   UNL     1      -3.408  -1.452   0.744  0.00  0.00    +0.259 C 
ATOM     21  O   UNL     1      -3.312  -2.559   0.248  0.00  0.00    -0.269 OA
ATOM     22  H   UNL     1      -4.568  -0.142   1.947  0.00  0.00    +0.155 HD
BRANCH  19  29
ATOM     23  C   UNL     1      -5.952  -1.075   3.925  0.00  0.00    +0.045 C 
ATOM     24  C   UNL     1      -6.248  -2.081   2.843  0.00  0.00    -0.029 A 
ATOM     25  C   UNL     1      -7.256  -3.009   3.019  0.00  0.00    +0.005 A 
ATOM     26  C   UNL     1      -7.529  -3.932   2.026  0.00  0.00    +0.000 A 
ATOM     27  C   UNL     1      -6.796  -3.929   0.854  0.00  0.00    +0.002 A 
ATOM     28  C   UNL     1      -5.790  -3.001   0.670  0.00  0.00    +0.023 A 
ATOM     29  C   UNL     1      -5.509  -2.076   1.667  0.00  0.00    +0.037 A 
ENDBRANCH  19  29
ENDBRANCH  17  20
BRANCH  17  30
ATOM     30  C   UNL     1      -2.458   0.843   1.120  0.00  0.00    +0.104 C 
ATOM     31  N   UNL     1      -2.547   1.877   1.583  0.00  0.00    -0.191 NA
ENDBRANCH  17  30
ENDBRANCH   1  18
TORSDOF 5
