REMARK  Name = ZINC43262954
REMARK  12 active torsions:
REMARK  status: ('A' for Active; 'I' for Inactive)
REMARK    1  A    between atoms: C_1  and  C_2
REMARK    2  A    between atoms: C_2  and  C_3
REMARK    3  A    between atoms: C_3  and  C_5
REMARK    4  A    between atoms: C_3  and  N_22
REMARK    5  A    between atoms: C_5  and  C_7
REMARK    6  A    between atoms: C_5  and  N_13
REMARK    7  A    between atoms: N_13  and  C_14
REMARK    8  A    between atoms: N_13  and  C_15
REMARK    9  A    between atoms: C_15  and  C_16
REMARK   10  A    between atoms: N_18  and  C_19
REMARK   11  A    between atoms: C_19  and  C_20
REMARK   12  A    between atoms: C_19  and  C_21
REMARK                            x       y       z     vdW  Elec       q    Type
REMARK                         _______ _______ _______ _____ _____    ______ ____
ROOT
ATOM      1  C   UNL     1      -1.294  -2.070  -0.067  0.00  0.00    -0.045 C 
ENDROOT
BRANCH   1   2
ATOM      2  C   UNL     1      -2.681  -2.652  -0.154  0.00  0.00    -0.024 A 
ATOM      3  C   UNL     1      -3.425  -3.236   0.818  0.00  0.00    +0.010 A 
ATOM      4  C   UNL     1      -4.688  -3.704   0.506  0.00  0.00    +0.023 A 
ATOM      5  C   UNL     1      -5.145  -3.565  -0.763  0.00  0.00    +0.055 A 
ATOM      6  S   UNL     1      -3.775  -2.745  -1.562  0.00  0.00    -0.088 S 
ATOM      7 BR   UNL     1      -6.806  -4.096  -1.495  0.00  0.00    -0.043 Br
ENDBRANCH   1   2
BRANCH   1   8
ATOM      8  N   UNL     1      -0.542  -2.412  -1.282  0.00  0.00    +0.387 N 
ATOM      9  C   UNL     1       0.832  -1.907  -1.165  0.00  0.00    -0.095 C 
ATOM     10  H   UNL     1      -0.989  -1.991  -2.083  0.00  0.00    -0.081 HD
BRANCH   8  11
ATOM     11  C   UNL     1      -0.515  -3.872  -1.446  0.00  0.00    +0.019 C 
BRANCH  11  12
ATOM     12  C   UNL     1       0.148  -4.217  -2.755  0.00  0.00    +0.197 C 
ATOM     13  O   UNL     1       0.558  -3.334  -3.478  0.00  0.00    -0.278 OA
ATOM     14  N   UNL     1       0.286  -5.507  -3.120  0.00  0.00    -0.315 N 
ATOM     15  H   UNL     1      -0.042  -6.213  -2.541  0.00  0.00    +0.149 HD
BRANCH  14  16
ATOM     16  C   UNL     1       0.932  -5.843  -4.392  0.00  0.00    +0.067 C 
ATOM     17  C   UNL     1       1.519  -7.253  -4.309  0.00  0.00    +0.027 C 
ATOM     18  C   UNL     1      -0.102  -5.787  -5.519  0.00  0.00    +0.027 C 
ENDBRANCH  14  16
ENDBRANCH  11  12
ENDBRANCH   8  11
ENDBRANCH   1   8
BRANCH   1  19
ATOM     19  C   UNL     1      -1.387  -0.549   0.065  0.00  0.00    -0.085 C 
BRANCH  19  20
ATOM     20  N   UNL     1      -2.166  -0.007  -1.056  0.00  0.00    +0.379 N 
ATOM     21  H   UNL     1      -3.094  -0.403  -1.043  0.00  0.00    -0.090 HD
ATOM     22  H   UNL     1      -2.228   0.996  -0.970  0.00  0.00    -0.090 HD
ATOM     23  H   UNL     1      -1.713  -0.242  -1.926  0.00  0.00    -0.090 HD
ENDBRANCH  19  20
BRANCH  19  25
ATOM     24  C   UNL     1      -2.030   1.324   1.589  0.00  0.00    +0.002 C 
ATOM     25  C   UNL     1      -2.075  -0.192   1.384  0.00  0.00    -0.021 C 
ENDBRANCH  19  25
ENDBRANCH   1  19
TORSDOF 8
