REMARK  Name = ZINC00718365
REMARK  9 active torsions:
REMARK  status: ('A' for Active; 'I' for Inactive)
REMARK    1  A    between atoms: C_1  and  O_2
REMARK    2  A    between atoms: O_2  and  C_3
REMARK    3  A    between atoms: C_7  and  C_18
REMARK    4  A    between atoms: C_8  and  O_9
REMARK    5  A    between atoms: O_9  and  C_10
REMARK    6  A    between atoms: C_10  and  C_11
REMARK    7  A    between atoms: C_20  and  C_37
REMARK    8  A    between atoms: C_21  and  N_36
REMARK    9  A    between atoms: C_28  and  C_31
REMARK                            x       y       z     vdW  Elec       q    Type
REMARK                         _______ _______ _______ _____ _____    ______ ____
ROOT
ATOM      1  C   UNL     1       2.530   1.111   0.095  0.00  0.00    +0.105 C 
ATOM      2  C   UNL     1       2.676   0.388   1.405  0.00  0.00    +0.098 C 
ATOM      3  C   UNL     1       2.484  -0.949   1.478  0.00  0.00    +0.198 C 
ATOM      4  O   UNL     1       2.156  -1.667   0.393  0.00  0.00    -0.445 OA
ATOM      5  C   UNL     1       2.432  -1.188  -0.835  0.00  0.00    +0.115 C 
ATOM      6  C   UNL     1       2.614   0.129  -1.048  0.00  0.00    +0.046 C 
ATOM      7  C   UNL     1       2.884   0.631  -2.336  0.00  0.00    +0.164 C 
ATOM      8  O   UNL     1       3.058   1.824  -2.486  0.00  0.00    -0.292 OA
ATOM      9  C   UNL     1       2.961  -0.283  -3.528  0.00  0.00    +0.091 C 
ATOM     10  C   UNL     1       2.073  -1.506  -3.274  0.00  0.00    +0.070 C 
ATOM     11  C   UNL     1       2.529  -2.174  -1.975  0.00  0.00    +0.086 C 
ENDROOT
BRANCH   1  16
ATOM     12  C   UNL     1      -0.093   3.839   0.065  0.00  0.00    +0.162 A 
ATOM     13  C   UNL     1      -1.259   3.094  -0.017  0.00  0.00    +0.049 A 
ATOM     14  C   UNL     1      -1.194   1.714  -0.068  0.00  0.00    +0.004 A 
ATOM     15  C   UNL     1       0.031   1.074  -0.025  0.00  0.00    +0.008 A 
ATOM     16  C   UNL     1       1.197   1.811   0.056  0.00  0.00    +0.011 A 
ATOM     17  C   UNL     1       1.140   3.195   0.102  0.00  0.00    +0.166 A 
BRANCH  12  19
ATOM     18  C   UNL     1      -1.455   5.789   0.068  0.00  0.00    +0.277 C 
ATOM     19  O   UNL     1      -0.155   5.197   0.109  0.00  0.00    -0.491 OA
ENDBRANCH  12  19
BRANCH  17  20
ATOM     20  O   UNL     1       2.286   3.922   0.183  0.00  0.00    -0.483 OA
BRANCH  20  21
ATOM     21  C   UNL     1       2.802   4.458  -1.037  0.00  0.00    +0.264 C 
BRANCH  21  22
ATOM     22  C   UNL     1       4.130   5.120  -0.773  0.00  0.00    -0.010 A 
ATOM     23  C   UNL     1       4.179   6.461  -0.441  0.00  0.00    +0.010 A 
ATOM     24  C   UNL     1       5.396   7.068  -0.194  0.00  0.00    +0.039 A 
ATOM     25  C   UNL     1       6.566   6.335  -0.290  0.00  0.00    +0.123 A 
ATOM     26  C   UNL     1       6.517   4.994  -0.629  0.00  0.00    +0.039 A 
ATOM     27  C   UNL     1       5.298   4.387  -0.870  0.00  0.00    +0.010 A 
ATOM     28  F   UNL     1       7.757   6.929  -0.053  0.00  0.00    -0.205 F 
ENDBRANCH  21  22
ENDBRANCH  20  21
ENDBRANCH  17  20
ENDBRANCH   1  16
BRANCH  10  29
ATOM     29  C   UNL     1       2.210  -2.478  -4.418  0.00  0.00    +0.109 A 
ATOM     30  C   UNL     1       1.213  -2.895  -5.218  0.00  0.00    +0.045 A 
ATOM     31  C   UNL     1       1.783  -3.795  -6.148  0.00  0.00    +0.041 A 
ATOM     32  C   UNL     1       3.095  -3.873  -5.860  0.00  0.00    +0.195 A 
ATOM     33  O   UNL     1       3.349  -3.068  -4.815  0.00  0.00    -0.468 OA
ENDBRANCH  10  29
BRANCH   3  34
ATOM     34  N   UNL     1       2.628  -1.585   2.686  0.00  0.00    -0.328 N 
ATOM     35  H   UNL     1       2.493  -2.543   2.749  0.00  0.00    +0.145 HD
ATOM     36  H   UNL     1       2.865  -1.076   3.477  0.00  0.00    +0.145 HD
ENDBRANCH   3  34
BRANCH   2  37
ATOM     37  C   UNL     1       3.020   1.119   2.587  0.00  0.00    +0.101 C 
ATOM     38  N   UNL     1       3.292   1.700   3.525  0.00  0.00    -0.191 NA
ENDBRANCH   2  37
TORSDOF 8
