REMARK  Name = ZINC06187601
REMARK  6 active torsions:
REMARK  status: ('A' for Active; 'I' for Inactive)
REMARK    1  A    between atoms: C_1  and  C_2
REMARK    2  A    between atoms: C_15  and  C_17
REMARK    3  A    between atoms: C_17  and  N_53
REMARK    4  A    between atoms: C_18  and  N_53
REMARK    5  A    between atoms: C_19  and  C_20
REMARK    6  A    between atoms: C_19  and  N_53
REMARK                            x       y       z     vdW  Elec       q    Type
REMARK                         _______ _______ _______ _____ _____    ______ ____
ROOT
ATOM      1  C   UNL     1      -0.013   1.086   0.008  0.00  0.00    -0.003 C 
ENDROOT
BRANCH   1  15
ATOM      2  C   UNL     1      -5.490   4.938  -7.409  0.00  0.00    +0.008 C 
ATOM      3  C   UNL     1      -4.391   4.537  -6.423  0.00  0.00    -0.009 C 
ATOM      4  C   UNL     1      -3.852   3.151  -6.792  0.00  0.00    +0.008 C 
ATOM      5  C   UNL     1      -2.594   2.850  -5.977  0.00  0.00    +0.037 C 
ATOM      6  C   UNL     1      -2.901   3.064  -4.498  0.00  0.00    -0.023 A 
ATOM      7  C   UNL     1      -3.968   3.797  -4.115  0.00  0.00    -0.004 A 
ATOM      8  S   UNL     1      -3.930   3.773  -2.343  0.00  0.00    -0.073 S 
ATOM      9  C   UNL     1      -2.478   2.777  -2.122  0.00  0.00    +0.116 A 
ATOM     10  C   UNL     1      -2.071   2.497  -3.436  0.00  0.00    +0.075 A 
ATOM     11  C   UNL     1      -0.894   1.689  -3.563  0.00  0.00    +0.260 A 
ATOM     12  O   UNL     1      -0.462   1.391  -4.663  0.00  0.00    -0.267 OA
ATOM     13  N   UNL     1      -0.271   1.267  -2.446  0.00  0.00    -0.312 N 
ATOM     14  H   UNL     1       0.554   0.709  -2.527  0.00  0.00    +0.170 HD
ATOM     15  C   UNL     1      -0.742   1.585  -1.213  0.00  0.00    +0.094 A 
ATOM     16  N   UNL     1      -1.811   2.320  -1.065  0.00  0.00    -0.229 NA
ATOM     17  C   UNL     1      -4.965   4.480  -5.001  0.00  0.00    +0.046 C 
ENDBRANCH   1  15
BRANCH   1  19
ATOM     18  C   UNL     1      -2.034   0.955   1.335  0.00  0.00    -0.095 C 
ATOM     19  N   UNL     1      -0.704   1.588   1.214  0.00  0.00    +0.387 N 
ATOM     20  H   UNL     1      -0.824   2.604   1.131  0.00  0.00    -0.081 HD
BRANCH  19  21
ATOM     21  C   UNL     1       0.104   1.297   2.417  0.00  0.00    -0.003 C 
BRANCH  21  22
ATOM     22  C   UNL     1      -0.508   2.007   3.597  0.00  0.00    +0.095 A 
ATOM     23  N   UNL     1      -1.348   1.318   4.389  0.00  0.00    -0.344 N 
ATOM     24  H   UNL     1      -1.550   0.360   4.184  0.00  0.00    +0.167 HD
ATOM     25  C   UNL     1      -1.935   1.924   5.483  0.00  0.00    +0.053 A 
ATOM     26  C   UNL     1      -2.806   1.242   6.321  0.00  0.00    +0.026 A 
ATOM     27  C   UNL     1      -3.365   1.893   7.400  0.00  0.00    +0.002 A 
ATOM     28  C   UNL     1      -3.065   3.223   7.659  0.00  0.00    +0.001 A 
ATOM     29  C   UNL     1      -2.202   3.917   6.838  0.00  0.00    +0.015 A 
ATOM     30  C   UNL     1      -1.631   3.272   5.744  0.00  0.00    +0.065 A 
ATOM     31  C   UNL     1      -0.700   3.958   4.830  0.00  0.00    +0.281 A 
ATOM     32  O   UNL     1      -0.398   5.126   5.003  0.00  0.00    -0.265 OA
ATOM     33  N   UNL     1      -0.190   3.255   3.800  0.00  0.00    -0.197 NA
ENDBRANCH  21  22
ENDBRANCH  19  21
ENDBRANCH   1  19
TORSDOF 4
