REMARK  Name = ZINC50047253
REMARK  5 active torsions:
REMARK  status: ('A' for Active; 'I' for Inactive)
REMARK    1  A    between atoms: C_4  and  S_8
REMARK    2  A    between atoms: C_5  and  O_7
REMARK    3  A    between atoms: S_8  and  C_9
REMARK    4  A    between atoms: C_12  and  N_19
REMARK    5  A    between atoms: C_13  and  C_15
REMARK                            x       y       z     vdW  Elec       q    Type
REMARK                         _______ _______ _______ _____ _____    ______ ____
ROOT
ATOM      1  C   UNL     1       5.253   0.365  -0.047  0.00  0.00    +0.014 A 
ATOM      2  C   UNL     1       4.965   1.721   0.049  0.00  0.00    +0.017 A 
ATOM      3  C   UNL     1       5.991   2.645   0.044  0.00  0.00    +0.034 A 
ATOM      4  C   UNL     1       7.304   2.222  -0.056  0.00  0.00    +0.138 A 
ATOM      5  C   UNL     1       7.595   0.874  -0.152  0.00  0.00    +0.086 A 
ATOM      6  C   UNL     1       6.574  -0.057  -0.142  0.00  0.00    +0.029 A 
ENDROOT
BRANCH   5   7
ATOM      7  C   UNL     1       9.027   0.418  -0.262  0.00  0.00    +0.420 C 
ATOM      8  F   UNL     1       9.067  -0.978  -0.347  0.00  0.00    -0.166 F 
ATOM      9  F   UNL     1       9.605   0.972  -1.410  0.00  0.00    -0.166 F 
ATOM     10  F   UNL     1       9.738   0.838   0.867  0.00  0.00    -0.166 F 
ENDBRANCH   5   7
BRANCH   4  11
ATOM     11  N   UNL     1       8.401   3.216  -0.061  0.00  0.00    +0.057 N 
ATOM     12  O   UNL     1       8.149   4.395   0.023  0.00  0.00    -0.126 OA
ATOM     13  O   UNL     1       9.550   2.848  -0.148  0.00  0.00    -0.126 OA
ENDBRANCH   4  11
BRANCH   1  14
ATOM     14  S   UNL     1       3.947  -0.818  -0.042  0.00  0.00    -0.086 S 
BRANCH  14  18
ATOM     15  C   UNL     1       3.149  -1.589  -4.436  0.00  0.00    +0.004 A 
ATOM     16  C   UNL     1       4.052  -0.613  -4.058  0.00  0.00    +0.001 A 
ATOM     17  C   UNL     1       4.298  -0.376  -2.719  0.00  0.00    +0.019 A 
ATOM     18  C   UNL     1       3.636  -1.118  -1.750  0.00  0.00    +0.054 A 
ATOM     19  C   UNL     1       2.726  -2.101  -2.132  0.00  0.00    +0.131 A 
ATOM     20  C   UNL     1       2.486  -2.333  -3.477  0.00  0.00    +0.046 A 
BRANCH  19  21
ATOM     21  O   UNL     1       2.074  -2.831  -1.188  0.00  0.00    -0.506 OA
ATOM     22  H   UNL     1       1.235  -2.445  -0.902  0.00  0.00    +0.292 HD
ENDBRANCH  19  21
ENDBRANCH  14  18
ENDBRANCH   1  14
TORSDOF 5
