REMARK  Name = ZINC36610291
REMARK  13 active torsions:
REMARK  status: ('A' for Active; 'I' for Inactive)
REMARK    1  A    between atoms: C_1  and  C_2
REMARK    2  A    between atoms: C_2  and  C_3
REMARK    3  A    between atoms: C_2  and  C_4
REMARK    4  A    between atoms: C_2  and  N_5
REMARK    5  A    between atoms: C_6  and  C_8
REMARK    6  A    between atoms: C_8  and  C_10
REMARK    7  A    between atoms: C_8  and  N_23
REMARK    8  A    between atoms: C_10  and  C_11
REMARK    9  A    between atoms: C_10  and  C_17
REMARK   10  A    between atoms: N_23  and  C_24
REMARK   11  A    between atoms: C_30  and  C_32
REMARK   12  A    between atoms: C_36  and  O_39
REMARK   13  A    between atoms: C_37  and  O_38
REMARK                            x       y       z     vdW  Elec       q    Type
REMARK                         _______ _______ _______ _____ _____    ______ ____
ROOT
ATOM      1  C   UNL     1       1.956  -0.253  -2.686  0.00  0.00    +0.179 C 
ENDROOT
BRANCH   1   3
ATOM      2  N   UNL     1      -0.171  -0.346  -1.426  0.00  0.00    -0.309 N 
ATOM      3  C   UNL     1       0.921   0.361  -1.780  0.00  0.00    +0.235 C 
ATOM      4  O   UNL     1       1.069   1.493  -1.368  0.00  0.00    -0.274 OA
ATOM      5  H   UNL     1      -0.290  -1.251  -1.755  0.00  0.00    +0.149 HD
BRANCH   2   7
ATOM      6  C   UNL     1      -1.749   1.509  -1.202  0.00  0.00    +0.031 C 
ATOM      7  C   UNL     1      -1.177   0.251  -0.545  0.00  0.00    +0.026 C 
ATOM      8  C   UNL     1      -0.530   0.623   0.790  0.00  0.00    +0.031 C 
ATOM      9  C   UNL     1      -2.304  -0.755  -0.302  0.00  0.00    +0.031 C 
ENDBRANCH   2   7
ENDBRANCH   1   3
BRANCH   1  10
ATOM     10  N   UNL     1       3.035   0.711  -2.918  0.00  0.00    -0.255 N 
ATOM     11  C   UNL     1       3.394   1.030  -4.177  0.00  0.00    +0.255 C 
ATOM     12  O   UNL     1       2.822   0.518  -5.121  0.00  0.00    -0.269 OA
BRANCH  10  13
ATOM     13  C   UNL     1       3.692   1.299  -1.833  0.00  0.00    +0.037 A 
ATOM     14  C   UNL     1       3.639   2.675  -1.650  0.00  0.00    +0.023 A 
ATOM     15  C   UNL     1       4.290   3.253  -0.578  0.00  0.00    +0.002 A 
ATOM     16  C   UNL     1       4.993   2.463   0.314  0.00  0.00    +0.000 A 
ATOM     17  C   UNL     1       5.049   1.093   0.134  0.00  0.00    +0.002 A 
ATOM     18  C   UNL     1       4.395   0.508  -0.933  0.00  0.00    +0.023 A 
ENDBRANCH  10  13
BRANCH  11  19
ATOM     19  C   UNL     1       4.481   1.999  -4.411  0.00  0.00    +0.082 A 
ATOM     20  C   UNL     1       5.521   2.125  -3.486  0.00  0.00    +0.017 A 
ATOM     21  C   UNL     1       6.534   3.032  -3.707  0.00  0.00    +0.005 A 
ATOM     22  C   UNL     1       6.530   3.823  -4.845  0.00  0.00    +0.049 A 
ATOM     23  C   UNL     1       5.507   3.709  -5.771  0.00  0.00    +0.159 A 
ATOM     24  C   UNL     1       4.479   2.794  -5.564  0.00  0.00    +0.171 A 
BRANCH  24  25
ATOM     25  O   UNL     1       3.477   2.676  -6.472  0.00  0.00    -0.503 OA
ATOM     26  H   UNL     1       2.726   3.262  -6.307  0.00  0.00    +0.292 HD
ENDBRANCH  24  25
BRANCH  23  27
ATOM     27  O   UNL     1       5.509   4.489  -6.885  0.00  0.00    -0.503 OA
ATOM     28  H   UNL     1       5.969   4.096  -7.639  0.00  0.00    +0.292 HD
ENDBRANCH  23  27
ENDBRANCH  11  19
ENDBRANCH   1  10
BRANCH   1  29
ATOM     29  C   UNL     1       2.528  -1.510  -2.029  0.00  0.00    +0.079 C 
BRANCH  29  30
ATOM     30  C   UNL     1       1.427  -2.522  -1.837  0.00  0.00    -0.038 A 
ATOM     31  C   UNL     1       0.734  -3.005  -2.930  0.00  0.00    +0.004 A 
ATOM     32  C   UNL     1      -0.276  -3.932  -2.754  0.00  0.00    +0.000 A 
ATOM     33  C   UNL     1      -0.592  -4.377  -1.484  0.00  0.00    +0.000 A 
ATOM     34  C   UNL     1       0.102  -3.894  -0.390  0.00  0.00    +0.000 A 
ATOM     35  C   UNL     1       1.114  -2.970  -0.567  0.00  0.00    +0.004 A 
ENDBRANCH  29  30
BRANCH  29  36
ATOM     36  C   UNL     1       3.599  -2.096  -2.912  0.00  0.00    -0.038 A 
ATOM     37  C   UNL     1       3.344  -2.321  -4.252  0.00  0.00    +0.004 A 
ATOM     38  C   UNL     1       4.327  -2.858  -5.062  0.00  0.00    +0.000 A 
ATOM     39  C   UNL     1       5.565  -3.170  -4.532  0.00  0.00    +0.000 A 
ATOM     40  C   UNL     1       5.821  -2.944  -3.193  0.00  0.00    +0.000 A 
ATOM     41  C   UNL     1       4.839  -2.403  -2.383  0.00  0.00    +0.004 A 
ENDBRANCH  29  36
ENDBRANCH   1  29
TORSDOF 10
