REMARK  Name = ZINC12854261
REMARK  3 active torsions:
REMARK  status: ('A' for Active; 'I' for Inactive)
REMARK    1  A    between atoms: N_14  and  C_18
REMARK    2  A    between atoms: C_18  and  C_19
REMARK    3  A    between atoms: C_19  and  C_21
REMARK                            x       y       z     vdW  Elec       q    Type
REMARK                         _______ _______ _______ _____ _____    ______ ____
ROOT
ATOM      1  C   UNL     1      -4.056  -0.886   2.282  0.00  0.00    +0.000 A 
ATOM      2  C   UNL     1      -2.955  -0.812   3.114  0.00  0.00    +0.000 A 
ATOM      3  C   UNL     1      -1.886  -0.010   2.770  0.00  0.00    +0.006 A 
ATOM      4  C   UNL     1      -1.908   0.727   1.589  0.00  0.00    -0.012 A 
ATOM      5  C   UNL     1      -2.999   0.656   0.772  0.00  0.00    -0.042 A 
ATOM      6  C   UNL     1      -4.078  -0.154   1.113  0.00  0.00    +0.004 A 
ATOM      7  C   UNL     1      -3.111   1.431  -0.524  0.00  0.00    +0.035 C 
ATOM      8  C   UNL     1      -2.054   0.926  -1.504  0.00  0.00    +0.005 C 
ATOM      9  C   UNL     1      -0.714   1.583  -1.241  0.00  0.00    +0.003 C 
ATOM     10  C   UNL     1      -0.013   1.090   0.008  0.00  0.00    +0.040 C 
ATOM     11  C   UNL     1      -0.692   1.570   1.285  0.00  0.00    +0.138 C 
ATOM     12  C   UNL     1      -1.007   3.037   1.264  0.00  0.00    +0.251 C 
ATOM     13  O   UNL     1      -1.679   3.667   0.476  0.00  0.00    -0.272 OA
ATOM     14  N   UNL     1      -0.368   3.567   2.334  0.00  0.00    -0.216 N 
ATOM     15  C   UNL     1       0.356   2.646   2.979  0.00  0.00    +0.310 C 
ATOM     16  O   UNL     1       1.022   2.879   3.969  0.00  0.00    -0.252 OA
ATOM     17  N   UNL     1       0.263   1.433   2.406  0.00  0.00    -0.281 N 
ATOM     18  H   UNL     1       0.727   0.623   2.661  0.00  0.00    +0.152 HD
ENDROOT
BRANCH  14  19
ATOM     19  C   UNL     1      -0.461   4.974   2.731  0.00  0.00    +0.197 C 
BRANCH  19  20
ATOM     20  C   UNL     1       0.626   5.762   2.047  0.00  0.00    +0.183 C 
ATOM     21  O   UNL     1       1.403   5.202   1.301  0.00  0.00    -0.290 OA
BRANCH  20  22
ATOM     22  C   UNL     1       0.741   7.156   2.274  0.00  0.00    +0.044 A 
ATOM     23  C   UNL     1      -0.062   7.932   3.083  0.00  0.00    +0.095 A 
ATOM     24  N   UNL     1       0.360   9.210   3.047  0.00  0.00    -0.360 N 
ATOM     25  H   UNL     1      -0.048   9.940   3.539  0.00  0.00    +0.165 HD
ATOM     26  C   UNL     1       1.450   9.341   2.211  0.00  0.00    +0.047 A 
ATOM     27  C   UNL     1       1.741   8.070   1.689  0.00  0.00    +0.010 A 
ATOM     28  C   UNL     1       2.803   7.903   0.806  0.00  0.00    +0.011 A 
ATOM     29  C   UNL     1       3.569   8.992   0.446  0.00  0.00    +0.001 A 
ATOM     30  C   UNL     1       3.284  10.248   0.960  0.00  0.00    +0.002 A 
ATOM     31  C   UNL     1       2.234  10.427   1.835  0.00  0.00    +0.026 A 
ENDBRANCH  20  22
ENDBRANCH  19  20
ENDBRANCH  14  19
TORSDOF 3
