REMARK  Name = ZINC39664048
REMARK  8 active torsions:
REMARK  status: ('A' for Active; 'I' for Inactive)
REMARK    1  A    between atoms: C_1  and  O_2
REMARK    2  A    between atoms: O_2  and  C_3
REMARK    3  A    between atoms: C_6  and  C_9
REMARK    4  A    between atoms: C_9  and  C_11
REMARK    5  A    between atoms: C_9  and  N_36
REMARK    6  A    between atoms: C_11  and  N_12
REMARK    7  A    between atoms: C_13  and  C_15
REMARK    8  A    between atoms: C_26  and  C_28
REMARK                            x       y       z     vdW  Elec       q    Type
REMARK                         _______ _______ _______ _____ _____    ______ ____
ROOT
ATOM      1  C   UNL     1      -8.963  -5.715  -2.249  0.00  0.00    +0.100 C 
ATOM      2  C   UNL     1      -9.961  -4.746  -1.576  0.00  0.00    +0.121 C 
ATOM      3  N   UNL     1     -10.662  -4.088  -2.704  0.00  0.00    -0.296 N 
ATOM      4  C   UNL     1     -10.862  -5.172  -3.696  0.00  0.00    +0.115 C 
ATOM      5  C   UNL     1      -9.560  -5.995  -3.638  0.00  0.00    -0.004 C 
ATOM      6  C   UNL     1      -8.597  -5.535  -4.729  0.00  0.00    -0.010 C 
ATOM      7  C   UNL     1      -9.188  -5.875  -6.101  0.00  0.00    -0.082 C 
ATOM      8  N   UNL     1      -9.409  -7.323  -6.194  0.00  0.00    +0.379 N 
ATOM      9  C   UNL     1     -10.406  -7.743  -5.202  0.00  0.00    -0.082 C 
ATOM     10  C   UNL     1      -9.867  -7.481  -3.792  0.00  0.00    -0.010 C 
ATOM     11  C   UNL     1     -11.034  -2.797  -2.805  0.00  0.00    +0.247 C 
ATOM     12  O   UNL     1     -10.705  -2.001  -1.947  0.00  0.00    -0.270 OA
ATOM     13  H   UNL     1      -9.741  -7.552  -7.120  0.00  0.00    -0.086 HD
ATOM     14  H   UNL     1      -8.541  -7.806  -6.022  0.00  0.00    -0.086 HD
ENDROOT
BRANCH  11  15
ATOM     15  C   UNL     1     -11.842  -2.348  -3.959  0.00  0.00    +0.042 A 
ATOM     16  C   UNL     1     -12.592  -3.271  -4.689  0.00  0.00    +0.051 A 
ATOM     17  C   UNL     1     -13.346  -2.846  -5.767  0.00  0.00    +0.127 A 
ATOM     18  C   UNL     1     -13.357  -1.507  -6.123  0.00  0.00    +0.076 A 
ATOM     19  C   UNL     1     -12.613  -0.587  -5.402  0.00  0.00    +0.127 A 
ATOM     20  C   UNL     1     -11.861  -1.000  -4.319  0.00  0.00    +0.051 A 
ATOM     21  F   UNL     1     -12.628   0.717  -5.755  0.00  0.00    -0.205 F 
ATOM     22  F   UNL     1     -14.073  -3.738  -6.475  0.00  0.00    -0.205 F 
ENDBRANCH  11  15
BRANCH   1  24
ATOM     23  N   UNL     1      -6.497  -5.827  -2.396  0.00  0.00    -0.316 N 
ATOM     24  C   UNL     1      -7.609  -5.067  -2.380  0.00  0.00    +0.218 C 
ATOM     25  O   UNL     1      -7.521  -3.861  -2.471  0.00  0.00    -0.275 OA
ATOM     26  H   UNL     1      -6.567  -6.792  -2.322  0.00  0.00    +0.149 HD
BRANCH  23  27
ATOM     27  C   UNL     1      -5.180  -5.197  -2.523  0.00  0.00    +0.093 C 
BRANCH  27  28
ATOM     28  C   UNL     1      -4.103  -6.280  -2.611  0.00  0.00    -0.020 C 
BRANCH  28  32
ATOM     29  C   UNL     1      -4.145  -8.627   0.959  0.00  0.00    +0.120 A 
ATOM     30  C   UNL     1      -4.763  -9.099  -0.190  0.00  0.00    +0.046 A 
ATOM     31  C   UNL     1      -4.748  -8.338  -1.343  0.00  0.00    +0.005 A 
ATOM     32  C   UNL     1      -4.118  -7.107  -1.352  0.00  0.00    -0.059 A 
ATOM     33  C   UNL     1      -3.501  -6.635  -0.208  0.00  0.00    +0.005 A 
ATOM     34  C   UNL     1      -3.518  -7.389   0.949  0.00  0.00    +0.046 A 
BRANCH  29  36
ATOM     35  C   UNL     1      -4.823 -10.637   2.033  0.00  0.00    +0.277 C 
ATOM     36  O   UNL     1      -4.159  -9.373   2.095  0.00  0.00    -0.495 OA
ENDBRANCH  29  36
ENDBRANCH  28  32
BRANCH  28  37
ATOM     37  N   UNL     1      -2.785  -5.648  -2.767  0.00  0.00    +0.385 N 
ATOM     38  C   UNL     1      -1.726  -6.686  -2.845  0.00  0.00    -0.078 C 
ATOM     39  C   UNL     1      -0.559  -5.949  -3.550  0.00  0.00    -0.020 C 
ATOM     40  C   UNL     1      -1.286  -5.059  -4.583  0.00  0.00    -0.020 C 
ATOM     41  C   UNL     1      -2.722  -4.909  -4.046  0.00  0.00    -0.078 C 
ATOM     42  H   UNL     1      -2.606  -5.024  -1.995  0.00  0.00    -0.081 HD
ENDBRANCH  28  37
ENDBRANCH  27  28
ENDBRANCH  23  27
ENDBRANCH   1  24
TORSDOF 7
