REMARK  Name = ZINC34679132
REMARK  3 active torsions:
REMARK  status: ('A' for Active; 'I' for Inactive)
REMARK    1  A    between atoms: C_1  and  C_2
REMARK    2  A    between atoms: N_25  and  C_26
REMARK    3  A    between atoms: C_26  and  C_27
REMARK                            x       y       z     vdW  Elec       q    Type
REMARK                         _______ _______ _______ _____ _____    ______ ____
ROOT
ATOM      1  C   UNL     1      -1.189  -0.147  -2.382  0.00  0.00    +0.007 C 
ATOM      2  C   UNL     1      -0.560  -0.814  -1.157  0.00  0.00    -0.011 C 
ATOM      3  C   UNL     1      -0.534  -2.331  -1.359  0.00  0.00    +0.022 C 
ATOM      4  C   UNL     1       0.128  -2.992  -0.146  0.00  0.00    +0.107 C 
ATOM      5  N   UNL     1      -0.573  -2.558   1.070  0.00  0.00    -0.315 N 
ATOM      6  C   UNL     1      -0.734  -1.118   1.316  0.00  0.00    +0.107 C 
ATOM      7  C   UNL     1      -1.386  -0.478   0.087  0.00  0.00    +0.022 C 
ATOM      8  C   UNL     1      -1.072  -3.488   1.968  0.00  0.00    +0.131 A 
ATOM      9  C   UNL     1      -0.247  -4.026   2.963  0.00  0.00    +0.031 A 
ATOM     10  C   UNL     1      -0.779  -4.941   3.837  0.00  0.00    +0.054 A 
ATOM     11  N   UNL     1      -2.056  -5.293   3.700  0.00  0.00    -0.219 NA
ATOM     12  C   UNL     1      -2.814  -4.771   2.751  0.00  0.00    +0.220 A 
ATOM     13  N   UNL     1      -2.340  -3.875   1.898  0.00  0.00    -0.199 NA
ATOM     14  N   UNL     1      -4.136  -5.167   2.648  0.00  0.00    -0.300 N 
ATOM     15  C   UNL     1      -5.100  -4.686   1.648  0.00  0.00    +0.108 C 
ATOM     16  C   UNL     1      -6.447  -5.381   1.938  0.00  0.00    +0.020 C 
ATOM     17  C   UNL     1      -6.316  -5.784   3.430  0.00  0.00    +0.020 C 
ATOM     18  C   UNL     1      -4.810  -6.146   3.521  0.00  0.00    +0.108 C 
ATOM     19  C   UNL     1       0.013  -5.555   4.960  0.00  0.00    +0.075 C 
ATOM     20  C   UNL     1       1.513  -5.434   4.695  0.00  0.00    +0.116 C 
ATOM     21  N   UNL     1       1.792  -4.048   4.282  0.00  0.00    -0.281 N 
ATOM     22  C   UNL     1       1.191  -3.584   3.026  0.00  0.00    +0.149 C 
ATOM     23  C   UNL     1       2.569  -3.238   5.028  0.00  0.00    +0.303 C 
ATOM     24  O   UNL     1       3.129  -3.674   6.016  0.00  0.00    -0.253 OA
ATOM     25  N   UNL     1       2.726  -1.946   4.679  0.00  0.00    -0.296 N 
ATOM     26  H   UNL     1       2.223  -1.580   3.935  0.00  0.00    +0.151 HD
ENDROOT
BRANCH  25  27
ATOM     27  C   UNL     1       3.656  -1.094   5.424  0.00  0.00    +0.132 C 
BRANCH  27  28
ATOM     28  C   UNL     1       3.645   0.294   4.838  0.00  0.00    -0.016 C 
ATOM     29  C   UNL     1       3.396   1.327   5.605  0.00  0.00    +0.005 C 
ENDBRANCH  27  28
ENDBRANCH  25  27
TORSDOF 2
