REMARK  Name = ZINC39362778
REMARK  7 active torsions:
REMARK  status: ('A' for Active; 'I' for Inactive)
REMARK    1  A    between atoms: C_3  and  N_8
REMARK    2  A    between atoms: C_9  and  C_11
REMARK    3  A    between atoms: C_11  and  S_12
REMARK    4  A    between atoms: S_12  and  C_13
REMARK    5  A    between atoms: C_16  and  C_26
REMARK    6  A    between atoms: N_18  and  C_19
REMARK    7  A    between atoms: C_26  and  C_27
REMARK                            x       y       z     vdW  Elec       q    Type
REMARK                         _______ _______ _______ _____ _____    ______ ____
ROOT
ATOM      1  C   UNL     1       8.897   2.142   0.155  0.00  0.00    +0.180 C 
ATOM      2  N   UNL     1       8.830   3.428   0.234  0.00  0.00    -0.162 NA
ATOM      3  N   UNL     1      10.055   3.982   0.626  0.00  0.00    -0.246 N 
ATOM      4  C   UNL     1      10.979   2.850   0.804  0.00  0.00    +0.187 C 
ATOM      5  N   UNL     1      10.159   1.669   0.486  0.00  0.00    -0.258 N 
ATOM      6  H   UNL     1      10.254   4.923   0.753  0.00  0.00    +0.170 HD
ENDROOT
BRANCH   5   7
ATOM      7  C   UNL     1      10.571   0.333   0.510  0.00  0.00    +0.038 A 
ATOM      8  C   UNL     1      11.513  -0.121  -0.404  0.00  0.00    +0.026 A 
ATOM      9  C   UNL     1      11.919  -1.441  -0.378  0.00  0.00    +0.040 A 
ATOM     10  C   UNL     1      11.387  -2.312   0.558  0.00  0.00    +0.124 A 
ATOM     11  C   UNL     1      10.448  -1.862   1.470  0.00  0.00    +0.040 A 
ATOM     12  C   UNL     1      10.043  -0.541   1.452  0.00  0.00    +0.026 A 
ATOM     13  F   UNL     1      11.785  -3.603   0.581  0.00  0.00    -0.205 F 
ENDBRANCH   5   7
BRANCH   1  14
ATOM     14  S   UNL     1       7.546   1.110  -0.309  0.00  0.00    -0.079 S 
BRANCH  14  15
ATOM     15  C   UNL     1       6.190   2.274  -0.617  0.00  0.00    +0.173 C 
BRANCH  15  17
ATOM     16  N   UNL     1       3.817   2.174  -1.310  0.00  0.00    -0.285 N 
ATOM     17  C   UNL     1       4.957   1.512  -1.028  0.00  0.00    +0.227 C 
ATOM     18  O   UNL     1       4.989   0.302  -1.105  0.00  0.00    -0.275 OA
ATOM     19  H   UNL     1       3.810   3.144  -1.321  0.00  0.00    +0.155 HD
BRANCH  16  22
ATOM     20  C   UNL     1       1.244  -0.452  -1.229  0.00  0.00    +0.003 A 
ATOM     21  C   UNL     1       2.403   0.248  -0.956  0.00  0.00    +0.023 A 
ATOM     22  C   UNL     1       2.644   1.463  -1.585  0.00  0.00    +0.035 A 
ATOM     23  C   UNL     1       1.718   1.970  -2.487  0.00  0.00    +0.043 A 
ATOM     24  C   UNL     1       0.560   1.266  -2.756  0.00  0.00    +0.043 A 
ATOM     25  C   UNL     1       0.324   0.055  -2.127  0.00  0.00    +0.020 A 
ATOM     26 CL   UNL     1      -0.599   1.899  -3.883  0.00  0.00    -0.083 Cl
ENDBRANCH  16  22
ENDBRANCH  15  17
ENDBRANCH  14  15
ENDBRANCH   1  14
BRANCH   4  27
ATOM     27  C   UNL     1      11.475   2.783   2.250  0.00  0.00    +0.097 C 
BRANCH  27  28
ATOM     28  C   UNL     1      12.226   4.046   2.582  0.00  0.00    +0.029 A 
ATOM     29  N   UNL     1      13.553   4.160   2.267  0.00  0.00    -0.311 N 
ATOM     30  C   UNL     1      14.232   5.284   2.559  0.00  0.00    +0.327 A 
ATOM     31  O   UNL     1      15.411   5.364   2.270  0.00  0.00    -0.247 OA
ATOM     32  N   UNL     1      13.626   6.321   3.166  0.00  0.00    -0.275 N 
ATOM     33  C   UNL     1      12.320   6.249   3.493  0.00  0.00    +0.254 A 
ATOM     34  O   UNL     1      11.771   7.186   4.042  0.00  0.00    -0.268 OA
ATOM     35  C   UNL     1      11.592   5.074   3.187  0.00  0.00    +0.091 A 
ATOM     36  H   UNL     1      14.131   7.124   3.369  0.00  0.00    +0.173 HD
ATOM     37  H   UNL     1      14.007   3.424   1.829  0.00  0.00    +0.170 HD
ENDBRANCH  27  28
ENDBRANCH   4  27
TORSDOF 7
