REMARK  Name = ZINC20285811
REMARK  10 active torsions:
REMARK  status: ('A' for Active; 'I' for Inactive)
REMARK    1  A    between atoms: C_1  and  C_2
REMARK    2  A    between atoms: C_2  and  C_4
REMARK    3  A    between atoms: C_2  and  N_14
REMARK    4  A    between atoms: C_4  and  N_5
REMARK    5  A    between atoms: N_10  and  C_11
REMARK    6  A    between atoms: N_14  and  C_15
REMARK    7  A    between atoms: C_17  and  C_23
REMARK    8  A    between atoms: C_17  and  C_24
REMARK    9  A    between atoms: C_19  and  C_21
REMARK   10  A    between atoms: C_19  and  C_22
REMARK                            x       y       z     vdW  Elec       q    Type
REMARK                         _______ _______ _______ _____ _____    ______ ____
ROOT
ATOM      1  N   UNL     1       0.437  -0.675  -1.094  0.00  0.00    -0.309 NA
ATOM      2  H   UNL     1       1.189  -0.037  -1.309  0.00  0.00    +0.123 HD
ENDROOT
BRANCH   1   3
ATOM      3  C   UNL     1      -0.505  -0.779  -2.221  0.00  0.00    +0.051 C 
ATOM      4  C   UNL     1      -1.119  -2.180  -2.234  0.00  0.00    +0.006 C 
ATOM      5  C   UNL     1      -2.091  -2.309  -3.406  0.00  0.00    -0.072 C 
ATOM      6  N   UNL     1      -1.469  -1.961  -4.675  0.00  0.00    +0.386 N 
ATOM      7  C   UNL     1      -0.679  -0.741  -4.727  0.00  0.00    -0.072 C 
ATOM      8  C   UNL     1       0.253  -0.576  -3.532  0.00  0.00    +0.006 C 
ATOM      9  C   UNL     1      -1.563   0.500  -4.875  0.00  0.00    -0.010 C 
ATOM     10  C   UNL     1       0.208  -0.816  -5.993  0.00  0.00    -0.010 C 
ATOM     11  C   UNL     1      -3.353  -1.489  -3.140  0.00  0.00    -0.010 C 
ATOM     12  C   UNL     1      -2.517  -3.793  -3.487  0.00  0.00    -0.010 C 
ATOM     13  H   UNL     1      -0.874  -2.741  -4.966  0.00  0.00    -0.084 HD
ATOM     14  H   UNL     1      -2.201  -1.902  -5.387  0.00  0.00    -0.084 HD
ENDBRANCH   1   3
BRANCH   1  16
ATOM     15  C   UNL     1      -0.377   1.251   0.181  0.00  0.00    +0.026 C 
ATOM     16  C   UNL     1      -0.258  -0.273   0.137  0.00  0.00    +0.072 C 
BRANCH  16  17
ATOM     17  C   UNL     1       0.537  -0.758   1.352  0.00  0.00    +0.162 C 
BRANCH  17  18
ATOM     18  N   UNL     1       0.754  -2.203   1.248  0.00  0.00    -0.258 NA
ATOM     19  C   UNL     1       1.960  -2.671   1.111  0.00  0.00    +0.193 C 
ATOM     20  N   UNL     1       2.622  -3.897   0.974  0.00  0.00    -0.200 NA
ATOM     21  C   UNL     1       3.977  -3.831   0.859  0.00  0.00    +0.164 C 
ATOM     22  S   UNL     1       3.637  -2.091   0.993  0.00  0.00    -0.015 S 
ATOM     23  N   UNL     1       5.043  -4.667   0.711  0.00  0.00    -0.320 N 
ATOM     24  H   UNL     1       4.904  -5.626   0.662  0.00  0.00    +0.148 HD
BRANCH  23  25
ATOM     25  C   UNL     1       6.399  -4.118   0.626  0.00  0.00    +0.072 C 
ATOM     26  C   UNL     1       7.497  -4.822   1.426  0.00  0.00    +0.024 C 
ATOM     27  C   UNL     1       7.456  -4.954  -0.098  0.00  0.00    +0.024 C 
ENDBRANCH  23  25
ENDBRANCH  17  18
ENDBRANCH  16  17
ENDBRANCH   1  16
TORSDOF 5
