REMARK  Name = ZINC21582093
REMARK  11 active torsions:
REMARK  status: ('A' for Active; 'I' for Inactive)
REMARK    1  A    between atoms: C_1  and  C_2
REMARK    2  A    between atoms: C_2  and  O_3
REMARK    3  A    between atoms: O_3  and  C_4
REMARK    4  A    between atoms: C_4  and  C_6
REMARK    5  A    between atoms: C_7  and  C_19
REMARK    6  A    between atoms: C_12  and  C_14
REMARK    7  A    between atoms: C_19  and  N_20
REMARK    8  A    between atoms: N_20  and  C_21
REMARK    9  A    between atoms: N_20  and  C_28
REMARK   10  A    between atoms: C_21  and  C_22
REMARK   11  A    between atoms: C_28  and  C_29
REMARK                            x       y       z     vdW  Elec       q    Type
REMARK                         _______ _______ _______ _____ _____    ______ ____
ROOT
ATOM      1  C   UNL     1       1.593   1.417   1.583  0.00  0.00    +0.079 C 
ATOM      2  C   UNL     1       1.875   0.497   0.636  0.00  0.00    +0.008 C 
ATOM      3  N   UNL     1       0.914  -0.355   0.173  0.00  0.00    -0.274 N 
ATOM      4  C   UNL     1      -0.354  -0.348   0.601  0.00  0.00    +0.304 C 
ATOM      5  O   UNL     1      -1.141  -1.143   0.125  0.00  0.00    -0.252 OA
ATOM      6  N   UNL     1      -0.786   0.509   1.548  0.00  0.00    -0.285 N 
ATOM      7  C   UNL     1       0.174   1.471   2.114  0.00  0.00    +0.179 C 
ATOM      8  H   UNL     1       1.165  -1.101  -0.596  0.00  0.00    +0.156 HD
ATOM      9  H   UNL     1      -1.829   0.501   1.899  0.00  0.00    +0.151 HD
ENDROOT
BRANCH   7  10
ATOM     10  C   UNL     1       0.227   1.254   3.604  0.00  0.00    +0.130 A 
ATOM     11  C   UNL     1       0.162   2.216   4.542  0.00  0.00    +0.047 A 
ATOM     12  C   UNL     1       0.247   1.570   5.797  0.00  0.00    +0.041 A 
ATOM     13  C   UNL     1       0.359   0.252   5.551  0.00  0.00    +0.195 A 
ATOM     14  O   UNL     1       0.340   0.066   4.221  0.00  0.00    -0.466 OA
ENDBRANCH   7  10
BRANCH   1  15
ATOM     15  C   UNL     1       2.587   2.300   2.065  0.00  0.00    +0.339 C 
ATOM     16  O   UNL     1       3.745   2.158   1.720  0.00  0.00    -0.245 OA
BRANCH  15  17
ATOM     17  O   UNL     1       2.252   3.300   2.906  0.00  0.00    -0.462 OA
BRANCH  17  19
ATOM     18  C   UNL     1       2.738   5.219   4.293  0.00  0.00    +0.048 C 
ATOM     19  C   UNL     1       3.307   4.154   3.353  0.00  0.00    +0.229 C 
ENDBRANCH  17  19
ENDBRANCH  15  17
ENDBRANCH   1  15
BRANCH   2  20
ATOM     20  C   UNL     1       3.273   0.410   0.081  0.00  0.00    -0.025 C 
BRANCH  20  21
ATOM     21  N   UNL     1       4.119  -0.359   1.004  0.00  0.00    +0.391 N 
ATOM     22  H   UNL     1       4.017   0.085   2.006  0.00  0.00    -0.080 HD
BRANCH  21  23
ATOM     23  C   UNL     1       5.534  -0.275   0.616  0.00  0.00    -0.042 C 
BRANCH  23  24
ATOM     24  C   UNL     1       6.081   1.075   1.001  0.00  0.00    -0.064 A 
ATOM     25  C   UNL     1       6.129   2.093   0.066  0.00  0.00    +0.002 A 
ATOM     26  C   UNL     1       6.627   3.333   0.420  0.00  0.00    +0.000 A 
ATOM     27  C   UNL     1       7.086   3.552   1.706  0.00  0.00    +0.000 A 
ATOM     28  C   UNL     1       7.043   2.533   2.639  0.00  0.00    +0.000 A 
ATOM     29  C   UNL     1       6.540   1.295   2.286  0.00  0.00    +0.002 A 
ENDBRANCH  23  24
ENDBRANCH  21  23
BRANCH  21  30
ATOM     30  C   UNL     1       3.677  -1.757   1.083  0.00  0.00    -0.002 C 
BRANCH  30  31
ATOM     31  C   UNL     1       4.314  -2.419   2.277  0.00  0.00    +0.089 A 
ATOM     32  C   UNL     1       3.797  -2.470   3.518  0.00  0.00    +0.042 A 
ATOM     33  C   UNL     1       4.720  -3.184   4.317  0.00  0.00    +0.041 A 
ATOM     34  C   UNL     1       5.749  -3.519   3.519  0.00  0.00    +0.195 A 
ATOM     35  O   UNL     1       5.498  -3.054   2.285  0.00  0.00    -0.470 OA
ENDBRANCH  30  31
ENDBRANCH  21  30
ENDBRANCH  20  21
ENDBRANCH   2  20
TORSDOF 10
