REMARK  Name = ZINC04061259
REMARK  7 active torsions:
REMARK  status: ('A' for Active; 'I' for Inactive)
REMARK    1  A    between atoms: C_1  and  C_2
REMARK    2  A    between atoms: C_2  and  C_3
REMARK    3  A    between atoms: C_3  and  N_4
REMARK    4  A    between atoms: C_5  and  C_7
REMARK    5  A    between atoms: C_7  and  N_57
REMARK    6  A    between atoms: C_10  and  O_28
REMARK    7  A    between atoms: C_17  and  C_19
REMARK                            x       y       z     vdW  Elec       q    Type
REMARK                         _______ _______ _______ _____ _____    ______ ____
ROOT
ATOM      1  C   UNL     1       2.477   1.842   1.258  0.00  0.00    -0.075 C 
ATOM      2  C   UNL     1       2.793   0.350   1.386  0.00  0.00    +0.016 C 
ATOM      3  C   UNL     1       1.484  -0.427   1.567  0.00  0.00    +0.066 C 
ATOM      4  C   UNL     1       0.798   0.040   2.853  0.00  0.00    +0.035 C 
ATOM      5  C   UNL     1      -0.525  -0.707   3.028  0.00  0.00    +0.003 C 
ATOM      6  C   UNL     1      -1.437  -0.413   1.835  0.00  0.00    +0.000 C 
ATOM      7  C   UNL     1      -0.755  -0.884   0.548  0.00  0.00    +0.005 C 
ATOM      8  C   UNL     1       0.571  -0.146   0.371  0.00  0.00    +0.011 C 
ATOM      9  C   UNL     1       0.316   1.359   0.272  0.00  0.00    -0.031 C 
ATOM     10  N   UNL     1       1.608   2.052   0.080  0.00  0.00    +0.390 N 
ATOM     11  H   UNL     1       2.073   1.665  -0.750  0.00  0.00    -0.080 HD
ENDROOT
BRANCH   9  12
ATOM     12  C   UNL     1      -0.571   1.641  -0.914  0.00  0.00    -0.057 A 
ATOM     13  C   UNL     1      -0.028   1.690  -2.185  0.00  0.00    +0.006 A 
ATOM     14  C   UNL     1      -0.838   1.944  -3.276  0.00  0.00    +0.050 A 
ATOM     15  C   UNL     1      -2.195   2.161  -3.097  0.00  0.00    +0.166 A 
ATOM     16  C   UNL     1      -2.740   2.118  -1.816  0.00  0.00    +0.166 A 
ATOM     17  C   UNL     1      -1.923   1.857  -0.728  0.00  0.00    +0.051 A 
ATOM     18  O   UNL     1      -4.080   2.361  -1.905  0.00  0.00    -0.453 OA
ATOM     19  C   UNL     1      -4.419   2.150  -3.288  0.00  0.00    +0.466 C 
ATOM     20  O   UNL     1      -3.193   2.432  -3.988  0.00  0.00    -0.453 OA
ENDBRANCH   9  12
BRANCH   3  21
ATOM     21  O   UNL     1       1.752  -1.828   1.647  0.00  0.00    -0.388 OA
ATOM     22  H   UNL     1       2.326  -2.077   2.385  0.00  0.00    +0.210 HD
ENDBRANCH   3  21
BRANCH  10  23
ATOM     23  C   UNL     1       1.380   3.497  -0.127  0.00  0.00    +0.019 C 
BRANCH  23  25
ATOM     24  N   UNL     1       0.573   5.450   1.157  0.00  0.00    -0.317 N 
ATOM     25  C   UNL     1       0.755   4.116   1.096  0.00  0.00    +0.196 C 
ATOM     26  O   UNL     1       0.417   3.415   2.026  0.00  0.00    -0.278 OA
ATOM     27  H   UNL     1       0.844   6.011   0.414  0.00  0.00    +0.149 HD
BRANCH  24  28
ATOM     28  C   UNL     1      -0.034   6.053   2.347  0.00  0.00    +0.104 C 
BRANCH  28  30
ATOM     29  C   UNL     1      -0.760   8.197   3.403  0.00  0.00    +0.005 C 
ATOM     30  C   UNL     1      -0.126   7.568   2.161  0.00  0.00    +0.015 C 
ENDBRANCH  28  30
ENDBRANCH  24  28
ENDBRANCH  23  25
ENDBRANCH  10  23
TORSDOF 6
