REMARK  Name = ZINC09116040
REMARK  8 active torsions:
REMARK  status: ('A' for Active; 'I' for Inactive)
REMARK    1  A    between atoms: C_4  and  C_7
REMARK    2  A    between atoms: C_7  and  N_67
REMARK    3  A    between atoms: C_10  and  N_13
REMARK    4  A    between atoms: C_14  and  C_16
REMARK    5  A    between atoms: C_16  and  C_17
REMARK    6  A    between atoms: C_17  and  C_18
REMARK    7  A    between atoms: N_20  and  C_27
REMARK    8  A    between atoms: C_27  and  C_28
REMARK                            x       y       z     vdW  Elec       q    Type
REMARK                         _______ _______ _______ _____ _____    ______ ____
ROOT
ATOM      1  C   UNL     1      -1.629   5.741   1.438  0.00  0.00    +0.100 C 
ENDROOT
BRANCH   1   3
ATOM      2  N   UNL     1      -3.410   6.976   2.630  0.00  0.00    -0.313 N 
ATOM      3  C   UNL     1      -2.806   6.682   1.461  0.00  0.00    +0.214 C 
ATOM      4  O   UNL     1      -3.209   7.175   0.429  0.00  0.00    -0.276 OA
ATOM      5  H   UNL     1      -3.087   6.583   3.455  0.00  0.00    +0.149 HD
BRANCH   2   8
ATOM      6  C   UNL     1      -6.579   8.595   3.933  0.00  0.00    -0.077 C 
ATOM      7  C   UNL     1      -5.420   7.597   3.881  0.00  0.00    +0.003 C 
ATOM      8  C   UNL     1      -4.554   7.891   2.653  0.00  0.00    +0.069 C 
ATOM      9  C   UNL     1      -4.052   9.336   2.726  0.00  0.00    +0.003 C 
ATOM     10  C   UNL     1      -5.251  10.283   2.811  0.00  0.00    -0.077 C 
ATOM     11  N   UNL     1      -6.030   9.964   4.027  0.00  0.00    +0.382 N 
ATOM     12  H   UNL     1      -5.409  10.019   4.843  0.00  0.00    -0.081 HD
BRANCH  11  13
ATOM     13  C   UNL     1      -7.128  10.938   4.193  0.00  0.00    -0.043 C 
BRANCH  13  17
ATOM     14  C   UNL     1      -5.451  14.766   5.075  0.00  0.00    +0.000 A 
ATOM     15  C   UNL     1      -5.696  14.405   3.763  0.00  0.00    +0.000 A 
ATOM     16  C   UNL     1      -6.238  13.166   3.478  0.00  0.00    +0.002 A 
ATOM     17  C   UNL     1      -6.536  12.289   4.504  0.00  0.00    -0.064 A 
ATOM     18  C   UNL     1      -6.297  12.653   5.816  0.00  0.00    +0.002 A 
ATOM     19  C   UNL     1      -5.749  13.889   6.101  0.00  0.00    +0.000 A 
ENDBRANCH  13  17
ENDBRANCH  11  13
ENDBRANCH   2   8
ENDBRANCH   1   3
BRANCH   1  20
ATOM     20  C   UNL     1      -1.134   5.579  -0.001  0.00  0.00    +0.046 C 
BRANCH  20  21
ATOM     21  C   UNL     1       0.043   4.638  -0.025  0.00  0.00    -0.022 A 
ATOM     22  C   UNL     1       1.340   4.982   0.006  0.00  0.00    +0.090 A 
ATOM     23  N   UNL     1       2.121   3.858  -0.030  0.00  0.00    -0.342 N 
ATOM     24  C   UNL     1       1.325   2.736  -0.086  0.00  0.00    +0.050 A 
ATOM     25  C   UNL     1      -0.012   3.176  -0.085  0.00  0.00    +0.003 A 
ATOM     26  C   UNL     1      -1.051   2.245  -0.136  0.00  0.00    +0.010 A 
ATOM     27  C   UNL     1      -0.764   0.910  -0.192  0.00  0.00    +0.001 A 
ATOM     28  C   UNL     1       0.553   0.471  -0.188  0.00  0.00    +0.002 A 
ATOM     29  C   UNL     1       1.594   1.373  -0.138  0.00  0.00    +0.026 A 
BRANCH  23  30
ATOM     30  C   UNL     1       3.586   3.851  -0.012  0.00  0.00    +0.158 C 
BRANCH  30  31
ATOM     31  C   UNL     1       4.069   3.628   1.398  0.00  0.00    -0.009 A 
ATOM     32  C   UNL     1       4.363   2.350   1.835  0.00  0.00    +0.007 A 
ATOM     33  C   UNL     1       4.806   2.146   3.128  0.00  0.00    +0.000 A 
ATOM     34  C   UNL     1       4.957   3.220   3.985  0.00  0.00    +0.001 A 
ATOM     35  C   UNL     1       4.664   4.498   3.550  0.00  0.00    +0.020 A 
ATOM     36  C   UNL     1       4.225   4.704   2.254  0.00  0.00    +0.046 A 
ATOM     37 CL   UNL     1       3.864   6.311   1.704  0.00  0.00    -0.083 Cl
ENDBRANCH  30  31
ENDBRANCH  23  30
ENDBRANCH  20  21
ENDBRANCH   1  20
TORSDOF 8
