REMARK  Name = ZINC15007575
REMARK  10 active torsions:
REMARK  status: ('A' for Active; 'I' for Inactive)
REMARK    1  A    between atoms: C_1  and  N_69
REMARK    2  A    between atoms: C_2  and  N_69
REMARK    3  A    between atoms: C_3  and  C_4
REMARK    4  A    between atoms: C_3  and  N_69
REMARK    5  A    between atoms: C_4  and  N_5
REMARK    6  A    between atoms: C_8  and  C_12
REMARK    7  A    between atoms: C_8  and  C_20
REMARK    8  A    between atoms: C_12  and  C_13
REMARK    9  A    between atoms: C_26  and  C_28
REMARK   10  A    between atoms: C_29  and  C_30
REMARK                            x       y       z     vdW  Elec       q    Type
REMARK                         _______ _______ _______ _____ _____    ______ ____
ROOT
ATOM      1  N   UNL     1      -2.268   0.759  -2.388  0.00  0.00    -0.226 N 
ATOM      2  C   UNL     1      -2.175   1.503  -1.269  0.00  0.00    +0.247 C 
ATOM      3  O   UNL     1      -3.047   1.710  -0.453  0.00  0.00    -0.273 OA
ATOM      4  C   UNL     1      -0.753   2.028  -1.243  0.00  0.00    +0.119 C 
ATOM      5  N   UNL     1      -0.154   1.466  -2.465  0.00  0.00    -0.284 N 
ATOM      6  C   UNL     1      -1.114   0.741  -3.066  0.00  0.00    +0.309 C 
ATOM      7  O   UNL     1      -0.953   0.137  -4.109  0.00  0.00    -0.252 OA
ATOM      8  H   UNL     1       0.756   1.594  -2.776  0.00  0.00    +0.151 HD
ENDROOT
BRANCH   4   9
ATOM      9  C   UNL     1      -0.015   1.523  -0.001  0.00  0.00    +0.025 C 
ATOM     10  C   UNL     1       1.419   2.055  -0.009  0.00  0.00    +0.025 C 
ATOM     11  C   UNL     1       2.144   1.576   1.254  0.00  0.00    +0.108 C 
ATOM     12  N   UNL     1       2.043   0.113   1.330  0.00  0.00    -0.298 N 
ATOM     13  C   UNL     1       0.714  -0.509   1.255  0.00  0.00    +0.108 C 
ATOM     14  C   UNL     1       0.006  -0.007  -0.007  0.00  0.00    +0.025 C 
ATOM     15  C   UNL     1       3.149  -0.645   1.467  0.00  0.00    +0.239 C 
ATOM     16  O   UNL     1       3.047  -1.848   1.623  0.00  0.00    -0.271 OA
BRANCH  15  17
ATOM     17  C   UNL     1       4.474  -0.022   1.428  0.00  0.00    +0.068 C 
ATOM     18  C   UNL     1       5.581  -0.790   1.459  0.00  0.00    +0.013 C 
BRANCH  18  19
ATOM     19  C   UNL     1       6.913  -0.164   1.420  0.00  0.00    -0.025 A 
ATOM     20  C   UNL     1       7.033   1.228   1.344  0.00  0.00    +0.008 A 
ATOM     21  C   UNL     1       8.284   1.807   1.313  0.00  0.00    +0.001 A 
ATOM     22  C   UNL     1       9.418   1.016   1.345  0.00  0.00    +0.000 A 
ATOM     23  C   UNL     1       9.308  -0.362   1.415  0.00  0.00    +0.001 A 
ATOM     24  C   UNL     1       8.064  -0.957   1.453  0.00  0.00    +0.008 A 
ENDBRANCH  18  19
ENDBRANCH  15  17
ENDBRANCH   4   9
BRANCH   1  25
ATOM     25  C   UNL     1      -3.482   0.056  -2.811  0.00  0.00    +0.099 C 
BRANCH  25  26
ATOM     26  C   UNL     1      -4.322   0.976  -3.698  0.00  0.00    -0.060 C 
BRANCH  26  29
ATOM     27  C   UNL     1      -6.415  -0.003  -2.974  0.00  0.00    -0.097 C 
ATOM     28  C   UNL     1      -6.252   1.028  -5.159  0.00  0.00    -0.097 C 
ATOM     29  N   UNL     1      -5.531   0.246  -4.133  0.00  0.00    +0.377 N 
ATOM     30  H   UNL     1      -5.249  -0.655  -4.537  0.00  0.00    -0.083 HD
ENDBRANCH  26  29
ENDBRANCH  25  26
ENDBRANCH   1  25
BRANCH   4  31
ATOM     31  C   UNL     1      -0.743   3.557  -1.288  0.00  0.00    +0.070 C 
BRANCH  31  32
ATOM     32  C   UNL     1      -1.474   4.028  -2.519  0.00  0.00    -0.042 A 
ATOM     33  C   UNL     1      -2.835   4.269  -2.464  0.00  0.00    +0.004 A 
ATOM     34  C   UNL     1      -3.507   4.700  -3.592  0.00  0.00    +0.003 A 
ATOM     35  C   UNL     1      -2.820   4.892  -4.776  0.00  0.00    +0.038 A 
ATOM     36  C   UNL     1      -1.458   4.651  -4.832  0.00  0.00    +0.124 A 
ATOM     37  C   UNL     1      -0.784   4.224  -3.700  0.00  0.00    +0.042 A 
ATOM     38  F   UNL     1      -0.785   4.838  -5.989  0.00  0.00    -0.205 F 
ENDBRANCH  31  32
ENDBRANCH   4  31
TORSDOF 8
