REMARK  Name = ZINC12198659
REMARK  4 active torsions:
REMARK  status: ('A' for Active; 'I' for Inactive)
REMARK    1  A    between atoms: C_15  and  C_17
REMARK    2  A    between atoms: C_17  and  C_18
REMARK    3  A    between atoms: C_25  and  C_26
REMARK    4  A    between atoms: C_25  and  N_56
REMARK                            x       y       z     vdW  Elec       q    Type
REMARK                         _______ _______ _______ _____ _____    ______ ____
ROOT
ATOM      1  C   UNL     1      -4.781  -0.668   2.583  0.00  0.00    +0.028 C 
ATOM      2  C   UNL     1      -3.831  -1.814   2.378  0.00  0.00    +0.200 C 
ATOM      3  O   UNL     1      -3.514  -2.111   1.246  0.00  0.00    -0.278 OA
ATOM      4  N   UNL     1      -3.320  -2.520   3.393  0.00  0.00    -0.318 N 
ATOM      5  C   UNL     1      -3.609  -2.221   4.792  0.00  0.00    +0.085 C 
ATOM      6  C   UNL     1      -4.862  -1.350   4.894  0.00  0.00    -0.058 C 
ATOM      7  H   UNL     1      -2.731  -3.263   3.190  0.00  0.00    +0.149 HD
ATOM      8  N   UNL     1      -4.698  -0.203   3.979  0.00  0.00    +0.391 N 
ATOM      9  H   UNL     1      -3.776   0.223   4.137  0.00  0.00    -0.080 HD
ENDROOT
BRANCH   1  10
ATOM     10  C   UNL     1      -4.397   0.482   1.651  0.00  0.00    +0.090 C 
BRANCH  10  25
ATOM     11  C   UNL     1       1.287   2.476  -4.118  0.00  0.00    +0.001 A 
ATOM     12  C   UNL     1       0.246   2.790  -4.976  0.00  0.00    +0.002 A 
ATOM     13  C   UNL     1      -1.060   2.920  -4.536  0.00  0.00    +0.026 A 
ATOM     14  C   UNL     1      -1.290   2.721  -3.176  0.00  0.00    +0.047 A 
ATOM     15  C   UNL     1      -0.220   2.400  -2.302  0.00  0.00    +0.003 A 
ATOM     16  C   UNL     1       1.090   2.274  -2.774  0.00  0.00    +0.010 A 
ATOM     17  C   UNL     1      -0.807   2.263  -0.984  0.00  0.00    -0.016 A 
ATOM     18  C   UNL     1      -2.131   2.497  -1.116  0.00  0.00    +0.038 A 
ATOM     19  N   UNL     1      -2.429   2.769  -2.424  0.00  0.00    -0.356 N 
ATOM     20  H   UNL     1      -3.315   2.967  -2.765  0.00  0.00    +0.166 HD
ATOM     21  C   UNL     1      -3.104   2.457   0.041  0.00  0.00    +0.161 C 
ATOM     22  N   UNL     1      -2.400   1.867   1.192  0.00  0.00    -0.295 N 
ATOM     23  C   UNL     1      -1.029   2.323   1.482  0.00  0.00    +0.113 C 
ATOM     24  C   UNL     1      -0.118   1.926   0.314  0.00  0.00    +0.056 C 
ATOM     25  C   UNL     1      -2.994   0.935   1.963  0.00  0.00    +0.215 C 
ATOM     26  O   UNL     1      -2.400   0.459   2.907  0.00  0.00    -0.276 OA
ENDBRANCH  10  25
ENDBRANCH   1  10
BRANCH   8  27
ATOM     27  C   UNL     1      -5.746   0.810   4.240  0.00  0.00    -0.039 C 
BRANCH  27  28
ATOM     28  C   UNL     1      -5.426   1.525   5.527  0.00  0.00    -0.026 A 
ATOM     29  C   UNL     1      -4.727   2.718   5.500  0.00  0.00    +0.005 A 
ATOM     30  C   UNL     1      -4.433   3.375   6.679  0.00  0.00    +0.003 A 
ATOM     31  C   UNL     1      -4.835   2.841   7.889  0.00  0.00    +0.041 A 
ATOM     32  C   UNL     1      -5.534   1.647   7.920  0.00  0.00    +0.159 A 
ATOM     33  C   UNL     1      -5.835   0.990   6.736  0.00  0.00    +0.160 A 
ATOM     34  F   UNL     1      -6.522  -0.172   6.763  0.00  0.00    -0.202 F 
ATOM     35  F   UNL     1      -5.928   1.124   9.102  0.00  0.00    -0.202 F 
ENDBRANCH  27  28
ENDBRANCH   8  27
TORSDOF 4
