REMARK  Name = ZINC66930958
REMARK  5 active torsions:
REMARK  status: ('A' for Active; 'I' for Inactive)
REMARK    1  A    between atoms: C_10  and  C_11
REMARK    2  A    between atoms: C_10  and  O_23
REMARK    3  A    between atoms: C_11  and  N_12
REMARK    4  A    between atoms: C_13  and  C_15
REMARK    5  A    between atoms: C_18  and  N_20
REMARK                            x       y       z     vdW  Elec       q    Type
REMARK                         _______ _______ _______ _____ _____    ______ ____
ROOT
ATOM      1  C   UNL     1       4.689   0.049   0.901  0.00  0.00    +0.144 C 
ENDROOT
BRANCH   1  11
ATOM      2  C   UNL     1       0.011   1.426  -0.054  0.00  0.00    +0.000 A 
ATOM      3  C   UNL     1       1.212   2.110  -0.072  0.00  0.00    +0.000 A 
ATOM      4  C   UNL     1       2.400   1.408  -0.065  0.00  0.00    +0.007 A 
ATOM      5  C   UNL     1       2.398   0.019  -0.038  0.00  0.00    -0.011 A 
ATOM      6  C   UNL     1       1.202  -0.661  -0.015  0.00  0.00    -0.041 A 
ATOM      7  C   UNL     1       0.007   0.047  -0.025  0.00  0.00    +0.004 A 
ATOM      8  C   UNL     1       1.125  -2.165   0.031  0.00  0.00    +0.035 C 
ATOM      9  C   UNL     1       2.455  -2.784  -0.392  0.00  0.00    +0.008 C 
ATOM     10  C   UNL     1       3.575  -2.130   0.426  0.00  0.00    +0.041 C 
ATOM     11  C   UNL     1       3.731  -0.684  -0.040  0.00  0.00    +0.107 C 
BRANCH  11  12
ATOM     12  O   UNL     1       4.269  -0.671  -1.364  0.00  0.00    -0.382 OA
ATOM     13  H   UNL     1       4.411   0.216  -1.721  0.00  0.00    +0.211 HD
ENDBRANCH  11  12
ENDBRANCH   1  11
BRANCH   1  14
ATOM     14  N   UNL     1       5.959  -0.679   0.968  0.00  0.00    -0.308 N 
ATOM     15  C   UNL     1       6.918  -0.281   1.827  0.00  0.00    +0.251 C 
ATOM     16  O   UNL     1       6.730   0.683   2.546  0.00  0.00    -0.270 OA
ATOM     17  H   UNL     1       6.109  -1.447   0.395  0.00  0.00    +0.149 HD
BRANCH  15  18
ATOM     18  C   UNL     1       8.189  -1.009   1.895  0.00  0.00    +0.076 A 
ATOM     19  C   UNL     1       9.291  -0.771   2.702  0.00  0.00    +0.023 A 
ATOM     20  C   UNL     1      10.348  -1.633   2.538  0.00  0.00    +0.041 A 
ATOM     21  C   UNL     1      10.250  -2.631   1.625  0.00  0.00    +0.164 A 
ATOM     22  S   UNL     1       8.717  -2.436   0.966  0.00  0.00    -0.060 S 
BRANCH  21  23
ATOM     23  N   UNL     1      11.260  -3.660   1.290  0.00  0.00    +0.063 N 
ATOM     24  O   UNL     1      12.325  -3.670   1.862  0.00  0.00    -0.126 OA
ATOM     25  O   UNL     1      11.020  -4.490   0.444  0.00  0.00    -0.126 OA
ENDBRANCH  21  23
ENDBRANCH  15  18
ENDBRANCH   1  14
TORSDOF 5
