REMARK  Name = ZINC36206463
REMARK  16 active torsions:
REMARK  status: ('A' for Active; 'I' for Inactive)
REMARK    1  A    between atoms: C_1  and  C_2
REMARK    2  A    between atoms: C_5  and  C_9
REMARK    3  A    between atoms: C_6  and  C_8
REMARK    4  A    between atoms: C_18  and  C_20
REMARK    5  A    between atoms: C_20  and  N_21
REMARK    6  A    between atoms: N_21  and  C_22
REMARK    7  A    between atoms: N_21  and  C_27
REMARK    8  A    between atoms: C_22  and  C_23
REMARK    9  A    between atoms: C_23  and  C_24
REMARK   10  A    between atoms: C_24  and  O_25
REMARK   11  A    between atoms: O_25  and  C_26
REMARK   12  A    between atoms: C_27  and  C_28
REMARK   13  A    between atoms: C_28  and  C_30
REMARK   14  A    between atoms: C_28  and  O_33
REMARK   15  A    between atoms: C_30  and  C_31
REMARK   16  A    between atoms: C_30  and  C_32
REMARK                            x       y       z     vdW  Elec       q    Type
REMARK                         _______ _______ _______ _____ _____    ______ ____
ROOT
ATOM      1  C   UNL     1      -4.416  -6.557   7.385  0.00  0.00    +0.004 A 
ATOM      2  C   UNL     1      -3.923  -7.566   8.144  0.00  0.00    +0.056 A 
ATOM      3  S   UNL     1      -3.374  -8.759   6.939  0.00  0.00    -0.076 S 
ATOM      4  C   UNL     1      -3.816  -7.885   5.459  0.00  0.00    +0.116 A 
ATOM      5  C   UNL     1      -4.383  -6.692   5.934  0.00  0.00    +0.080 A 
ATOM      6  C   UNL     1      -4.841  -5.780   4.929  0.00  0.00    +0.260 A 
ATOM      7  O   UNL     1      -5.344  -4.715   5.243  0.00  0.00    -0.267 OA
ATOM      8  N   UNL     1      -4.708  -6.117   3.633  0.00  0.00    -0.312 N 
ATOM      9  H   UNL     1      -5.016  -5.504   2.948  0.00  0.00    +0.170 HD
ATOM     10  C   UNL     1      -4.149  -7.299   3.266  0.00  0.00    +0.094 A 
ATOM     11  N   UNL     1      -3.712  -8.146   4.159  0.00  0.00    -0.229 NA
ENDROOT
BRANCH   1  16
ATOM     12  C   UNL     1      -6.622  -1.841   9.845  0.00  0.00    +0.044 C 
ATOM     13  C   UNL     1      -6.044  -3.076   9.201  0.00  0.00    -0.050 A 
ATOM     14  C   UNL     1      -4.698  -3.362   9.344  0.00  0.00    +0.004 A 
ATOM     15  C   UNL     1      -4.164  -4.491   8.757  0.00  0.00    +0.009 A 
ATOM     16  C   UNL     1      -4.984  -5.343   8.019  0.00  0.00    -0.014 A 
ATOM     17  C   UNL     1      -6.339  -5.050   7.878  0.00  0.00    -0.042 A 
ATOM     18  C   UNL     1      -6.864  -3.921   8.475  0.00  0.00    +0.007 A 
ATOM     19  C   UNL     1      -7.232  -5.966   7.082  0.00  0.00    +0.044 C 
ENDBRANCH   1  16
BRANCH  10  20
ATOM     20  C   UNL     1      -4.019  -7.633   1.802  0.00  0.00    -0.003 C 
BRANCH  20  21
ATOM     21  N   UNL     1      -3.508  -9.003   1.656  0.00  0.00    +0.386 N 
ATOM     22  H   UNL     1      -2.661  -9.105   2.195  0.00  0.00    -0.081 HD
BRANCH  21  23
ATOM     23  C   UNL     1      -4.515  -9.956   2.141  0.00  0.00    -0.076 C 
BRANCH  23  24
ATOM     24  C   UNL     1      -3.936 -11.372   2.106  0.00  0.00    +0.009 C 
BRANCH  24  25
ATOM     25  C   UNL     1      -4.984 -12.365   2.611  0.00  0.00    +0.157 C 
BRANCH  25  26
ATOM     26  O   UNL     1      -4.444 -13.687   2.578  0.00  0.00    -0.383 OA
ATOM     27  C   UNL     1      -5.347 -14.696   3.033  0.00  0.00    +0.193 C 
ENDBRANCH  25  26
ENDBRANCH  24  25
ENDBRANCH  23  24
ENDBRANCH  21  23
BRANCH  21  28
ATOM     28  C   UNL     1      -3.223  -9.271   0.240  0.00  0.00    -0.046 C 
BRANCH  28  29
ATOM     29  C   UNL     1      -2.077  -8.371  -0.228  0.00  0.00    +0.101 C 
BRANCH  29  30
ATOM     30  C   UNL     1      -1.845  -8.578  -1.726  0.00  0.00    +0.010 C 
ATOM     31  C   UNL     1      -0.699  -7.679  -2.195  0.00  0.00    +0.010 C 
ATOM     32  C   UNL     1      -1.485 -10.042  -1.989  0.00  0.00    +0.010 C 
ENDBRANCH  29  30
BRANCH  29  33
ATOM     33  O   UNL     1      -0.886  -8.705   0.488  0.00  0.00    -0.393 OA
ATOM     34  H   UNL     1      -0.598  -9.620   0.368  0.00  0.00    +0.210 HD
ENDBRANCH  29  33
ENDBRANCH  28  29
ENDBRANCH  21  28
ENDBRANCH  20  21
ENDBRANCH  10  20
TORSDOF 11
