REMARK  Name = ZINC61519149
REMARK  2 active torsions:
REMARK  status: ('A' for Active; 'I' for Inactive)
REMARK    1  A    between atoms: C_8  and  C_11
REMARK    2  A    between atoms: C_11  and  N_12
REMARK                            x       y       z     vdW  Elec       q    Type
REMARK                         _______ _______ _______ _____ _____    ______ ____
ROOT
ATOM      1  C   UNL     1       3.813  -3.240   0.254  0.00  0.00    +0.149 C 
ENDROOT
BRANCH   1   2
ATOM      2  N   UNL     1       5.218  -3.192  -0.157  0.00  0.00    -0.310 N 
ATOM      3  C   UNL     1       6.118  -4.102   0.357  0.00  0.00    +0.221 A 
ATOM      4  N   UNL     1       5.711  -5.027   1.222  0.00  0.00    -0.184 NA
ATOM      5  C   UNL     1       6.577  -5.898   1.713  0.00  0.00    +0.228 A 
ATOM      6  N   UNL     1       7.848  -5.850   1.345  0.00  0.00    -0.187 NA
ATOM      7  C   UNL     1       8.256  -4.931   0.483  0.00  0.00    +0.228 A 
ATOM      8  N   UNL     1       7.395  -4.060  -0.015  0.00  0.00    -0.184 NA
ATOM      9 CL   UNL     1       9.924  -4.872   0.004  0.00  0.00    -0.041 Cl
ATOM     10 CL   UNL     1       6.046  -7.105   2.843  0.00  0.00    -0.041 Cl
ATOM     11  H   UNL     1       5.515  -2.521  -0.791  0.00  0.00    +0.149 HD
ENDBRANCH   1   2
BRANCH   1  19
ATOM     12  C   UNL     1      -0.017   1.379   0.010  0.00  0.00    +0.000 A 
ATOM     13  C   UNL     1       1.174   2.082   0.002  0.00  0.00    +0.004 A 
ATOM     14  C   UNL     1       2.379   1.411  -0.009  0.00  0.00    +0.046 A 
ATOM     15  C   UNL     1       2.407   0.019  -0.013  0.00  0.00    +0.124 A 
ATOM     16  C   UNL     1       1.204  -0.676  -0.013  0.00  0.00    -0.002 A 
ATOM     17  C   UNL     1       0.002  -0.004   0.002  0.00  0.00    +0.007 A 
ATOM     18  C   UNL     1       1.545  -2.154  -0.043  0.00  0.00    +0.085 C 
ATOM     19  C   UNL     1       3.035  -2.130  -0.457  0.00  0.00    +0.195 C 
ATOM     20  O   UNL     1       3.469  -0.834  -0.012  0.00  0.00    -0.487 OA
ENDBRANCH   1  19
TORSDOF 2
