REMARK  Name = ZINC02913837
REMARK  7 active torsions:
REMARK  status: ('A' for Active; 'I' for Inactive)
REMARK    1  A    between atoms: C_1  and  C_2
REMARK    2  A    between atoms: C_2  and  C_3
REMARK    3  A    between atoms: C_3  and  S_4
REMARK    4  A    between atoms: S_4  and  C_5
REMARK    5  A    between atoms: C_18  and  C_21
REMARK    6  A    between atoms: C_22  and  C_33
REMARK    7  A    between atoms: N_24  and  C_27
REMARK                            x       y       z     vdW  Elec       q    Type
REMARK                         _______ _______ _______ _____ _____    ______ ____
ROOT
ATOM      1  C   UNL     1       0.174   0.961   2.735  0.00  0.00    +0.212 A 
ATOM      2  N   UNL     1      -0.112   1.159   4.019  0.00  0.00    -0.184 NA
ATOM      3  C   UNL     1       0.666   0.625   4.945  0.00  0.00    +0.248 A 
ATOM      4  C   UNL     1       1.778  -0.146   4.535  0.00  0.00    +0.156 A 
ATOM      5  N   UNL     1       2.009  -0.302   3.241  0.00  0.00    -0.141 NA
ATOM      6  N   UNL     1       1.223   0.233   2.372  0.00  0.00    -0.122 NA
ATOM      7  C   UNL     1       2.653  -0.763   5.554  0.00  0.00    +0.028 A 
ATOM      8  C   UNL     1       4.036  -0.660   5.484  0.00  0.00    +0.012 A 
ATOM      9  C   UNL     1       4.819  -1.261   6.450  0.00  0.00    +0.001 A 
ATOM     10  C   UNL     1       4.234  -1.969   7.486  0.00  0.00    +0.002 A 
ATOM     11  C   UNL     1       2.857  -2.076   7.571  0.00  0.00    +0.024 A 
ATOM     12  C   UNL     1       2.060  -1.472   6.616  0.00  0.00    +0.039 A 
ATOM     13  N   UNL     1       0.665  -1.530   6.690  0.00  0.00    -0.305 N 
ATOM     14  C   UNL     1      -0.074  -0.309   6.997  0.00  0.00    +0.299 C 
ATOM     15  O   UNL     1       0.421   0.806   6.264  0.00  0.00    -0.449 OA
ATOM     16  H   UNL     1       0.197  -2.366   6.540  0.00  0.00    +0.150 HD
ENDROOT
BRANCH  14  17
ATOM     17  C   UNL     1       0.047  -0.020   8.471  0.00  0.00    +0.071 A 
ATOM     18  C   UNL     1       0.027   1.246   9.065  0.00  0.00    +0.070 A 
ATOM     19  N   UNL     1       0.156   1.097  10.359  0.00  0.00    -0.170 NA
ATOM     20  N   UNL     1       0.264  -0.272  10.634  0.00  0.00    -0.221 N 
ATOM     21  C   UNL     1       0.188  -0.941   9.455  0.00  0.00    +0.141 A 
ATOM     22 CL   UNL     1       0.261  -2.662   9.245  0.00  0.00    -0.061 Cl
ATOM     23  C   UNL     1      -0.120   2.559   8.340  0.00  0.00    +0.068 C 
BRANCH  20  24
ATOM     24  C   UNL     1       0.417  -0.850  11.902  0.00  0.00    +0.067 A 
ATOM     25  C   UNL     1      -0.181  -2.070  12.188  0.00  0.00    +0.028 A 
ATOM     26  C   UNL     1      -0.023  -2.640  13.436  0.00  0.00    +0.002 A 
ATOM     27  C   UNL     1       0.720  -1.990  14.405  0.00  0.00    +0.000 A 
ATOM     28  C   UNL     1       1.312  -0.773  14.126  0.00  0.00    +0.002 A 
ATOM     29  C   UNL     1       1.163  -0.201  12.877  0.00  0.00    +0.028 A 
ENDBRANCH  20  24
ENDBRANCH  14  17
BRANCH   1  30
ATOM     30  S   UNL     1      -0.860   1.669   1.497  0.00  0.00    -0.084 S 
BRANCH  30  31
ATOM     31  C   UNL     1      -0.013   1.086   0.008  0.00  0.00    +0.077 C 
BRANCH  31  33
ATOM     32  C   UNL     1      -0.037   1.099  -2.490  0.00  0.00    +0.004 C 
ATOM     33  C   UNL     1      -0.753   1.593  -1.232  0.00  0.00    +0.008 C 
ENDBRANCH  31  33
ENDBRANCH  30  31
ENDBRANCH   1  30
TORSDOF 5
