REMARK  Name = ZINC08767282
REMARK  4 active torsions:
REMARK  status: ('A' for Active; 'I' for Inactive)
REMARK    1  A    between atoms: C_1  and  C_2
REMARK    2  A    between atoms: C_3  and  C_17
REMARK    3  A    between atoms: C_4  and  C_10
REMARK    4  A    between atoms: N_19  and  C_20
REMARK                            x       y       z     vdW  Elec       q    Type
REMARK                         _______ _______ _______ _____ _____    ______ ____
ROOT
ATOM      1  C   UNL     1      -0.153   4.631  -0.736  0.00  0.00    +0.061 C 
ATOM      2  C   UNL     1      -0.242   3.246  -0.149  0.00  0.00    +0.019 C 
ATOM      3  C   UNL     1      -1.426   2.797   0.317  0.00  0.00    +0.056 C 
ATOM      4  C   UNL     1      -1.472   1.396   0.894  0.00  0.00    +0.142 C 
ATOM      5  N   UNL     1      -0.209   0.639   0.909  0.00  0.00    -0.288 N 
ATOM      6  C   UNL     1       0.896   1.224   0.406  0.00  0.00    +0.304 C 
ATOM      7  O   UNL     1       1.943   0.606   0.410  0.00  0.00    -0.252 OA
ATOM      8  N   UNL     1       0.879   2.465  -0.097  0.00  0.00    -0.273 N 
ATOM      9  H   UNL     1      -0.174  -0.261   1.270  0.00  0.00    +0.151 HD
ATOM     10  H   UNL     1       1.708   2.830  -0.444  0.00  0.00    +0.156 HD
ENDROOT
BRANCH   4  11
ATOM     11  C   UNL     1      -1.968   1.500   2.313  0.00  0.00    -0.022 A 
ATOM     12  C   UNL     1      -1.095   1.844   3.328  0.00  0.00    +0.007 A 
ATOM     13  C   UNL     1      -1.552   1.944   4.629  0.00  0.00    +0.015 A 
ATOM     14  C   UNL     1      -2.880   1.688   4.917  0.00  0.00    +0.018 A 
ATOM     15  C   UNL     1      -3.752   1.338   3.902  0.00  0.00    +0.015 A 
ATOM     16  C   UNL     1      -3.296   1.244   2.600  0.00  0.00    +0.007 A 
ATOM     17 BR   UNL     1      -3.503   1.817   6.697  0.00  0.00    -0.050 Br
ENDBRANCH   4  11
BRANCH   3  18
ATOM     18  C   UNL     1      -2.588   3.605   0.264  0.00  0.00    +0.248 C 
ATOM     19  O   UNL     1      -3.421   3.416  -0.603  0.00  0.00    -0.270 OA
ATOM     20  N   UNL     1      -2.771   4.583   1.173  0.00  0.00    -0.279 N 
ATOM     21  H   UNL     1      -2.070   4.790   1.811  0.00  0.00    +0.155 HD
BRANCH  20  22
ATOM     22  C   UNL     1      -3.972   5.301   1.196  0.00  0.00    +0.069 A 
ATOM     23  C   UNL     1      -4.663   5.540   0.016  0.00  0.00    +0.026 A 
ATOM     24  C   UNL     1      -5.851   6.245   0.042  0.00  0.00    +0.002 A 
ATOM     25  C   UNL     1      -6.348   6.722   1.241  0.00  0.00    +0.003 A 
ATOM     26  C   UNL     1      -5.661   6.491   2.419  0.00  0.00    +0.040 A 
ATOM     27  C   UNL     1      -4.473   5.782   2.401  0.00  0.00    +0.144 A 
ATOM     28  F   UNL     1      -3.802   5.557   3.551  0.00  0.00    -0.204 F 
ENDBRANCH  20  22
ENDBRANCH   3  18
TORSDOF 3
