REMARK  Name = ZINC38006162
REMARK  4 active torsions:
REMARK  status: ('A' for Active; 'I' for Inactive)
REMARK    1  A    between atoms: C_2  and  C_11
REMARK    2  A    between atoms: C_11  and  N_12
REMARK    3  A    between atoms: N_12  and  C_13
REMARK    4  A    between atoms: C_13  and  C_14
REMARK                            x       y       z     vdW  Elec       q    Type
REMARK                         _______ _______ _______ _____ _____    ______ ____
ROOT
ATOM      1  C   UNL     1       1.147   3.596   0.010  0.00  0.00    -0.045 C 
ENDROOT
BRANCH   1   3
ATOM      2  C   UNL     1      -0.017   1.381   0.010  0.00  0.00    +0.052 A 
ATOM      3  C   UNL     1       1.171   2.089   0.002  0.00  0.00    -0.047 A 
ATOM      4  C   UNL     1       2.380   1.418  -0.013  0.00  0.00    +0.023 A 
ATOM      5  C   UNL     1       2.406   0.035  -0.021  0.00  0.00    +0.065 A 
ATOM      6  C   UNL     1       1.220  -0.681  -0.014  0.00  0.00    +0.167 A 
ATOM      7  C   UNL     1       0.002  -0.004   0.002  0.00  0.00    +0.166 A 
ATOM      8  O   UNL     1      -1.008  -0.923   0.006  0.00  0.00    -0.453 OA
ATOM      9  C   UNL     1      -0.404  -2.159  -0.419  0.00  0.00    +0.466 C 
ATOM     10  O   UNL     1       0.973  -2.023  -0.019  0.00  0.00    -0.453 OA
ATOM     11 BR   UNL     1       4.000   2.392  -0.023  0.00  0.00    -0.050 Br
ENDBRANCH   1   3
BRANCH   1  12
ATOM     12  N   UNL     1       1.511   4.085   1.347  0.00  0.00    +0.384 N 
ATOM     13  H   UNL     1       0.850   3.734   2.024  0.00  0.00    -0.085 HD
ATOM     14  H   UNL     1       2.437   3.761   1.583  0.00  0.00    -0.085 HD
BRANCH  12  15
ATOM     15  C   UNL     1       1.488   5.553   1.354  0.00  0.00    -0.043 C 
BRANCH  15  16
ATOM     16  C   UNL     1       1.861   6.054   2.726  0.00  0.00    -0.027 A 
ATOM     17  C   UNL     1       1.004   6.296   3.745  0.00  0.00    +0.106 A 
ATOM     18  N   UNL     1       1.729   6.731   4.797  0.00  0.00    -0.285 N 
ATOM     19  H   UNL     1       1.379   6.981   5.667  0.00  0.00    +0.188 HD
ATOM     20  N   UNL     1       3.075   6.758   4.412  0.00  0.00    -0.182 NA
ATOM     21  C   UNL     1       3.154   6.346   3.172  0.00  0.00    +0.135 A 
ENDBRANCH  15  16
ENDBRANCH  12  15
ENDBRANCH   1  12
TORSDOF 4
