REMARK  Name = ZINC30979491
REMARK  8 active torsions:
REMARK  status: ('A' for Active; 'I' for Inactive)
REMARK    1  A    between atoms: C_6  and  C_7
REMARK    2  A    between atoms: C_7  and  C_8
REMARK    3  A    between atoms: C_8  and  C_9
REMARK    4  A    between atoms: C_9  and  N_10
REMARK    5  A    between atoms: C_11  and  C_13
REMARK    6  A    between atoms: N_16  and  C_19
REMARK    7  A    between atoms: C_19  and  C_20
REMARK    8  A    between atoms: C_22  and  C_25
REMARK                            x       y       z     vdW  Elec       q    Type
REMARK                         _______ _______ _______ _____ _____    ______ ____
ROOT
ATOM      1  C   UNL     1      -1.330   1.944   0.019  0.00  0.00    +0.071 C 
ATOM      2  C   UNL     1      -1.421   2.811   1.278  0.00  0.00    -0.006 C 
ATOM      3  C   UNL     1      -2.783   3.508   1.313  0.00  0.00    -0.077 C 
ATOM      4  N   UNL     1      -3.851   2.500   1.313  0.00  0.00    +0.386 N 
ATOM      5  C   UNL     1      -3.812   1.686   0.091  0.00  0.00    -0.077 C 
ATOM      6  C   UNL     1      -2.481   0.935   0.019  0.00  0.00    -0.006 C 
ATOM      7  H   UNL     1      -3.679   1.829   2.167  0.00  0.00    -0.081 HD
ENDROOT
BRANCH   1   9
ATOM      8  N   UNL     1       1.143   1.898   0.001  0.00  0.00    -0.315 N 
ATOM      9  C   UNL     1      -0.014   1.209   0.009  0.00  0.00    +0.216 C 
ATOM     10  O   UNL     1       0.002  -0.004   0.002  0.00  0.00    -0.276 OA
ATOM     11  H   UNL     1       1.129   2.998   0.007  0.00  0.00    +0.149 HD
BRANCH   8  12
ATOM     12  C   UNL     1       2.422   1.183  -0.015  0.00  0.00    +0.104 C 
BRANCH  12  13
ATOM     13  C   UNL     1       3.571   2.193  -0.020  0.00  0.00    +0.023 C 
BRANCH  13  14
ATOM     14  C   UNL     1       4.907   1.446  -0.037  0.00  0.00    +0.036 C 
BRANCH  14  20
ATOM     15  C   UNL     1       6.550   2.899  -1.242  0.00  0.00    +0.005 A 
ATOM     16  C   UNL     1       7.584   3.816  -1.248  0.00  0.00    +0.020 A 
ATOM     17  C   UNL     1       8.116   4.266  -0.052  0.00  0.00    +0.041 A 
ATOM     18  C   UNL     1       7.607   3.803   1.148  0.00  0.00    +0.020 A 
ATOM     19  C   UNL     1       6.569   2.891   1.152  0.00  0.00    +0.005 A 
ATOM     20  C   UNL     1       6.038   2.441  -0.043  0.00  0.00    -0.047 A 
ATOM     21 CL   UNL     1       9.419   5.413  -0.059  0.00  0.00    -0.084 Cl
ENDBRANCH  14  20
ENDBRANCH  13  14
ENDBRANCH  12  13
ENDBRANCH   8  12
ENDBRANCH   1   9
BRANCH   4  22
ATOM     22  C   UNL     1      -5.168   3.127   1.486  0.00  0.00    +0.022 C 
BRANCH  22  23
ATOM     23  C   UNL     1      -5.253   3.747   2.857  0.00  0.00    +0.211 A 
ATOM     24  N   UNL     1      -4.917   4.970   3.180  0.00  0.00    -0.193 NA
ATOM     25  C   UNL     1      -5.162   5.077   4.505  0.00  0.00    +0.202 A 
ATOM     26  N   UNL     1      -5.629   3.922   4.905  0.00  0.00    -0.056 NA
ATOM     27  O   UNL     1      -5.691   3.152   3.971  0.00  0.00    -0.340 OA
BRANCH  25  28
ATOM     28  C   UNL     1      -4.943   6.278   5.348  0.00  0.00    +0.023 A 
ATOM     29  C   UNL     1      -4.431   7.444   4.784  0.00  0.00    +0.013 A 
ATOM     30  C   UNL     1      -4.234   8.561   5.571  0.00  0.00    +0.016 A 
ATOM     31  C   UNL     1      -4.534   8.520   6.921  0.00  0.00    +0.018 A 
ATOM     32  C   UNL     1      -5.038   7.362   7.488  0.00  0.00    +0.016 A 
ATOM     33  C   UNL     1      -5.243   6.242   6.709  0.00  0.00    +0.013 A 
ATOM     34 BR   UNL     1      -4.254  10.050   7.996  0.00  0.00    -0.050 Br
ENDBRANCH  25  28
ENDBRANCH  22  23
ENDBRANCH   4  22
TORSDOF 8
