REMARK  Name = ZINC58357630
REMARK  4 active torsions:
REMARK  status: ('A' for Active; 'I' for Inactive)
REMARK    1  A    between atoms: C_8  and  C_11
REMARK    2  A    between atoms: C_11  and  N_12
REMARK    3  A    between atoms: C_13  and  C_15
REMARK    4  A    between atoms: C_16  and  C_17
REMARK                            x       y       z     vdW  Elec       q    Type
REMARK                         _______ _______ _______ _____ _____    ______ ____
ROOT
ATOM      1  N   UNL     1       4.121  -3.739  -1.435  0.00  0.00    -0.306 N 
ATOM      2  C   UNL     1       4.860  -4.836  -1.694  0.00  0.00    +0.237 C 
ATOM      3  O   UNL     1       5.233  -5.548  -0.780  0.00  0.00    -0.271 OA
ATOM      4  H   UNL     1       3.824  -3.172  -2.163  0.00  0.00    +0.149 HD
ENDROOT
BRANCH   2   5
ATOM      5  C   UNL     1       5.213  -5.171  -3.073  0.00  0.00    +0.068 C 
ATOM      6  C   UNL     1       5.953  -6.270  -3.332  0.00  0.00    +0.013 C 
BRANCH   6   7
ATOM      7  C   UNL     1       6.308  -6.607  -4.718  0.00  0.00    -0.020 A 
ATOM      8  C   UNL     1       7.071  -7.749  -4.990  0.00  0.00    +0.057 A 
ATOM      9  C   UNL     1       7.401  -8.062  -6.294  0.00  0.00    +0.168 A 
ATOM     10  C   UNL     1       6.976  -7.240  -7.338  0.00  0.00    +0.184 A 
ATOM     11  C   UNL     1       6.219  -6.106  -7.069  0.00  0.00    +0.087 A 
ATOM     12  C   UNL     1       5.880  -5.790  -5.771  0.00  0.00    +0.031 A 
ATOM     13 CL   UNL     1       5.693  -5.087  -8.373  0.00  0.00    -0.080 Cl
ATOM     14  O   UNL     1       7.428  -7.762  -8.514  0.00  0.00    -0.451 OA
ATOM     15  C   UNL     1       8.476  -8.680  -8.150  0.00  0.00    +0.466 C 
ATOM     16  O   UNL     1       8.120  -9.097  -6.819  0.00  0.00    -0.453 OA
ENDBRANCH   6   7
ENDBRANCH   2   5
BRANCH   1  17
ATOM     17  C   UNL     1       3.768  -3.404  -0.053  0.00  0.00    +0.157 C 
BRANCH  17  25
ATOM     18  C   UNL     1      -0.017   1.362   0.009  0.00  0.00    +0.001 A 
ATOM     19  C   UNL     1       1.170   2.083   0.002  0.00  0.00    +0.002 A 
ATOM     20  C   UNL     1       2.386   1.436  -0.013  0.00  0.00    +0.026 A 
ATOM     21  C   UNL     1       2.428   0.046  -0.021  0.00  0.00    +0.047 A 
ATOM     22  C   UNL     1       1.223  -0.681  -0.013  0.00  0.00    -0.000 A 
ATOM     23  C   UNL     1       0.002  -0.004   0.002  0.00  0.00    +0.010 A 
ATOM     24  C   UNL     1       1.604  -2.095  -0.025  0.00  0.00    +0.032 A 
ATOM     25  C   UNL     1       2.945  -2.141  -0.038  0.00  0.00    +0.034 A 
ATOM     26  N   UNL     1       3.455  -0.871  -0.036  0.00  0.00    -0.357 N 
ATOM     27  H   UNL     1       4.399  -0.650  -0.044  0.00  0.00    +0.166 HD
ENDBRANCH  17  25
ENDBRANCH   1  17
TORSDOF 4
