REMARK  Name = ZINC09669895
REMARK  9 active torsions:
REMARK  status: ('A' for Active; 'I' for Inactive)
REMARK    1  A    between atoms: C_1  and  C_2
REMARK    2  A    between atoms: C_2  and  C_26
REMARK    3  A    between atoms: N_5  and  C_9
REMARK    4  A    between atoms: C_9  and  C_10
REMARK    5  A    between atoms: N_12  and  C_13
REMARK    6  A    between atoms: C_13  and  C_14
REMARK    7  A    between atoms: N_16  and  C_17
REMARK    8  A    between atoms: C_26  and  C_27
REMARK    9  A    between atoms: C_27  and  C_28
REMARK                            x       y       z     vdW  Elec       q    Type
REMARK                         _______ _______ _______ _____ _____    ______ ____
ROOT
ATOM      1  C   UNL     1       4.286  -4.747   0.459  0.00  0.00    +0.213 C 
ENDROOT
BRANCH   1   6
ATOM      2  C   UNL     1       8.690  -5.689   1.794  0.00  0.00    +0.041 C 
ATOM      3  C   UNL     1       7.460  -6.469   1.326  0.00  0.00    +0.110 C 
ATOM      4  C   UNL     1       6.188  -5.742   1.713  0.00  0.00    +0.247 C 
ATOM      5  O   UNL     1       5.809  -5.475   2.833  0.00  0.00    -0.273 OA
ATOM      6  N   UNL     1       5.566  -5.454   0.553  0.00  0.00    -0.215 N 
ATOM      7  C   UNL     1       6.258  -5.898  -0.502  0.00  0.00    +0.310 C 
ATOM      8  O   UNL     1       5.897  -5.761  -1.654  0.00  0.00    -0.252 OA
ATOM      9  N   UNL     1       7.402  -6.511  -0.145  0.00  0.00    -0.285 N 
ATOM     10  H   UNL     1       8.058  -6.907  -0.740  0.00  0.00    +0.151 HD
BRANCH   3  11
ATOM     11  C   UNL     1       7.468  -7.886   1.905  0.00  0.00    +0.039 C 
BRANCH  11  12
ATOM     12  C   UNL     1       8.761  -8.596   1.500  0.00  0.00    +0.037 C 
BRANCH  12  13
ATOM     13  C   UNL     1       8.768  -9.991   2.070  0.00  0.00    -0.047 A 
ATOM     14  C   UNL     1       9.311 -10.224   3.320  0.00  0.00    +0.003 A 
ATOM     15  C   UNL     1       9.313 -11.503   3.844  0.00  0.00    +0.000 A 
ATOM     16  C   UNL     1       8.782 -12.550   3.115  0.00  0.00    +0.000 A 
ATOM     17  C   UNL     1       8.244 -12.318   1.863  0.00  0.00    +0.000 A 
ATOM     18  C   UNL     1       8.237 -11.038   1.340  0.00  0.00    +0.003 A 
ENDBRANCH  12  13
ENDBRANCH  11  12
ENDBRANCH   3  11
ENDBRANCH   1   6
BRANCH   1  19
ATOM     19  C   UNL     1       4.537  -3.264   0.364  0.00  0.00    +0.231 C 
ATOM     20  O   UNL     1       5.673  -2.840   0.375  0.00  0.00    -0.274 OA
ATOM     21  N   UNL     1       3.499  -2.410   0.268  0.00  0.00    -0.305 N 
ATOM     22  H   UNL     1       2.590  -2.750   0.260  0.00  0.00    +0.149 HD
BRANCH  21  23
ATOM     23  C   UNL     1       3.742  -0.969   0.176  0.00  0.00    +0.200 C 
BRANCH  23  24
ATOM     24  C   UNL     1       2.426  -0.242   0.079  0.00  0.00    +0.234 C 
ATOM     25  O   UNL     1       1.386  -0.866   0.086  0.00  0.00    -0.274 OA
ATOM     26  N   UNL     1       2.404   1.103  -0.015  0.00  0.00    -0.282 N 
ATOM     27  H   UNL     1       3.234   1.597  -0.101  0.00  0.00    +0.155 HD
BRANCH  26  28
ATOM     28  C   UNL     1       1.181   1.787   0.012  0.00  0.00    +0.072 A 
ATOM     29  C   UNL     1       0.077   1.213   0.627  0.00  0.00    +0.029 A 
ATOM     30  C   UNL     1      -1.130   1.885   0.648  0.00  0.00    +0.043 A 
ATOM     31  C   UNL     1      -1.238   3.137   0.065  0.00  0.00    +0.161 A 
ATOM     32  C   UNL     1      -0.138   3.714  -0.551  0.00  0.00    +0.195 A 
ATOM     33  C   UNL     1       1.072   3.041  -0.579  0.00  0.00    +0.182 A 
ATOM     34  F   UNL     1       2.145   3.602  -1.178  0.00  0.00    -0.200 F 
ATOM     35  F   UNL     1      -0.246   4.932  -1.124  0.00  0.00    -0.199 F 
ATOM     36  F   UNL     1      -2.418   3.794   0.091  0.00  0.00    -0.202 F 
ENDBRANCH  26  28
ENDBRANCH  23  24
ENDBRANCH  21  23
ENDBRANCH   1  19
TORSDOF 8
