REMARK  Name = ZINC51046134
REMARK  4 active torsions:
REMARK  status: ('A' for Active; 'I' for Inactive)
REMARK    1  A    between atoms: C_9  and  C_13
REMARK    2  A    between atoms: C_13  and  N_14
REMARK    3  A    between atoms: C_18  and  C_21
REMARK    4  A    between atoms: N_23  and  C_24
REMARK                            x       y       z     vdW  Elec       q    Type
REMARK                         _______ _______ _______ _____ _____    ______ ____
ROOT
ATOM      1  C   UNL     1       0.436   1.355  -0.426  0.00  0.00    +0.005 C 
ATOM      2  C   UNL     1       1.919   1.727  -0.510  0.00  0.00    +0.005 C 
ATOM      3  C   UNL     1       2.562   1.497   0.865  0.00  0.00    +0.043 C 
ATOM      4  C   UNL     1       2.150   0.145   1.361  0.00  0.00    -0.004 A 
ATOM      5  C   UNL     1       1.150  -0.632   0.887  0.00  0.00    -0.025 A 
ATOM      6  C   UNL     1       0.951  -1.913   1.545  0.00  0.00    +0.051 A 
ATOM      7  C   UNL     1      -0.029  -2.898   1.232  0.00  0.00    +0.128 A 
ATOM      8  N   UNL     1      -0.009  -3.997   1.984  0.00  0.00    -0.219 NA
ATOM      9  C   UNL     1       0.846  -4.201   2.966  0.00  0.00    +0.116 A 
ATOM     10  N   UNL     1       1.782  -3.325   3.311  0.00  0.00    -0.227 NA
ATOM     11  C   UNL     1       1.833  -2.206   2.616  0.00  0.00    +0.114 A 
ATOM     12  S   UNL     1       2.870  -0.782   2.694  0.00  0.00    -0.073 S 
ATOM     13  N   UNL     1      -0.945  -2.724   0.210  0.00  0.00    -0.343 N 
ATOM     14  C   UNL     1       0.289  -0.160  -0.282  0.00  0.00    +0.037 C 
ATOM     15  H   UNL     1      -0.796  -2.043  -0.465  0.00  0.00    +0.144 HD
ATOM     16  H   UNL     1      -1.737  -3.283   0.168  0.00  0.00    +0.144 HD
ENDROOT
BRANCH   9  17
ATOM     17  C   UNL     1       0.756  -5.493   3.737  0.00  0.00    -0.001 C 
BRANCH  17  18
ATOM     18  N   UNL     1       1.608  -6.505   3.098  0.00  0.00    +0.385 N 
ATOM     19  C   UNL     1       3.012  -6.087   3.187  0.00  0.00    -0.078 C 
ATOM     20  C   UNL     1       3.896  -7.097   2.452  0.00  0.00    -0.018 C 
ATOM     21  C   UNL     1       3.730  -8.476   3.096  0.00  0.00    +0.009 C 
ATOM     22  C   UNL     1       2.251  -8.869   3.065  0.00  0.00    +0.058 C 
ATOM     23  C   UNL     1       1.428  -7.793   3.777  0.00  0.00    -0.066 C 
ATOM     24  H   UNL     1       1.347  -6.598   2.127  0.00  0.00    -0.081 HD
BRANCH  22  25
ATOM     25  C   UNL     1       2.066 -10.191   3.765  0.00  0.00    +0.215 C 
ATOM     26  O   UNL     1       1.344 -10.267   4.736  0.00  0.00    -0.276 OA
ATOM     27  N   UNL     1       2.703 -11.288   3.311  0.00  0.00    -0.312 N 
ATOM     28  H   UNL     1       3.281 -11.227   2.534  0.00  0.00    +0.149 HD
BRANCH  27  29
ATOM     29  C   UNL     1       2.524 -12.573   3.991  0.00  0.00    +0.073 C 
ATOM     30  C   UNL     1       3.771 -13.426   4.231  0.00  0.00    +0.024 C 
ATOM     31  C   UNL     1       2.750 -13.845   3.171  0.00  0.00    +0.024 C 
ENDBRANCH  27  29
ENDBRANCH  22  25
ENDBRANCH  17  18
ENDBRANCH   9  17
TORSDOF 4
