REMARK  Name = ZINC05064135
REMARK  7 active torsions:
REMARK  status: ('A' for Active; 'I' for Inactive)
REMARK    1  A    between atoms: C_3  and  S_24
REMARK    2  A    between atoms: C_6  and  N_7
REMARK    3  A    between atoms: N_7  and  C_8
REMARK    4  A    between atoms: C_8  and  N_10
REMARK    5  A    between atoms: C_11  and  C_13
REMARK    6  A    between atoms: C_13  and  C_14
REMARK    7  A    between atoms: S_24  and  N_27
REMARK                            x       y       z     vdW  Elec       q    Type
REMARK                         _______ _______ _______ _____ _____    ______ ____
ROOT
ATOM      1  C   UNL     1      -7.134   1.908   2.439  0.00  0.00    +0.141 C 
ATOM      2  S   UNL     1      -6.549   3.246   3.332  0.00  0.00    -0.018 S 
ENDROOT
BRANCH   1   3
ATOM      3  N   UNL     1      -6.486   1.504   1.329  0.00  0.00    -0.268 N 
ATOM      4  C   UNL     1      -5.376   2.152   0.922  0.00  0.00    +0.219 C 
ATOM      5  O   UNL     1      -4.962   3.100   1.555  0.00  0.00    -0.275 OA
ATOM      6  H   UNL     1      -6.817   0.746   0.822  0.00  0.00    +0.156 HD
BRANCH   4   7
ATOM      7  C   UNL     1      -4.651   1.700  -0.319  0.00  0.00    +0.103 C 
BRANCH   7   8
ATOM      8  C   UNL     1      -3.436   2.599  -0.556  0.00  0.00    -0.020 C 
ATOM      9  C   UNL     1      -2.700   2.140  -1.816  0.00  0.00    +0.011 C 
ATOM     10  C   UNL     1      -1.484   3.039  -2.052  0.00  0.00    -0.010 C 
ATOM     11  C   UNL     1      -0.542   2.950  -0.850  0.00  0.00    +0.007 C 
ATOM     12  C   UNL     1      -1.278   3.409   0.410  0.00  0.00    -0.010 C 
ATOM     13  C   UNL     1      -2.494   2.510   0.646  0.00  0.00    +0.011 C 
ATOM     14  C   UNL     1      -1.741   4.856   0.232  0.00  0.00    +0.007 C 
ATOM     15  C   UNL     1      -2.683   4.945  -0.971  0.00  0.00    -0.010 C 
ATOM     16  C   UNL     1      -1.947   4.486  -2.231  0.00  0.00    +0.007 C 
ATOM     17  C   UNL     1      -3.899   4.046  -0.734  0.00  0.00    +0.011 C 
ENDBRANCH   7   8
ENDBRANCH   4   7
ENDBRANCH   1   3
BRANCH   1  18
ATOM     18  N   UNL     1      -8.243   1.259   2.845  0.00  0.00    -0.297 N 
ATOM     19  H   UNL     1      -8.610   0.540   2.306  0.00  0.00    +0.154 HD
BRANCH  18  25
ATOM     20  C   UNL     1      -9.279   0.642   4.938  0.00  0.00    +0.025 A 
ATOM     21  C   UNL     1      -9.889   1.004   6.123  0.00  0.00    +0.030 A 
ATOM     22  C   UNL     1     -10.098   2.339   6.415  0.00  0.00    +0.105 A 
ATOM     23  C   UNL     1      -9.692   3.317   5.525  0.00  0.00    +0.030 A 
ATOM     24  C   UNL     1      -9.077   2.962   4.341  0.00  0.00    +0.025 A 
ATOM     25  C   UNL     1      -8.866   1.622   4.044  0.00  0.00    +0.033 A 
BRANCH  22  26
ATOM     26  S   UNL     1     -10.882   2.796   7.926  0.00  0.00    +0.056 S 
ATOM     27  O   UNL     1     -10.674   1.722   8.833  0.00  0.00    -0.153 OA
ATOM     28  O   UNL     1     -10.469   4.125   8.212  0.00  0.00    -0.153 OA
BRANCH  26  29
ATOM     29  N   UNL     1     -12.510   2.859   7.633  0.00  0.00    -0.204 NA
ATOM     30  H   UNL     1     -12.852   2.659   6.747  0.00  0.00    +0.144 HD
ATOM     31  H   UNL     1     -13.123   3.095   8.347  0.00  0.00    +0.144 HD
ENDBRANCH  26  29
ENDBRANCH  22  26
ENDBRANCH  18  25
ENDBRANCH   1  18
TORSDOF 7
