REMARK  Name = ZINC63980583
REMARK  8 active torsions:
REMARK  status: ('A' for Active; 'I' for Inactive)
REMARK    1  A    between atoms: C_4  and  C_7
REMARK    2  A    between atoms: C_7  and  N_8
REMARK    3  A    between atoms: C_10  and  O_30
REMARK    4  A    between atoms: C_17  and  C_19
REMARK    5  A    between atoms: C_19  and  C_20
REMARK    6  A    between atoms: C_20  and  C_21
REMARK    7  A    between atoms: O_30  and  C_31
REMARK    8  A    between atoms: C_31  and  C_32
REMARK                            x       y       z     vdW  Elec       q    Type
REMARK                         _______ _______ _______ _____ _____    ______ ____
ROOT
ATOM      1  N   UNL     1       4.152  -0.952   1.338  0.00  0.00    -0.293 N 
ATOM      2  C   UNL     1       4.987   0.039   2.024  0.00  0.00    +0.141 C 
ATOM      3  C   UNL     1       4.156   0.731   3.107  0.00  0.00    +0.153 C 
ATOM      4  C   UNL     1       4.248  -0.045   4.416  0.00  0.00    +0.141 C 
ATOM      5  N   UNL     1       3.694  -1.390   4.282  0.00  0.00    -0.290 N 
ATOM      6  C   UNL     1       4.303  -2.355   3.361  0.00  0.00    +0.203 C 
ATOM      7  C   UNL     1       3.784  -2.081   1.965  0.00  0.00    +0.233 C 
ATOM      8  O   UNL     1       3.047  -2.873   1.419  0.00  0.00    -0.274 OA
ATOM      9  C   UNL     1       2.617  -1.746   5.010  0.00  0.00    +0.216 C 
ATOM     10  O   UNL     1       2.111  -0.951   5.773  0.00  0.00    -0.276 OA
ENDROOT
BRANCH   1  11
ATOM     11  C   UNL     1       3.711  -0.707  -0.038  0.00  0.00    +0.143 C 
BRANCH  11  15
ATOM     12  C   UNL     1      -0.017   1.378   0.010  0.00  0.00    +0.000 A 
ATOM     13  C   UNL     1       1.171   2.086   0.002  0.00  0.00    +0.000 A 
ATOM     14  C   UNL     1       2.377   1.411  -0.013  0.00  0.00    +0.005 A 
ATOM     15  C   UNL     1       2.396   0.029  -0.020  0.00  0.00    -0.030 A 
ATOM     16  C   UNL     1       1.208  -0.679  -0.012  0.00  0.00    +0.005 A 
ATOM     17  C   UNL     1       0.002  -0.004   0.002  0.00  0.00    +0.000 A 
ENDBRANCH  11  15
ENDBRANCH   1  11
BRANCH   9  18
ATOM     18  C   UNL     1       2.041  -3.132   4.875  0.00  0.00    +0.100 C 
BRANCH  18  19
ATOM     19  C   UNL     1       0.834  -3.275   5.803  0.00  0.00    +0.056 C 
BRANCH  19  20
ATOM     20  C   UNL     1       0.249  -4.683   5.667  0.00  0.00    +0.174 C 
ATOM     21  N   UNL     1      -0.243  -4.893   4.299  0.00  0.00    -0.363 N 
ATOM     22  C   UNL     1      -1.520  -5.136   4.377  0.00  0.00    +0.060 A 
ATOM     23  C   UNL     1      -2.546  -5.420   3.364  0.00  0.00    +0.027 A 
ATOM     24  C   UNL     1      -3.819  -5.636   3.750  0.00  0.00    +0.002 A 
ATOM     25  C   UNL     1      -4.219  -5.601   5.098  0.00  0.00    +0.002 A 
ATOM     26  C   UNL     1      -3.359  -5.348   6.105  0.00  0.00    +0.027 A 
ATOM     27  C   UNL     1      -1.943  -5.098   5.803  0.00  0.00    +0.060 A 
ATOM     28  N   UNL     1      -0.912  -4.834   6.553  0.00  0.00    -0.363 N 
ATOM     29  H   UNL     1       0.286  -4.858   3.487  0.00  0.00    +0.162 HD
ATOM     30  H   UNL     1      -0.911  -4.753   7.519  0.00  0.00    +0.162 HD
ENDBRANCH  19  20
ENDBRANCH  18  19
ENDBRANCH   9  18
BRANCH   3  31
ATOM     31  O   UNL     1       4.650   2.056   3.309  0.00  0.00    -0.373 OA
BRANCH  31  32
ATOM     32  C   UNL     1       3.653   2.991   3.726  0.00  0.00    +0.163 C 
BRANCH  32  33
ATOM     33  C   UNL     1       4.291   4.369   3.911  0.00  0.00    +0.015 C 
ATOM     34  C   UNL     1       4.288   4.966   5.319  0.00  0.00    +0.006 C 
ATOM     35  C   UNL     1       3.363   5.539   4.244  0.00  0.00    +0.006 C 
ENDBRANCH  32  33
ENDBRANCH  31  32
ENDBRANCH   3  31
TORSDOF 8
