REMARK  Name = ZINC64151793
REMARK  5 active torsions:
REMARK  status: ('A' for Active; 'I' for Inactive)
REMARK    1  A    between atoms: C_1  and  C_2
REMARK    2  A    between atoms: C_6  and  C_26
REMARK    3  A    between atoms: C_18  and  C_21
REMARK    4  A    between atoms: N_28  and  C_29
REMARK    5  A    between atoms: C_29  and  C_30
REMARK                            x       y       z     vdW  Elec       q    Type
REMARK                         _______ _______ _______ _____ _____    ______ ____
ROOT
ATOM      1  C   UNL     1      -0.018   1.503   0.010  0.00  0.00    +0.061 C 
ATOM      2  C   UNL     1       0.002  -0.004   0.002  0.00  0.00    +0.012 C 
ATOM      3  C   UNL     1       0.005  -0.667  -1.177  0.00  0.00    +0.065 C 
ATOM      4  C   UNL     1       0.065  -2.065  -1.217  0.00  0.00    +0.171 C 
ATOM      5  O   UNL     1       0.021  -2.641  -2.286  0.00  0.00    -0.292 OA
ATOM      6  C   UNL     1       0.182  -2.859   0.058  0.00  0.00    +0.166 C 
ATOM      7  C   UNL     1      -0.431  -2.078   1.216  0.00  0.00    +0.099 C 
ATOM      8  N   UNL     1       0.023  -0.687   1.185  0.00  0.00    -0.299 N 
ATOM      9  C   UNL     1       0.442  -0.029   2.344  0.00  0.00    +0.048 A 
ATOM     10  C   UNL     1       1.664   0.635   2.330  0.00  0.00    +0.024 A 
ATOM     11  C   UNL     1       2.105   1.304   3.455  0.00  0.00    +0.002 A 
ATOM     12  C   UNL     1       1.332   1.318   4.601  0.00  0.00    +0.001 A 
ATOM     13  C   UNL     1       0.118   0.660   4.626  0.00  0.00    +0.016 A 
ATOM     14  C   UNL     1      -0.333  -0.021   3.501  0.00  0.00    +0.030 A 
ATOM     15  S   UNL     1      -1.872  -0.870   3.571  0.00  0.00    -0.115 S 
ATOM     16  C   UNL     1      -2.482  -0.863   1.864  0.00  0.00    +0.090 C 
ATOM     17  C   UNL     1      -1.960  -2.092   1.125  0.00  0.00    +0.043 C 
ENDROOT
BRANCH  16  18
ATOM     18  C   UNL     1      -3.989  -0.874   1.866  0.00  0.00    +0.003 A 
ATOM     19  C   UNL     1      -4.850   0.033   1.342  0.00  0.00    +0.012 A 
ATOM     20  C   UNL     1      -6.209  -0.186   1.462  0.00  0.00    +0.008 A 
ATOM     21  C   UNL     1      -6.641  -1.301   2.101  0.00  0.00    +0.045 A 
ATOM     22  S   UNL     1      -5.104  -2.088   2.551  0.00  0.00    -0.100 S 
ENDBRANCH  16  18
BRANCH   6  23
ATOM     23  C   UNL     1       1.636  -3.124   0.350  0.00  0.00    +0.226 C 
ATOM     24  O   UNL     1       2.131  -2.718   1.381  0.00  0.00    -0.275 OA
ATOM     25  N   UNL     1       2.387  -3.811  -0.533  0.00  0.00    -0.311 N 
ATOM     26  H   UNL     1       1.991  -4.135  -1.357  0.00  0.00    +0.149 HD
BRANCH  25  27
ATOM     27  C   UNL     1       3.801  -4.068  -0.249  0.00  0.00    +0.151 C 
BRANCH  27  28
ATOM     28  C   UNL     1       4.417  -4.861  -1.403  0.00  0.00    +0.191 C 
ATOM     29  N   UNL     1       4.243  -4.131  -2.665  0.00  0.00    -0.362 N 
ATOM     30  C   UNL     1       3.537  -4.884  -3.458  0.00  0.00    +0.060 A 
ATOM     31  C   UNL     1       3.045  -4.704  -4.831  0.00  0.00    +0.027 A 
ATOM     32  C   UNL     1       2.318  -5.681  -5.410  0.00  0.00    +0.002 A 
ATOM     33  C   UNL     1       2.003  -6.883  -4.752  0.00  0.00    +0.002 A 
ATOM     34  C   UNL     1       2.404  -7.149  -3.493  0.00  0.00    +0.027 A 
ATOM     35  C   UNL     1       3.204  -6.157  -2.762  0.00  0.00    +0.060 A 
ATOM     36  N   UNL     1       3.717  -6.141  -1.566  0.00  0.00    -0.362 N 
ATOM     37  H   UNL     1       4.591  -3.249  -2.871  0.00  0.00    +0.162 HD
ATOM     38  H   UNL     1       3.650  -6.847  -0.903  0.00  0.00    +0.162 HD
ENDBRANCH  27  28
ENDBRANCH  25  27
ENDBRANCH   6  23
TORSDOF 4
