REMARK  Name = ZINC26753309
REMARK  5 active torsions:
REMARK  status: ('A' for Active; 'I' for Inactive)
REMARK    1  A    between atoms: C_3  and  C_9
REMARK    2  A    between atoms: N_11  and  C_12
REMARK    3  A    between atoms: C_12  and  C_13
REMARK    4  A    between atoms: N_15  and  N_16
REMARK    5  A    between atoms: C_17  and  C_19
REMARK                            x       y       z     vdW  Elec       q    Type
REMARK                         _______ _______ _______ _____ _____    ______ ____
ROOT
ATOM      1  C   UNL     1       2.369   1.025  -0.015  0.00  0.00    +0.246 C 
ATOM      2  O   UNL     1       2.385  -0.188  -0.022  0.00  0.00    -0.273 OA
ATOM      3  N   UNL     1       1.193   1.683  -0.000  0.00  0.00    -0.233 N 
ATOM      4  H   UNL     1       1.178   2.783   0.006  0.00  0.00    +0.173 HD
ENDROOT
BRANCH   3   5
ATOM      5  N   UNL     1      -0.011   0.966   0.007  0.00  0.00    -0.230 N 
ATOM      6  C   UNL     1      -1.187   1.624   0.017  0.00  0.00    +0.267 C 
ATOM      7  O   UNL     1      -1.204   2.841   0.023  0.00  0.00    -0.268 OA
ATOM      8  H   UNL     1       0.004  -0.134   0.006  0.00  0.00    +0.173 HD
BRANCH   6   9
ATOM      9  C   UNL     1      -2.447   0.874   0.018  0.00  0.00    +0.076 A 
ATOM     10  C   UNL     1      -3.746   1.349   0.027  0.00  0.00    +0.024 A 
ATOM     11  C   UNL     1      -4.781   0.422   0.020  0.00  0.00    -0.036 A 
ATOM     12  C   UNL     1      -4.426  -0.883   0.034  0.00  0.00    -0.006 A 
ATOM     13  S   UNL     1      -2.706  -0.893   0.002  0.00  0.00    -0.088 S 
ATOM     14  C   UNL     1      -5.358  -2.072   0.082  0.00  0.00    +0.043 C 
ATOM     15  C   UNL     1      -6.101  -2.123  -1.265  0.00  0.00    +0.005 C 
ATOM     16  C   UNL     1      -7.223  -1.111  -1.283  0.00  0.00    +0.001 C 
ATOM     17  C   UNL     1      -6.818   0.338  -1.373  0.00  0.00    +0.005 C 
ATOM     18  C   UNL     1      -6.250   0.859  -0.052  0.00  0.00    +0.036 C 
ENDBRANCH   6   9
ENDBRANCH   3   5
BRANCH   1  19
ATOM     19  C   UNL     1       3.663   1.796  -0.023  0.00  0.00    +0.202 C 
BRANCH  19  22
ATOM     20  C   UNL     1       6.054   1.326  -0.049  0.00  0.00    +0.246 C 
ATOM     21  O   UNL     1       6.260   2.524  -0.044  0.00  0.00    -0.270 OA
ATOM     22  N   UNL     1       4.790   0.859  -0.039  0.00  0.00    -0.303 N 
ATOM     23  H   UNL     1       4.603  -0.225  -0.043  0.00  0.00    +0.150 HD
BRANCH  20  26
ATOM     24  C   UNL     1       8.021  -1.872  -0.085  0.00  0.00    +0.021 A 
ATOM     25  C   UNL     1       6.957  -0.995  -0.070  0.00  0.00    +0.016 A 
ATOM     26  C   UNL     1       7.190   0.381  -0.065  0.00  0.00    +0.055 A 
ATOM     27  C   UNL     1       8.502   0.862  -0.080  0.00  0.00    +0.054 A 
ATOM     28  C   UNL     1       9.559  -0.027  -0.089  0.00  0.00    +0.040 A 
ATOM     29  C   UNL     1       9.319  -1.390  -0.095  0.00  0.00    +0.042 A 
ATOM     30 CL   UNL     1      10.653  -2.502  -0.114  0.00  0.00    -0.083 Cl
ATOM     31 CL   UNL     1       8.803   2.572  -0.081  0.00  0.00    -0.083 Cl
ENDBRANCH  20  26
ENDBRANCH  19  22
ENDBRANCH   1  19
TORSDOF 5
