REMARK  Name = ZINC39939868
REMARK  7 active torsions:
REMARK  status: ('A' for Active; 'I' for Inactive)
REMARK    1  A    between atoms: C_1  and  C_2
REMARK    2  A    between atoms: C_2  and  N_3
REMARK    3  A    between atoms: C_10  and  O_37
REMARK    4  A    between atoms: C_12  and  C_16
REMARK    5  A    between atoms: C_22  and  C_23
REMARK    6  A    between atoms: C_25  and  O_36
REMARK    7  A    between atoms: C_30  and  C_35
REMARK                            x       y       z     vdW  Elec       q    Type
REMARK                         _______ _______ _______ _____ _____    ______ ____
ROOT
ATOM      1  C   UNL     1       0.755  -2.848   3.334  0.00  0.00    +0.086 C 
ATOM      2  N   UNL     1       1.824  -3.568   3.208  0.00  0.00    -0.183 NA
ATOM      3  N   UNL     1       1.520  -4.921   3.062  0.00  0.00    -0.203 N 
ATOM      4  C   UNL     1       0.184  -5.106   3.093  0.00  0.00    +0.265 C 
ATOM      5  O   UNL     1      -0.413  -6.162   2.994  0.00  0.00    -0.268 OA
ATOM      6  C   UNL     1      -0.405  -3.760   3.279  0.00  0.00    +0.059 C 
ATOM      7  C   UNL     1      -1.714  -3.437   3.374  0.00  0.00    +0.008 C 
ATOM      8  H   UNL     1       2.175  -5.628   2.954  0.00  0.00    +0.178 HD
ENDROOT
BRANCH   7   9
ATOM      9  C   UNL     1      -2.764  -4.516   3.295  0.00  0.00    +0.164 C 
ATOM     10  C   UNL     1      -3.601  -4.260   2.056  0.00  0.00    +0.119 C 
ATOM     11  C   UNL     1      -4.974  -4.086   2.243  0.00  0.00    +0.035 A 
ATOM     12  C   UNL     1      -5.825  -3.844   1.146  0.00  0.00    +0.013 A 
ATOM     13  C   UNL     1      -7.160  -3.679   1.355  0.00  0.00    +0.001 A 
ATOM     14  C   UNL     1      -7.704  -3.743   2.634  0.00  0.00    +0.005 A 
ATOM     15  C   UNL     1      -6.932  -3.974   3.733  0.00  0.00    -0.029 A 
ATOM     16  C   UNL     1      -5.545  -4.154   3.591  0.00  0.00    +0.047 A 
ATOM     17  N   UNL     1      -4.789  -4.382   4.672  0.00  0.00    -0.284 N 
ATOM     18  C   UNL     1      -3.485  -4.561   4.622  0.00  0.00    +0.231 C 
ATOM     19  O   UNL     1      -2.860  -4.762   5.647  0.00  0.00    -0.274 OA
ATOM     20  C   UNL     1      -7.564  -4.036   5.099  0.00  0.00    +0.045 C 
ATOM     21  H   UNL     1      -5.224  -4.416   5.538  0.00  0.00    +0.155 HD
BRANCH  10  22
ATOM     22  O   UNL     1      -3.049  -4.203   0.840  0.00  0.00    -0.509 OA
ATOM     23  H   UNL     1      -3.682  -4.034   0.128  0.00  0.00    +0.292 HD
ENDBRANCH  10  22
ENDBRANCH   7   9
BRANCH   1  32
ATOM     24  N   UNL     1       0.711  -0.489   1.189  0.00  0.00    -0.271 N 
ATOM     25  C   UNL     1       2.092  -0.695   1.133  0.00  0.00    +0.042 A 
ATOM     26  C   UNL     1       2.740  -0.722  -0.095  0.00  0.00    +0.024 A 
ATOM     27  C   UNL     1       4.103  -0.940  -0.151  0.00  0.00    +0.002 A 
ATOM     28  C   UNL     1       4.822  -1.133   1.015  0.00  0.00    +0.000 A 
ATOM     29  C   UNL     1       4.180  -1.102   2.239  0.00  0.00    +0.008 A 
ATOM     30  C   UNL     1       2.819  -0.876   2.301  0.00  0.00    +0.003 A 
ATOM     31  C   UNL     1       2.128  -0.808   3.639  0.00  0.00    +0.164 C 
ATOM     32  C   UNL     1       0.705  -1.353   3.511  0.00  0.00    +0.159 C 
ATOM     33  C   UNL     1       0.026  -0.727   2.321  0.00  0.00    +0.232 C 
ATOM     34  O   UNL     1      -1.150  -0.437   2.384  0.00  0.00    -0.274 OA
BRANCH  24  36
ATOM     35  C   UNL     1      -0.019   1.526   0.010  0.00  0.00    +0.025 C 
ATOM     36  C   UNL     1       0.002  -0.004   0.002  0.00  0.00    +0.110 C 
ENDBRANCH  24  36
BRANCH  31  37
ATOM     37  O   UNL     1       2.078   0.551   4.080  0.00  0.00    -0.386 OA
ATOM     38  H   UNL     1       2.947   0.962   4.186  0.00  0.00    +0.210 HD
ENDBRANCH  31  37
ENDBRANCH   1  32
TORSDOF 5
