REMARK  Name = ZINC64999874
REMARK  12 active torsions:
REMARK  status: ('A' for Active; 'I' for Inactive)
REMARK    1  A    between atoms: C_1  and  C_2
REMARK    2  A    between atoms: C_2  and  C_3
REMARK    3  A    between atoms: C_3  and  C_4
REMARK    4  A    between atoms: C_4  and  C_5
REMARK    5  A    between atoms: C_8  and  N_12
REMARK    6  A    between atoms: C_13  and  C_15
REMARK    7  A    between atoms: C_15  and  O_16
REMARK    8  A    between atoms: O_16  and  C_17
REMARK    9  A    between atoms: C_19  and  C_27
REMARK   10  A    between atoms: C_22  and  C_23
REMARK   11  A    between atoms: C_23  and  C_24
REMARK   12  A    between atoms: C_23  and  C_25
REMARK                            x       y       z     vdW  Elec       q    Type
REMARK                         _______ _______ _______ _____ _____    ______ ____
ROOT
ATOM      1  N   UNL     1      -6.735  -4.029   0.047  0.00  0.00    -0.282 N 
ATOM      2  C   UNL     1      -7.322  -4.359   1.214  0.00  0.00    +0.255 C 
ATOM      3  O   UNL     1      -6.748  -4.151   2.262  0.00  0.00    -0.272 OA
ATOM      4  H   UNL     1      -7.225  -4.120  -0.786  0.00  0.00    +0.155 HD
ENDROOT
BRANCH   1   8
ATOM      5  C   UNL     1      -2.815  -2.616   0.011  0.00  0.00    -0.046 A 
ATOM      6  C   UNL     1      -3.252  -3.416   1.052  0.00  0.00    +0.005 A 
ATOM      7  C   UNL     1      -4.550  -3.885   1.066  0.00  0.00    +0.025 A 
ATOM      8  C   UNL     1      -5.419  -3.554   0.035  0.00  0.00    +0.048 A 
ATOM      9  C   UNL     1      -4.978  -2.750  -1.009  0.00  0.00    +0.039 A 
ATOM     10  C   UNL     1      -3.679  -2.279  -1.015  0.00  0.00    +0.020 A 
ATOM     11 BR   UNL     1      -6.156  -2.296  -2.417  0.00  0.00    -0.048 Br
BRANCH   5  12
ATOM     12  C   UNL     1      -1.397  -2.106  -0.001  0.00  0.00    +0.035 C 
BRANCH  12  13
ATOM     13  C   UNL     1      -1.332  -0.762   0.728  0.00  0.00    +0.004 C 
BRANCH  13  15
ATOM     14  C   UNL     1       0.172   1.099   1.445  0.00  0.00    +0.004 C 
ATOM     15  C   UNL     1       0.107  -0.244   0.716  0.00  0.00    -0.003 C 
ENDBRANCH  13  15
ENDBRANCH  12  13
ENDBRANCH   5  12
ENDBRANCH   1   8
BRANCH   2  16
ATOM     16  C   UNL     1      -8.692  -4.987   1.217  0.00  0.00    +0.324 C 
BRANCH  16  17
ATOM     17  O   UNL     1      -9.096  -5.242   2.564  0.00  0.00    -0.482 OA
BRANCH  17  18
ATOM     18  C   UNL     1     -10.317  -5.811   2.745  0.00  0.00    +0.125 A 
ATOM     19  C   UNL     1     -11.108  -6.122   1.649  0.00  0.00    +0.050 A 
ATOM     20  C   UNL     1     -12.348  -6.700   1.835  0.00  0.00    -0.033 A 
ATOM     21  C   UNL     1     -12.803  -6.969   3.114  0.00  0.00    +0.021 A 
ATOM     22  C   UNL     1     -12.016  -6.659   4.208  0.00  0.00    +0.023 A 
ATOM     23  C   UNL     1     -10.771  -6.087   4.026  0.00  0.00    -0.002 A 
ATOM     24 BR   UNL     1     -14.502  -7.760   3.365  0.00  0.00    -0.050 Br
ATOM     25  C   UNL     1     -13.208  -7.037   0.644  0.00  0.00    +0.045 C 
BRANCH  23  26
ATOM     26  C   UNL     1      -9.911  -5.757   5.219  0.00  0.00    +0.016 C 
ATOM     27  C   UNL     1     -10.650  -4.767   6.122  0.00  0.00    +0.012 C 
ATOM     28  C   UNL     1      -9.612  -7.037   6.002  0.00  0.00    +0.012 C 
ENDBRANCH  23  26
ENDBRANCH  17  18
ENDBRANCH  16  17
ENDBRANCH   2  16
TORSDOF 8
