REMARK  Name = ZINC28053114
REMARK  3 active torsions:
REMARK  status: ('A' for Active; 'I' for Inactive)
REMARK    1  A    between atoms: C_1  and  C_2
REMARK    2  A    between atoms: C_5  and  C_8
REMARK    3  A    between atoms: C_25  and  C_27
REMARK                            x       y       z     vdW  Elec       q    Type
REMARK                         _______ _______ _______ _____ _____    ______ ____
ROOT
ATOM      1  C   UNL     1      -0.076   5.774   0.033  0.00  0.00    +0.234 C 
ATOM      2  C   UNL     1      -0.318   6.262   1.443  0.00  0.00    +0.025 C 
ATOM      3  C   UNL     1      -1.572   6.426   1.869  0.00  0.00    +0.050 C 
ATOM      4  C   UNL     1      -2.680   6.131   0.930  0.00  0.00    +0.038 A 
ATOM      5  C   UNL     1      -3.981   5.939   1.377  0.00  0.00    +0.013 A 
ATOM      6  C   UNL     1      -4.982   5.669   0.464  0.00  0.00    +0.001 A 
ATOM      7  C   UNL     1      -4.693   5.590  -0.887  0.00  0.00    +0.004 A 
ATOM      8  C   UNL     1      -3.400   5.778  -1.341  0.00  0.00    +0.046 A 
ATOM      9  C   UNL     1      -2.388   6.048  -0.438  0.00  0.00    +0.131 A 
ATOM     10  O   UNL     1      -1.106   6.235  -0.842  0.00  0.00    -0.479 OA
ATOM     11  N   UNL     1      -1.870   6.874   3.161  0.00  0.00    -0.282 N 
ATOM     12  C   UNL     1      -0.832   7.416   3.900  0.00  0.00    +0.240 A 
ATOM     13  N   UNL     1      -0.832   8.108   5.003  0.00  0.00    -0.092 NA
ATOM     14  N   UNL     1       0.375   8.419   5.335  0.00  0.00    -0.021 NA
ATOM     15  N   UNL     1       1.216   7.945   4.473  0.00  0.00    -0.042 NA
ATOM     16  N   UNL     1       0.463   7.272   3.512  0.00  0.00    -0.201 N 
ATOM     17  C   UNL     1       0.876   6.542   2.322  0.00  0.00    +0.174 C 
ATOM     18  H   UNL     1      -2.895   6.787   3.550  0.00  0.00    +0.155 HD
ENDROOT
BRANCH   1  23
ATOM     19  C   UNL     1       0.002  -0.004   0.003  0.00  0.00    +0.044 C 
ATOM     20  C   UNL     1      -0.018   1.503   0.010  0.00  0.00    -0.050 A 
ATOM     21  C   UNL     1       1.162   2.211  -0.118  0.00  0.00    +0.004 A 
ATOM     22  C   UNL     1       1.143   3.593  -0.117  0.00  0.00    +0.008 A 
ATOM     23  C   UNL     1      -0.056   4.267   0.025  0.00  0.00    -0.003 A 
ATOM     24  C   UNL     1      -1.236   3.559   0.158  0.00  0.00    +0.008 A 
ATOM     25  C   UNL     1      -1.217   2.177   0.151  0.00  0.00    +0.004 A 
ENDBRANCH   1  23
BRANCH  17  26
ATOM     26  C   UNL     1       1.511   5.238   2.732  0.00  0.00    -0.019 A 
ATOM     27  C   UNL     1       0.781   4.309   3.450  0.00  0.00    +0.006 A 
ATOM     28  C   UNL     1       1.363   3.112   3.823  0.00  0.00    +0.000 A 
ATOM     29  C   UNL     1       2.676   2.846   3.485  0.00  0.00    +0.000 A 
ATOM     30  C   UNL     1       3.408   3.777   2.770  0.00  0.00    +0.000 A 
ATOM     31  C   UNL     1       2.825   4.973   2.394  0.00  0.00    +0.006 A 
ENDBRANCH  17  26
TORSDOF 2
