REMARK  Name = ZINC09641326
REMARK  7 active torsions:
REMARK  status: ('A' for Active; 'I' for Inactive)
REMARK    1  A    between atoms: C_1  and  C_2
REMARK    2  A    between atoms: C_5  and  C_35
REMARK    3  A    between atoms: C_9  and  C_10
REMARK    4  A    between atoms: C_9  and  N_68
REMARK    5  A    between atoms: C_10  and  N_11
REMARK    6  A    between atoms: N_11  and  C_12
REMARK    7  A    between atoms: C_14  and  N_29
REMARK                            x       y       z     vdW  Elec       q    Type
REMARK                         _______ _______ _______ _____ _____    ______ ____
ROOT
ATOM      1  C   UNL     1      -2.411  -0.185   0.023  0.00  0.00    +0.041 A 
ATOM      2  C   UNL     1      -2.464   1.214   0.033  0.00  0.00    +0.049 A 
ATOM      3  C   UNL     1      -1.361   2.046   0.031  0.00  0.00    +0.061 A 
ATOM      4  C   UNL     1      -0.018   1.454   0.010  0.00  0.00    +0.136 A 
ATOM      5  C   UNL     1       0.002  -0.004   0.002  0.00  0.00    +0.063 A 
ATOM      6  C   UNL     1      -1.169  -0.838   0.008  0.00  0.00    +0.056 A 
ATOM      7  C   UNL     1      -0.951  -2.235  -0.002  0.00  0.00    +0.196 C 
ATOM      8  O   UNL     1      -1.888  -3.017   0.000  0.00  0.00    -0.287 OA
ATOM      9  C   UNL     1       0.447  -2.721  -0.017  0.00  0.00    +0.033 A 
ATOM     10  C   UNL     1       0.684  -4.100  -0.027  0.00  0.00    +0.012 A 
ATOM     11  C   UNL     1       1.973  -4.580  -0.039  0.00  0.00    +0.001 A 
ATOM     12  C   UNL     1       3.054  -3.709  -0.043  0.00  0.00    +0.001 A 
ATOM     13  C   UNL     1       2.852  -2.348  -0.035  0.00  0.00    +0.012 A 
ATOM     14  C   UNL     1       1.552  -1.835  -0.022  0.00  0.00    +0.031 A 
ATOM     15  C   UNL     1       1.318  -0.391  -0.012  0.00  0.00    +0.176 A 
ATOM     16  O   UNL     1       1.983   0.770  -0.011  0.00  0.00    -0.353 OA
ATOM     17  N   UNL     1       1.250   1.758  -0.000  0.00  0.00    -0.076 NA
ENDROOT
BRANCH   3  18
ATOM     18  N   UNL     1      -1.521   3.416   0.042  0.00  0.00    -0.328 N 
ATOM     19  C   UNL     1      -2.158   3.862   1.287  0.00  0.00    +0.105 C 
ATOM     20  C   UNL     1      -2.186   5.392   1.327  0.00  0.00    +0.019 C 
ATOM     21  C   UNL     1      -2.965   5.915   0.118  0.00  0.00    +0.003 C 
ATOM     22  C   UNL     1      -2.309   5.397  -1.165  0.00  0.00    +0.019 C 
ATOM     23  C   UNL     1      -2.277   3.867  -1.133  0.00  0.00    +0.105 C 
ENDBRANCH   3  18
BRANCH   1  24
ATOM     24  N   UNL     1      -3.578  -0.921   0.029  0.00  0.00    -0.345 N 
ATOM     25  H   UNL     1      -3.540  -1.890   0.022  0.00  0.00    +0.146 HD
BRANCH  24  26
ATOM     26  C   UNL     1      -4.874  -0.238   0.046  0.00  0.00    +0.083 C 
BRANCH  26  27
ATOM     27  C   UNL     1      -5.997  -1.276   0.049  0.00  0.00    -0.060 C 
BRANCH  27  35
ATOM     28  C   UNL     1      -8.684   1.964   0.098  0.00  0.00    +0.005 C 
ATOM     29  C   UNL     1      -8.782   0.958   1.246  0.00  0.00    -0.031 C 
ATOM     30  C   UNL     1      -9.961   0.013   1.000  0.00  0.00    +0.003 C 
ATOM     31  C   UNL     1      -9.714  -0.774  -0.289  0.00  0.00    -0.031 C 
ATOM     32  C   UNL     1      -8.394  -1.540  -0.169  0.00  0.00    -0.076 C 
ATOM     33  C   UNL     1      -7.489   0.142   1.323  0.00  0.00    -0.076 C 
ATOM     34  C   UNL     1     -10.859  -1.764  -0.512  0.00  0.00    +0.005 C 
ATOM     35  N   UNL     1      -7.296  -0.572   0.043  0.00  0.00    +0.381 N 
ATOM     36  H   UNL     1      -7.301   0.111  -0.724  0.00  0.00    -0.082 HD
ENDBRANCH  27  35
ENDBRANCH  26  27
ENDBRANCH  24  26
ENDBRANCH   1  24
TORSDOF 5
