REMARK  Name = ZINC59378554
REMARK  9 active torsions:
REMARK  status: ('A' for Active; 'I' for Inactive)
REMARK    1  A    between atoms: C_3  and  N_13
REMARK    2  A    between atoms: C_4  and  N_10
REMARK    3  A    between atoms: C_6  and  N_7
REMARK    4  A    between atoms: N_13  and  N_14
REMARK    5  A    between atoms: C_15  and  C_16
REMARK    6  A    between atoms: N_20  and  C_21
REMARK    7  A    between atoms: C_21  and  C_22
REMARK    8  A    between atoms: C_22  and  O_23
REMARK    9  A    between atoms: O_23  and  C_24
REMARK                            x       y       z     vdW  Elec       q    Type
REMARK                         _______ _______ _______ _____ _____    ______ ____
ROOT
ATOM      1  N   UNL     1       3.578   3.495  -0.280  0.00  0.00    -0.290 N 
ATOM      2  C   UNL     1       4.693   4.148  -0.337  0.00  0.00    +0.191 C 
ATOM      3  N   UNL     1       4.684   5.526  -0.487  0.00  0.00    -0.323 N 
ATOM      4  H   UNL     1       5.520   6.015  -0.530  0.00  0.00    +0.148 HD
ATOM      5  H   UNL     1       2.735   3.971  -0.342  0.00  0.00    +0.186 HD
ENDROOT
BRANCH   2   6
ATOM      6  C   UNL     1       6.003   3.409  -0.240  0.00  0.00    +0.447 C 
ATOM      7  F   UNL     1       7.061   4.322  -0.327  0.00  0.00    -0.163 F 
ATOM      8  F   UNL     1       6.069   2.734   0.983  0.00  0.00    -0.163 F 
ATOM      9  F   UNL     1       6.097   2.487  -1.288  0.00  0.00    -0.163 F 
ENDBRANCH   2   6
BRANCH   1  10
ATOM     10  N   UNL     1       3.588   2.103  -0.128  0.00  0.00    -0.257 N 
ATOM     11  H   UNL     1       4.431   1.628  -0.066  0.00  0.00    +0.172 HD
BRANCH  10  14
ATOM     12  C   UNL     1      -0.009   1.362  -0.206  0.00  0.00    +0.035 A 
ATOM     13  C   UNL     1       1.180   2.062  -0.267  0.00  0.00    +0.029 A 
ATOM     14  C   UNL     1       2.385   1.400  -0.067  0.00  0.00    +0.077 A 
ATOM     15  C   UNL     1       2.389   0.034   0.196  0.00  0.00    +0.151 A 
ATOM     16  C   UNL     1       1.196  -0.658   0.255  0.00  0.00    +0.067 A 
ATOM     17  C   UNL     1      -0.001   0.004   0.055  0.00  0.00    +0.128 A 
BRANCH  17  18
ATOM     18  N   UNL     1      -1.279  -0.743   0.120  0.00  0.00    +0.056 N 
ATOM     19  O   UNL     1      -2.327  -0.165  -0.054  0.00  0.00    -0.126 OA
ATOM     20  O   UNL     1      -1.274  -1.930   0.348  0.00  0.00    -0.126 OA
ENDBRANCH  17  18
BRANCH  15  21
ATOM     21  N   UNL     1       3.671  -0.676   0.410  0.00  0.00    +0.058 N 
ATOM     22  O   UNL     1       3.819  -1.798  -0.017  0.00  0.00    -0.126 OA
ATOM     23  O   UNL     1       4.569  -0.135   1.011  0.00  0.00    -0.126 OA
ENDBRANCH  15  21
ENDBRANCH  10  14
ENDBRANCH   1  10
BRANCH   3  24
ATOM     24  C   UNL     1       3.410   6.244  -0.581  0.00  0.00    +0.144 C 
BRANCH  24  25
ATOM     25  C   UNL     1       3.679   7.741  -0.740  0.00  0.00    +0.247 C 
BRANCH  25  26
ATOM     26  O   UNL     1       4.338   7.977  -1.986  0.00  0.00    -0.490 OA
BRANCH  26  27
ATOM     27  C   UNL     1       4.651   9.265  -2.285  0.00  0.00    +0.121 A 
ATOM     28  C   UNL     1       4.337  10.283  -1.396  0.00  0.00    +0.046 A 
ATOM     29  C   UNL     1       4.656  11.587  -1.710  0.00  0.00    +0.007 A 
ATOM     30  C   UNL     1       5.292  11.891  -2.907  0.00  0.00    -0.044 A 
ATOM     31  C   UNL     1       5.610  10.882  -3.788  0.00  0.00    -0.041 A 
ATOM     32  C   UNL     1       5.291   9.568  -3.474  0.00  0.00    +0.049 A 
ATOM     33  C   UNL     1       6.313  11.139  -5.096  0.00  0.00    +0.035 C 
ATOM     34  C   UNL     1       6.210  12.613  -5.481  0.00  0.00    +0.005 C 
ATOM     35  C   UNL     1       6.659  13.459  -4.284  0.00  0.00    +0.005 C 
ATOM     36  C   UNL     1       5.604  13.338  -3.186  0.00  0.00    +0.035 C 
ENDBRANCH  26  27
ENDBRANCH  25  26
ENDBRANCH  24  25
ENDBRANCH   3  24
TORSDOF 9
