REMARK  Name = ZINC39766609
REMARK  11 active torsions:
REMARK  status: ('A' for Active; 'I' for Inactive)
REMARK    1  A    between atoms: C_1  and  C_2
REMARK    2  A    between atoms: C_2  and  C_4
REMARK    3  A    between atoms: C_2  and  N_28
REMARK    4  A    between atoms: C_7  and  S_12
REMARK    5  A    between atoms: N_8  and  C_9
REMARK    6  A    between atoms: C_9  and  C_10
REMARK    7  A    between atoms: S_12  and  C_13
REMARK    8  A    between atoms: C_13  and  C_15
REMARK    9  A    between atoms: C_13  and  C_16
REMARK   10  A    between atoms: N_18  and  C_19
REMARK   11  A    between atoms: C_29  and  C_31
REMARK                            x       y       z     vdW  Elec       q    Type
REMARK                         _______ _______ _______ _____ _____    ______ ____
ROOT
ATOM      1  C   UNL     1      -1.401  -0.547   0.007  0.00  0.00    +0.155 A 
ATOM      2  N   UNL     1      -2.208  -0.564   1.030  0.00  0.00    -0.132 NA
ATOM      3  N   UNL     1      -3.340  -1.072   0.692  0.00  0.00    -0.122 NA
ATOM      4  C   UNL     1      -3.315  -1.410  -0.577  0.00  0.00    +0.193 A 
ATOM      5  N   UNL     1      -2.079  -1.081  -1.054  0.00  0.00    -0.301 N 
ENDROOT
BRANCH   1   7
ATOM      6  C   UNL     1      -0.002   1.500   0.012  0.00  0.00    +0.036 C 
ATOM      7  C   UNL     1       0.014  -0.030  -0.006  0.00  0.00    +0.138 C 
BRANCH   7   8
ATOM      8  N   UNL     1       0.725  -0.525   1.176  0.00  0.00    -0.302 N 
ATOM      9  C   UNL     1       2.068  -0.639   1.155  0.00  0.00    +0.245 C 
ATOM     10  O   UNL     1       2.689  -0.333   0.156  0.00  0.00    -0.270 OA
ATOM     11  H   UNL     1       0.230  -0.770   1.973  0.00  0.00    +0.150 HD
BRANCH   9  12
ATOM     12  C   UNL     1       2.785  -1.138   2.347  0.00  0.00    +0.037 A 
ATOM     13  C   UNL     1       2.075  -1.497   3.494  0.00  0.00    +0.014 A 
ATOM     14  C   UNL     1       2.749  -1.962   4.603  0.00  0.00    +0.021 A 
ATOM     15  C   UNL     1       4.130  -2.074   4.580  0.00  0.00    +0.041 A 
ATOM     16  C   UNL     1       4.841  -1.719   3.446  0.00  0.00    +0.021 A 
ATOM     17  C   UNL     1       4.176  -1.258   2.329  0.00  0.00    +0.014 A 
ATOM     18 CL   UNL     1       4.973  -2.659   5.981  0.00  0.00    -0.084 Cl
ENDBRANCH   9  12
ENDBRANCH   7   8
ENDBRANCH   1   7
BRANCH   5  19
ATOM     19  C   UNL     1      -1.580  -1.265  -2.420  0.00  0.00    +0.152 C 
BRANCH  19  20
ATOM     20  C   UNL     1      -0.935  -2.622  -2.540  0.00  0.00    -0.013 C 
ATOM     21  C   UNL     1      -1.335  -3.458  -3.466  0.00  0.00    +0.005 C 
ENDBRANCH  19  20
ENDBRANCH   5  19
BRANCH   4  22
ATOM     22  S   UNL     1      -4.630  -2.144  -1.491  0.00  0.00    -0.074 S 
BRANCH  22  23
ATOM     23  C   UNL     1      -5.971  -2.304  -0.280  0.00  0.00    +0.137 C 
ATOM     24  C   UNL     1      -6.428  -0.912   0.162  0.00  0.00    +0.029 C 
BRANCH  23  25
ATOM     25  C   UNL     1      -7.129  -3.037  -0.906  0.00  0.00    +0.230 C 
ATOM     26  O   UNL     1      -7.227  -3.097  -2.113  0.00  0.00    -0.274 OA
ATOM     27  N   UNL     1      -8.056  -3.626  -0.124  0.00  0.00    -0.284 N 
ATOM     28  H   UNL     1      -7.942  -3.636   0.839  0.00  0.00    +0.155 HD
BRANCH  27  29
ATOM     29  C   UNL     1      -9.183  -4.223  -0.703  0.00  0.00    +0.037 A 
ATOM     30  C   UNL     1     -10.409  -4.170  -0.053  0.00  0.00    +0.027 A 
ATOM     31  C   UNL     1     -11.521  -4.758  -0.623  0.00  0.00    +0.051 A 
ATOM     32  C   UNL     1     -11.417  -5.404  -1.844  0.00  0.00    +0.166 A 
ATOM     33  C   UNL     1     -10.189  -5.460  -2.499  0.00  0.00    +0.168 A 
ATOM     34  C   UNL     1      -9.076  -4.865  -1.929  0.00  0.00    +0.072 A 
ATOM     35  O   UNL     1     -10.349  -6.144  -3.669  0.00  0.00    -0.453 OA
ATOM     36  C   UNL     1     -11.592  -6.858  -3.530  0.00  0.00    +0.466 C 
ATOM     37  O   UNL     1     -12.347  -6.054  -2.605  0.00  0.00    -0.453 OA
ENDBRANCH  27  29
ENDBRANCH  23  25
ENDBRANCH  22  23
ENDBRANCH   4  22
TORSDOF 9
