REMARK  Name = ZINC08295922
REMARK  7 active torsions:
REMARK  status: ('A' for Active; 'I' for Inactive)
REMARK    1  A    between atoms: C_3  and  C_6
REMARK    2  A    between atoms: C_6  and  N_7
REMARK    3  A    between atoms: C_10  and  O_33
REMARK    4  A    between atoms: C_12  and  O_32
REMARK    5  A    between atoms: C_15  and  C_29
REMARK    6  A    between atoms: N_21  and  C_22
REMARK    7  A    between atoms: C_22  and  C_23
REMARK                            x       y       z     vdW  Elec       q    Type
REMARK                         _______ _______ _______ _____ _____    ______ ____
ROOT
ATOM      1  N   UNL     1       2.967   4.351  -1.082  0.00  0.00    -0.299 N 
ATOM      2  C   UNL     1       2.480   3.661   0.081  0.00  0.00    +0.121 C 
ATOM      3  C   UNL     1       1.214   2.883  -0.115  0.00  0.00    +0.164 C 
ATOM      4  C   UNL     1       1.461   1.384  -0.247  0.00  0.00    +0.146 C 
ATOM      5  C   UNL     1       2.234   0.913   0.989  0.00  0.00    +0.048 C 
ATOM      6  C   UNL     1       3.616   1.554   0.972  0.00  0.00    +0.092 C 
ATOM      7  C   UNL     1       3.548   3.069   0.977  0.00  0.00    +0.089 C 
ATOM      8  S   UNL     1       5.068   3.711   0.165  0.00  0.00    -0.085 S 
ATOM      9  C   UNL     1       4.322   4.542  -1.223  0.00  0.00    +0.153 C 
ATOM     10  N   UNL     1       4.932   5.194  -2.173  0.00  0.00    -0.263 NA
ENDROOT
BRANCH   6  11
ATOM     11  C   UNL     1       4.381   1.097   2.187  0.00  0.00    +0.215 C 
ATOM     12  O   UNL     1       4.779   1.910   2.995  0.00  0.00    -0.276 OA
ATOM     13  N   UNL     1       4.624  -0.215   2.377  0.00  0.00    -0.329 N 
ATOM     14  H   UNL     1       4.306  -0.866   1.731  0.00  0.00    +0.145 HD
ATOM     15  H   UNL     1       5.117  -0.510   3.159  0.00  0.00    +0.145 HD
ENDBRANCH   6  11
BRANCH   4  16
ATOM     16  O   UNL     1       0.211   0.695  -0.325  0.00  0.00    -0.389 OA
ATOM     17  H   UNL     1       0.295  -0.266  -0.392  0.00  0.00    +0.210 HD
ENDBRANCH   4  16
BRANCH   3  18
ATOM     18  O   UNL     1       0.564   3.351  -1.298  0.00  0.00    -0.387 OA
ATOM     19  H   UNL     1      -0.289   2.930  -1.470  0.00  0.00    +0.210 HD
ENDBRANCH   3  18
BRANCH   1  20
ATOM     20  C   UNL     1       2.036   4.842  -2.101  0.00  0.00    +0.149 C 
BRANCH  20  23
ATOM     21  C   UNL     1       0.233   7.916  -0.755  0.00  0.00    +0.008 A 
ATOM     22  C   UNL     1       1.237   7.188  -1.365  0.00  0.00    +0.013 A 
ATOM     23  C   UNL     1       1.096   5.845  -1.482  0.00  0.00    +0.007 A 
ATOM     24  S   UNL     1      -0.487   5.570  -0.705  0.00  0.00    -0.100 S 
ATOM     25  C   UNL     1      -0.858   7.264  -0.283  0.00  0.00    +0.045 A 
ENDBRANCH  20  23
ENDBRANCH   1  20
BRANCH  10  26
ATOM     26  C   UNL     1       6.393   5.300  -2.168  0.00  0.00    +0.147 C 
BRANCH  26  27
ATOM     27  C   UNL     1       6.962   4.564  -3.383  0.00  0.00    +0.010 C 
ATOM     28  C   UNL     1       6.663   3.068  -3.259  0.00  0.00    +0.005 C 
ATOM     29  C   UNL     1       7.232   2.333  -4.474  0.00  0.00    +0.000 C 
ATOM     30  C   UNL     1       8.746   2.547  -4.537  0.00  0.00    +0.000 C 
ATOM     31  C   UNL     1       9.044   4.042  -4.661  0.00  0.00    +0.000 C 
ATOM     32  C   UNL     1       8.475   4.778  -3.446  0.00  0.00    +0.005 C 
ENDBRANCH  26  27
ENDBRANCH  10  26
TORSDOF 7
