REMARK  Name = ZINC05287613
REMARK  7 active torsions:
REMARK  status: ('A' for Active; 'I' for Inactive)
REMARK    1  A    between atoms: C_3  and  S_20
REMARK    2  A    between atoms: C_6  and  C_7
REMARK    3  A    between atoms: C_7  and  C_8
REMARK    4  A    between atoms: C_8  and  N_9
REMARK    5  A    between atoms: C_10  and  C_11
REMARK    6  A    between atoms: C_16  and  O_17
REMARK    7  A    between atoms: S_20  and  N_23
REMARK                            x       y       z     vdW  Elec       q    Type
REMARK                         _______ _______ _______ _____ _____    ______ ____
ROOT
ATOM      1  C   UNL     1      -1.743  -1.031  -1.440  0.00  0.00    +0.117 C 
ENDROOT
BRANCH   1   2
ATOM      2  N   UNL     1      -3.001  -1.781  -1.431  0.00  0.00    -0.389 N 
ATOM      3  C   UNL     1      -4.084  -1.234  -1.881  0.00  0.00    +0.090 C 
ATOM      4  H   UNL     1      -3.022  -2.688  -1.087  0.00  0.00    +0.159 HD
BRANCH   3   5
ATOM      5  C   UNL     1      -5.325  -2.024  -1.974  0.00  0.00    +0.035 A 
ATOM      6  C   UNL     1      -6.465  -1.474  -2.566  0.00  0.00    +0.033 A 
ATOM      7  C   UNL     1      -7.623  -2.218  -2.651  0.00  0.00    +0.043 A 
ATOM      8  C   UNL     1      -7.661  -3.511  -2.151  0.00  0.00    +0.043 A 
ATOM      9  C   UNL     1      -6.540  -4.066  -1.564  0.00  0.00    +0.084 A 
ATOM     10  C   UNL     1      -5.366  -3.333  -1.476  0.00  0.00    +0.144 A 
ATOM     11 CL   UNL     1      -6.601  -5.685  -0.941  0.00  0.00    -0.080 Cl
ATOM     12 CL   UNL     1      -9.039  -1.533  -3.386  0.00  0.00    -0.083 Cl
BRANCH  10  13
ATOM     13  O   UNL     1      -4.263  -3.879  -0.904  0.00  0.00    -0.505 OA
ATOM     14  H   UNL     1      -4.199  -3.729   0.050  0.00  0.00    +0.292 HD
ENDBRANCH  10  13
ENDBRANCH   3   5
ENDBRANCH   1   2
BRANCH   1  15
ATOM     15  C   UNL     1      -1.283  -0.789  -0.001  0.00  0.00    +0.056 C 
BRANCH  15  21
ATOM     16  C   UNL     1      -0.008   1.365   0.008  0.00  0.00    +0.005 A 
ATOM     17  C   UNL     1       1.179   2.073  -0.000  0.00  0.00    +0.029 A 
ATOM     18  C   UNL     1       2.386   1.399  -0.027  0.00  0.00    +0.105 A 
ATOM     19  C   UNL     1       2.405   0.017  -0.045  0.00  0.00    +0.029 A 
ATOM     20  C   UNL     1       1.218  -0.691  -0.036  0.00  0.00    +0.005 A 
ATOM     21  C   UNL     1       0.011  -0.017  -0.010  0.00  0.00    -0.046 A 
BRANCH  18  22
ATOM     22  S   UNL     1       3.899   2.302  -0.039  0.00  0.00    +0.056 S 
ATOM     23  O   UNL     1       4.877   1.447  -0.615  0.00  0.00    -0.153 OA
ATOM     24  O   UNL     1       3.602   3.586  -0.569  0.00  0.00    -0.153 OA
BRANCH  22  25
ATOM     25  N   UNL     1       4.344   2.533   1.540  0.00  0.00    -0.204 NA
ATOM     26  H   UNL     1       5.283   2.598   1.774  0.00  0.00    +0.144 HD
ATOM     27  H   UNL     1       3.666   2.602   2.229  0.00  0.00    +0.144 HD
ENDBRANCH  22  25
ENDBRANCH  18  22
ENDBRANCH  15  21
ENDBRANCH   1  15
TORSDOF 7
