REMARK  Name = ZINC08395563
REMARK  5 active torsions:
REMARK  status: ('A' for Active; 'I' for Inactive)
REMARK    1  A    between atoms: C_4  and  C_7
REMARK    2  A    between atoms: C_9  and  N_18
REMARK    3  A    between atoms: N_18  and  N_19
REMARK    4  A    between atoms: N_19  and  C_20
REMARK    5  A    between atoms: N_25  and  C_28
REMARK                            x       y       z     vdW  Elec       q    Type
REMARK                         _______ _______ _______ _____ _____    ______ ____
ROOT
ATOM      1  N   UNL     1       6.550  -0.760  -2.260  0.00  0.00    -0.264 N 
ATOM      2  H   UNL     1       6.518  -0.057  -2.926  0.00  0.00    +0.168 HD
ENDROOT
BRANCH   1   5
ATOM      3  C   UNL     1       3.054  -0.774  -1.161  0.00  0.00    -0.005 A 
ATOM      4  C   UNL     1       4.210  -0.435  -1.846  0.00  0.00    +0.053 A 
ATOM      5  C   UNL     1       5.401  -1.111  -1.565  0.00  0.00    +0.134 A 
ATOM      6  N   UNL     1       5.471  -2.069  -0.665  0.00  0.00    -0.231 NA
ATOM      7  C   UNL     1       4.407  -2.463   0.043  0.00  0.00    +0.074 A 
ATOM      8  C   UNL     1       3.153  -1.838  -0.161  0.00  0.00    +0.010 A 
ATOM      9  C   UNL     1       2.042  -2.247   0.585  0.00  0.00    +0.030 A 
ATOM     10  C   UNL     1       2.179  -3.243   1.508  0.00  0.00    +0.042 A 
ATOM     11  C   UNL     1       3.413  -3.857   1.715  0.00  0.00    +0.022 A 
ATOM     12  C   UNL     1       4.510  -3.489   0.997  0.00  0.00    +0.030 A 
ATOM     13 CL   UNL     1       0.801  -3.751   2.434  0.00  0.00    -0.084 Cl
BRANCH   3  17
ATOM     14  C   UNL     1      -0.629   1.207  -1.922  0.00  0.00    +0.000 A 
ATOM     15  C   UNL     1       0.516   1.947  -1.688  0.00  0.00    +0.001 A 
ATOM     16  C   UNL     1       1.715   1.310  -1.440  0.00  0.00    +0.008 A 
ATOM     17  C   UNL     1       1.770  -0.084  -1.426  0.00  0.00    -0.017 A 
ATOM     18  C   UNL     1       0.612  -0.825  -1.663  0.00  0.00    +0.008 A 
ATOM     19  C   UNL     1      -0.580  -0.176  -1.909  0.00  0.00    +0.001 A 
ENDBRANCH   3  17
ENDBRANCH   1   5
BRANCH   1  20
ATOM     20  N   UNL     1       7.726  -1.406  -2.004  0.00  0.00    -0.229 NA
ATOM     21  H   UNL     1       7.967  -1.345  -1.026  0.00  0.00    +0.145 HD
BRANCH  20  22
ATOM     22  C   UNL     1       8.809  -0.880  -2.846  0.00  0.00    +0.168 C 
ATOM     23  C   UNL     1       8.451  -1.018  -4.340  0.00  0.00    +0.126 C 
ATOM     24  C   UNL     1       8.433   0.412  -4.834  0.00  0.00    +0.228 C 
ATOM     25  O   UNL     1       8.191   0.759  -5.970  0.00  0.00    -0.275 OA
ATOM     26  N   UNL     1       8.726   1.233  -3.818  0.00  0.00    -0.209 N 
ATOM     27  C   UNL     1       8.959   0.613  -2.651  0.00  0.00    +0.245 C 
ATOM     28  O   UNL     1       9.242   1.160  -1.606  0.00  0.00    -0.273 OA
BRANCH  26  29
ATOM     29  C   UNL     1       8.788   2.627  -3.962  0.00  0.00    +0.044 A 
ATOM     30  C   UNL     1      10.004   3.285  -3.841  0.00  0.00    +0.027 A 
ATOM     31  C   UNL     1      10.062   4.657  -3.983  0.00  0.00    +0.040 A 
ATOM     32  C   UNL     1       8.909   5.377  -4.246  0.00  0.00    +0.124 A 
ATOM     33  C   UNL     1       7.695   4.722  -4.368  0.00  0.00    +0.040 A 
ATOM     34  C   UNL     1       7.633   3.349  -4.232  0.00  0.00    +0.027 A 
ATOM     35  F   UNL     1       8.968   6.720  -4.385  0.00  0.00    -0.205 F 
ENDBRANCH  26  29
ENDBRANCH  20  22
ENDBRANCH   1  20
TORSDOF 5
