REMARK  Name = ZINC00729517
REMARK  13 active torsions:
REMARK  status: ('A' for Active; 'I' for Inactive)
REMARK    1  A    between atoms: C_1  and  C_2
REMARK    2  A    between atoms: C_2  and  N_3
REMARK    3  A    between atoms: N_3  and  C_4
REMARK    4  A    between atoms: N_3  and  C_6
REMARK    5  A    between atoms: C_4  and  C_5
REMARK    6  A    between atoms: C_9  and  C_12
REMARK    7  A    between atoms: C_17  and  C_22
REMARK    8  A    between atoms: C_24  and  O_32
REMARK    9  A    between atoms: C_25  and  O_30
REMARK   10  A    between atoms: C_26  and  O_28
REMARK   11  A    between atoms: O_28  and  C_29
REMARK   12  A    between atoms: O_30  and  C_31
REMARK   13  A    between atoms: O_32  and  C_33
REMARK                            x       y       z     vdW  Elec       q    Type
REMARK                         _______ _______ _______ _____ _____    ______ ____
ROOT
ATOM      1  C   UNL     1       6.574  -0.290  -0.131  0.00  0.00    +0.136 C 
ATOM      2  C   UNL     1       5.219   0.376  -0.098  0.00  0.00    +0.036 C 
ATOM      3  C   UNL     1       4.524   0.695   1.006  0.00  0.00    +0.017 C 
ATOM      4  C   UNL     1       3.176   1.387   0.893  0.00  0.00    +0.059 C 
ATOM      5  C   UNL     1       2.455   0.916  -0.369  0.00  0.00    +0.032 C 
ATOM      6  C   UNL     1       3.336   1.274  -1.571  0.00  0.00    +0.088 C 
ATOM      7  C   UNL     1       4.686   0.650  -1.379  0.00  0.00    +0.163 C 
ATOM      8  O   UNL     1       5.346   0.370  -2.360  0.00  0.00    -0.292 OA
ATOM      9  N   UNL     1       4.929   0.448   2.278  0.00  0.00    -0.316 N 
ATOM     10  C   UNL     1       6.200   0.721   2.772  0.00  0.00    +0.052 A 
ATOM     11  C   UNL     1       6.421   1.654   3.769  0.00  0.00    +0.025 A 
ATOM     12  C   UNL     1       7.707   1.844   4.247  0.00  0.00    +0.002 A 
ATOM     13  C   UNL     1       8.758   1.107   3.734  0.00  0.00    +0.002 A 
ATOM     14  C   UNL     1       8.540   0.185   2.724  0.00  0.00    +0.025 A 
ATOM     15  C   UNL     1       7.258   0.008   2.229  0.00  0.00    +0.049 A 
ATOM     16  N   UNL     1       7.008  -0.827   1.142  0.00  0.00    -0.331 N 
ATOM     17  H   UNL     1       4.285   0.053   2.887  0.00  0.00    +0.152 HD
ATOM     18  H   UNL     1       7.126  -1.785   1.239  0.00  0.00    +0.147 HD
ENDROOT
BRANCH   1  22
ATOM     19  C   UNL     1       9.460   2.575  -1.447  0.00  0.00    +0.030 A 
ATOM     20  C   UNL     1       9.176   1.462  -2.229  0.00  0.00    +0.023 A 
ATOM     21  C   UNL     1       8.243   0.539  -1.801  0.00  0.00    +0.007 A 
ATOM     22  C   UNL     1       7.592   0.720  -0.595  0.00  0.00    -0.023 A 
ATOM     23  C   UNL     1       7.868   1.829   0.184  0.00  0.00    +0.007 A 
ATOM     24  C   UNL     1       8.804   2.754  -0.236  0.00  0.00    +0.023 A 
BRANCH  19  25
ATOM     25  N   UNL     1      10.404   3.510  -1.877  0.00  0.00    -0.330 N 
BRANCH  25  27
ATOM     26  C   UNL     1      11.845   4.352  -0.090  0.00  0.00    +0.024 C 
ATOM     27  C   UNL     1      10.702   4.683  -1.051  0.00  0.00    +0.102 C 
ENDBRANCH  25  27
BRANCH  25  28
ATOM     28  C   UNL     1      11.095   3.319  -3.155  0.00  0.00    +0.102 C 
ATOM     29  C   UNL     1      10.296   3.992  -4.273  0.00  0.00    +0.024 C 
ENDBRANCH  25  28
ENDBRANCH  19  25
ENDBRANCH   1  22
BRANCH   5  30
ATOM     30  C   UNL     1       1.123   1.611  -0.486  0.00  0.00    -0.036 A 
ATOM     31  C   UNL     1      -0.043   0.869  -0.508  0.00  0.00    +0.053 A 
ATOM     32  C   UNL     1      -1.270   1.505  -0.622  0.00  0.00    +0.165 A 
ATOM     33  C   UNL     1      -1.327   2.891  -0.703  0.00  0.00    +0.204 A 
ATOM     34  C   UNL     1      -0.153   3.634  -0.681  0.00  0.00    +0.165 A 
ATOM     35  C   UNL     1       1.071   2.990  -0.573  0.00  0.00    +0.053 A 
BRANCH  34  36
ATOM     36  O   UNL     1      -0.203   4.990  -0.766  0.00  0.00    -0.491 OA
ATOM     37  C   UNL     1       1.043   5.689  -0.737  0.00  0.00    +0.277 C 
ENDBRANCH  34  36
BRANCH  33  38
ATOM     38  O   UNL     1      -2.530   3.519  -0.810  0.00  0.00    -0.488 OA
ATOM     39  C   UNL     1      -3.031   3.741  -2.130  0.00  0.00    +0.277 C 
ENDBRANCH  33  38
BRANCH  32  40
ATOM     40  O   UNL     1      -2.416   0.773  -0.649  0.00  0.00    -0.491 OA
ATOM     41  C   UNL     1      -2.282  -0.646  -0.556  0.00  0.00    +0.277 C 
ENDBRANCH  32  40
ENDBRANCH   5  30
TORSDOF 8
