REMARK  Name = ZINC03017649
REMARK  10 active torsions:
REMARK  status: ('A' for Active; 'I' for Inactive)
REMARK    1  A    between atoms: C_4  and  O_20
REMARK    2  A    between atoms: C_5  and  C_7
REMARK    3  A    between atoms: C_7  and  N_51
REMARK    4  A    between atoms: C_8  and  C_9
REMARK    5  A    between atoms: C_8  and  N_51
REMARK    6  A    between atoms: C_9  and  C_10
REMARK    7  A    between atoms: C_13  and  S_16
REMARK    8  A    between atoms: S_16  and  N_19
REMARK    9  A    between atoms: O_20  and  C_21
REMARK   10  A    between atoms: C_21  and  C_22
REMARK                            x       y       z     vdW  Elec       q    Type
REMARK                         _______ _______ _______ _____ _____    ______ ____
ROOT
ATOM      1  N   UNL     1      -1.474   3.754   4.269  0.00  0.00    +0.382 N 
ATOM      2  H   UNL     1      -1.871   4.684   4.450  0.00  0.00    -0.085 HD
ATOM      3  H   UNL     1      -0.874   3.795   3.437  0.00  0.00    -0.085 HD
ENDROOT
BRANCH   1   4
ATOM      4  C   UNL     1      -2.569   2.794   4.033  0.00  0.00    -0.043 C 
BRANCH   4   9
ATOM      5  C   UNL     1      -5.309   4.331   1.939  0.00  0.00    +0.000 A 
ATOM      6  C   UNL     1      -4.854   4.081   0.657  0.00  0.00    +0.004 A 
ATOM      7  C   UNL     1      -3.658   3.419   0.464  0.00  0.00    +0.046 A 
ATOM      8  C   UNL     1      -2.917   2.995   1.558  0.00  0.00    +0.122 A 
ATOM      9  C   UNL     1      -3.374   3.248   2.842  0.00  0.00    -0.023 A 
ATOM     10  C   UNL     1      -4.569   3.915   3.030  0.00  0.00    +0.005 A 
BRANCH   8  11
ATOM     11  O   UNL     1      -1.741   2.339   1.370  0.00  0.00    -0.487 OA
BRANCH  11  12
ATOM     12  C   UNL     1      -1.332   2.114   0.020  0.00  0.00    +0.264 C 
BRANCH  12  13
ATOM     13  C   UNL     1      -0.017   1.378   0.010  0.00  0.00    -0.010 A 
ATOM     14  C   UNL     1       1.171   2.086   0.002  0.00  0.00    +0.008 A 
ATOM     15  C   UNL     1       2.377   1.412  -0.013  0.00  0.00    +0.020 A 
ATOM     16  C   UNL     1       2.397   0.029  -0.021  0.00  0.00    +0.041 A 
ATOM     17  C   UNL     1       1.208  -0.679  -0.013  0.00  0.00    +0.020 A 
ATOM     18  C   UNL     1       0.002  -0.004   0.002  0.00  0.00    +0.008 A 
ATOM     19 CL   UNL     1       3.912  -0.818  -0.039  0.00  0.00    -0.084 Cl
ENDBRANCH  12  13
ENDBRANCH  11  12
ENDBRANCH   8  11
ENDBRANCH   4   9
ENDBRANCH   1   4
BRANCH   1  20
ATOM     20  C   UNL     1      -0.667   3.335   5.431  0.00  0.00    -0.077 C 
BRANCH  20  21
ATOM     21  C   UNL     1       0.458   4.348   5.651  0.00  0.00    +0.016 C 
BRANCH  21  22
ATOM     22  C   UNL     1       1.288   3.927   6.837  0.00  0.00    -0.049 A 
ATOM     23  C   UNL     1       0.959   4.372   8.103  0.00  0.00    +0.005 A 
ATOM     24  C   UNL     1       1.718   3.982   9.191  0.00  0.00    +0.029 A 
ATOM     25  C   UNL     1       2.810   3.155   9.012  0.00  0.00    +0.105 A 
ATOM     26  C   UNL     1       3.142   2.713   7.744  0.00  0.00    +0.029 A 
ATOM     27  C   UNL     1       2.381   3.099   6.657  0.00  0.00    +0.005 A 
BRANCH  25  28
ATOM     28  S   UNL     1       3.779   2.661  10.398  0.00  0.00    +0.056 S 
ATOM     29  O   UNL     1       2.939   2.767  11.539  0.00  0.00    -0.153 OA
ATOM     30  O   UNL     1       4.420   1.446  10.034  0.00  0.00    -0.153 OA
BRANCH  28  31
ATOM     31  N   UNL     1       4.976   3.790  10.585  0.00  0.00    -0.204 NA
ATOM     32  H   UNL     1       5.031   4.544   9.977  0.00  0.00    +0.144 HD
ATOM     33  H   UNL     1       5.622   3.697  11.303  0.00  0.00    +0.144 HD
ENDBRANCH  28  31
ENDBRANCH  25  28
ENDBRANCH  21  22
ENDBRANCH  20  21
ENDBRANCH   1  20
TORSDOF 10
