REMARK  Name = ZINC58989670
REMARK  10 active torsions:
REMARK  status: ('A' for Active; 'I' for Inactive)
REMARK    1  A    between atoms: C_4  and  O_30
REMARK    2  A    between atoms: C_5  and  C_7
REMARK    3  A    between atoms: C_10  and  S_13
REMARK    4  A    between atoms: N_11  and  N_12
REMARK    5  A    between atoms: S_13  and  C_14
REMARK    6  A    between atoms: C_14  and  C_15
REMARK    7  A    between atoms: C_15  and  C_16
REMARK    8  A    between atoms: C_16  and  C_17
REMARK    9  A    between atoms: N_19  and  N_20
REMARK   10  A    between atoms: C_21  and  C_22
REMARK                            x       y       z     vdW  Elec       q    Type
REMARK                         _______ _______ _______ _____ _____    ______ ____
ROOT
ATOM      1  S   UNL     1      -0.262  -5.765  -0.037  0.00  0.00    -0.084 S 
ENDROOT
BRANCH   1   5
ATOM      2  C   UNL     1       1.248  -2.161  -0.022  0.00  0.00    +0.185 A 
ATOM      3  N   UNL     1       2.318  -2.922  -0.031  0.00  0.00    -0.127 NA
ATOM      4  N   UNL     1       1.975  -4.160  -0.037  0.00  0.00    -0.121 NA
ATOM      5  C   UNL     1       0.665  -4.266  -0.032  0.00  0.00    +0.209 A 
ATOM      6  N   UNL     1       0.157  -2.999  -0.016  0.00  0.00    -0.224 N 
BRANCH   2  11
ATOM      7  C   UNL     1      -0.017   1.375   0.010  0.00  0.00    +0.001 A 
ATOM      8  C   UNL     1       1.169   2.089   0.002  0.00  0.00    +0.004 A 
ATOM      9  C   UNL     1       2.383   1.427  -0.013  0.00  0.00    +0.046 A 
ATOM     10  C   UNL     1       2.418   0.042  -0.021  0.00  0.00    +0.128 A 
ATOM     11  C   UNL     1       1.221  -0.683  -0.013  0.00  0.00    +0.062 A 
ATOM     12  C   UNL     1       0.002  -0.004   0.002  0.00  0.00    +0.015 A 
BRANCH  10  13
ATOM     13  O   UNL     1       3.610  -0.609  -0.036  0.00  0.00    -0.506 OA
ATOM     14  H   UNL     1       3.964  -0.802   0.843  0.00  0.00    +0.292 HD
ENDBRANCH  10  13
ENDBRANCH   2  11
BRANCH   6  15
ATOM     15  N   UNL     1      -1.161  -2.638  -0.001  0.00  0.00    -0.295 N 
ATOM     16  H   UNL     1      -1.519  -2.537  -0.939  0.00  0.00    +0.163 HD
ATOM     17  H   UNL     1      -1.711  -3.299   0.526  0.00  0.00    +0.163 HD
ENDBRANCH   6  15
ENDBRANCH   1   5
BRANCH   1  18
ATOM     18  C   UNL     1       1.004  -7.064  -0.050  0.00  0.00    +0.078 C 
BRANCH  18  19
ATOM     19  C   UNL     1       0.327  -8.436  -0.056  0.00  0.00    +0.020 C 
BRANCH  19  20
ATOM     20  C   UNL     1       1.394  -9.532  -0.067  0.00  0.00    +0.098 C 
BRANCH  20  21
ATOM     21  C   UNL     1       0.727 -10.883  -0.073  0.00  0.00    +0.232 C 
ATOM     22  O   UNL     1      -0.483 -10.962  -0.069  0.00  0.00    -0.274 OA
ATOM     23  N   UNL     1       1.476 -12.004  -0.083  0.00  0.00    -0.207 N 
ATOM     24  H   UNL     1       2.443 -11.941  -0.086  0.00  0.00    +0.177 HD
BRANCH  23  25
ATOM     25  N   UNL     1       0.855 -13.260  -0.088  0.00  0.00    -0.188 NA
ATOM     26  C   UNL     1       1.576 -14.339  -0.098  0.00  0.00    +0.139 C 
BRANCH  26  27
ATOM     27  C   UNL     1       0.923 -15.662  -0.103  0.00  0.00    +0.014 A 
ATOM     28  C   UNL     1       1.695 -16.826  -0.108  0.00  0.00    +0.011 A 
ATOM     29  C   UNL     1       1.079 -18.059  -0.113  0.00  0.00    +0.002 A 
ATOM     30  C   UNL     1      -0.302 -18.147  -0.114  0.00  0.00    +0.021 A 
ATOM     31  C   UNL     1      -1.075 -16.999  -0.110  0.00  0.00    +0.060 A 
ATOM     32  C   UNL     1      -0.471 -15.756  -0.098  0.00  0.00    +0.068 A 
ATOM     33 CL   UNL     1      -1.442 -14.317  -0.085  0.00  0.00    -0.081 Cl
ATOM     34 CL   UNL     1      -2.807 -17.121  -0.112  0.00  0.00    -0.082 Cl
ENDBRANCH  26  27
ENDBRANCH  23  25
ENDBRANCH  20  21
ENDBRANCH  19  20
ENDBRANCH  18  19
ENDBRANCH   1  18
TORSDOF 10
