REMARK  Name = ZINC19910736
REMARK  5 active torsions:
REMARK  status: ('A' for Active; 'I' for Inactive)
REMARK    1  A    between atoms: C_1  and  C_2
REMARK    2  A    between atoms: C_5  and  O_27
REMARK    3  A    between atoms: C_18  and  C_26
REMARK    4  A    between atoms: C_23  and  C_24
REMARK    5  A    between atoms: C_23  and  O_25
REMARK                            x       y       z     vdW  Elec       q    Type
REMARK                         _______ _______ _______ _____ _____    ______ ____
ROOT
ATOM      1  C   UNL     1      -1.437  -2.049  -2.494  0.00  0.00    +0.012 C 
ATOM      2  C   UNL     1      -0.697  -2.557  -1.255  0.00  0.00    -0.026 C 
ATOM      3  C   UNL     1       0.739  -2.027  -1.265  0.00  0.00    +0.010 C 
ATOM      4  C   UNL     1       0.718  -0.497  -1.257  0.00  0.00    +0.032 C 
ATOM      5  C   UNL     1       0.002  -0.004   0.002  0.00  0.00    +0.115 C 
ATOM      6  C   UNL     1      -1.433  -0.534   0.013  0.00  0.00    +0.035 C 
ATOM      7  C   UNL     1      -1.413  -2.063   0.004  0.00  0.00    -0.002 C 
ATOM      8  C   UNL     1      -0.671  -2.571   1.243  0.00  0.00    +0.004 C 
ATOM      9  C   UNL     1      -0.655  -4.100   1.235  0.00  0.00    +0.004 C 
ATOM     10  C   UNL     1       0.058  -4.597  -0.025  0.00  0.00    -0.004 C 
ATOM     11  C   UNL     1      -0.676  -4.087  -1.264  0.00  0.00    -0.001 C 
ATOM     12  C   UNL     1       0.077  -4.574  -2.507  0.00  0.00    +0.005 C 
ATOM     13  C   UNL     1      -0.003  -6.101  -2.536  0.00  0.00    +0.010 C 
ATOM     14  C   UNL     1       0.719  -6.691  -1.322  0.00  0.00    -0.000 C 
ATOM     15  C   UNL     1       0.156  -6.103  -0.016  0.00  0.00    +0.001 C 
ATOM     16  C   UNL     1      -1.219  -6.785   0.103  0.00  0.00    +0.007 C 
ATOM     17  C   UNL     1      -0.944  -8.235  -0.358  0.00  0.00    +0.035 C 
ATOM     18  C   UNL     1       0.319  -8.183  -1.240  0.00  0.00    +0.069 C 
ATOM     19  C   UNL     1       0.004  -8.712  -2.640  0.00  0.00    +0.042 C 
ATOM     20  C   UNL     1       2.237  -6.524  -1.415  0.00  0.00    +0.014 C 
ENDROOT
BRANCH  18  21
ATOM     21  O   UNL     1       1.363  -8.957  -0.647  0.00  0.00    -0.388 OA
ATOM     22  H   UNL     1       1.237 -10.041  -0.514  0.00  0.00    +0.210 HD
ENDBRANCH  18  21
BRANCH   5  23
ATOM     23  O   UNL     1      -0.017   1.425   0.010  0.00  0.00    -0.392 OA
ATOM     24  H   UNL     1      -0.493   1.964   0.842  0.00  0.00    +0.210 HD
ENDBRANCH   5  23
TORSDOF 2
