REMARK  Name = ZINC40344202
REMARK  9 active torsions:
REMARK  status: ('A' for Active; 'I' for Inactive)
REMARK    1  A    between atoms: C_1  and  C_2
REMARK    2  A    between atoms: C_2  and  C_3
REMARK    3  A    between atoms: C_2  and  C_4
REMARK    4  A    between atoms: C_7  and  C_10
REMARK    5  A    between atoms: C_13  and  C_31
REMARK    6  A    between atoms: N_20  and  C_21
REMARK    7  A    between atoms: C_21  and  C_22
REMARK    8  A    between atoms: C_34  and  O_37
REMARK    9  A    between atoms: O_37  and  C_38
REMARK                            x       y       z     vdW  Elec       q    Type
REMARK                         _______ _______ _______ _____ _____    ______ ____
ROOT
ATOM      1  C   UNL     1       2.797  -1.919   4.683  0.00  0.00    +0.142 C 
ATOM      2  C   UNL     1       2.414  -1.101   5.886  0.00  0.00    +0.035 A 
ATOM      3  C   UNL     1       2.384   0.157   6.496  0.00  0.00    +0.099 A 
ATOM      4  N   UNL     1       1.822   0.009   7.680  0.00  0.00    -0.173 NA
ATOM      5  N   UNL     1       1.494  -1.218   7.877  0.00  0.00    -0.272 N 
ATOM      6  H   UNL     1       1.066  -1.558   8.679  0.00  0.00    +0.189 HD
ATOM      7  C   UNL     1       1.837  -1.972   6.791  0.00  0.00    +0.126 A 
ATOM      8  C   UNL     1       1.837  -3.318   6.208  0.00  0.00    +0.266 C 
ATOM      9  O   UNL     1       1.397  -4.311   6.755  0.00  0.00    -0.268 OA
ATOM     10  N   UNL     1       2.394  -3.299   4.983  0.00  0.00    -0.281 N 
ENDROOT
BRANCH   1  14
ATOM     11  C   UNL     1       0.731  -0.503   1.223  0.00  0.00    -0.045 A 
ATOM     12  C   UNL     1       2.050  -0.148   1.434  0.00  0.00    +0.004 A 
ATOM     13  C   UNL     1       2.719  -0.606   2.554  0.00  0.00    +0.006 A 
ATOM     14  C   UNL     1       2.068  -1.419   3.463  0.00  0.00    -0.022 A 
ATOM     15  C   UNL     1       0.749  -1.773   3.252  0.00  0.00    +0.006 A 
ATOM     16  C   UNL     1       0.079  -1.312   2.135  0.00  0.00    +0.004 A 
BRANCH  11  18
ATOM     17  C   UNL     1      -0.019   1.526   0.010  0.00  0.00    +0.012 C 
ATOM     18  C   UNL     1       0.002  -0.004   0.002  0.00  0.00    +0.013 C 
ATOM     19  C   UNL     1       0.718  -0.497  -1.257  0.00  0.00    +0.012 C 
ENDBRANCH  11  18
ENDBRANCH   1  14
BRANCH   3  20
ATOM     20  C   UNL     1       2.893   1.426   5.918  0.00  0.00    +0.003 A 
ATOM     21  C   UNL     1       4.024   1.418   5.104  0.00  0.00    +0.013 A 
ATOM     22  C   UNL     1       4.494   2.599   4.568  0.00  0.00    +0.046 A 
ATOM     23  C   UNL     1       3.842   3.794   4.838  0.00  0.00    +0.120 A 
ATOM     24  C   UNL     1       2.715   3.805   5.648  0.00  0.00    +0.046 A 
ATOM     25  C   UNL     1       2.237   2.627   6.183  0.00  0.00    +0.013 A 
BRANCH  23  26
ATOM     26  O   UNL     1       4.307   4.955   4.308  0.00  0.00    -0.495 OA
ATOM     27  C   UNL     1       3.588   6.148   4.627  0.00  0.00    +0.277 C 
ENDBRANCH  23  26
ENDBRANCH   3  20
BRANCH  10  28
ATOM     28  C   UNL     1       2.568  -4.455   4.099  0.00  0.00    +0.144 C 
BRANCH  28  29
ATOM     29  C   UNL     1       3.904  -5.098   4.371  0.00  0.00    -0.026 A 
ATOM     30  C   UNL     1       5.024  -4.683   3.676  0.00  0.00    +0.009 A 
ATOM     31  C   UNL     1       6.251  -5.270   3.922  0.00  0.00    +0.050 A 
ATOM     32  C   UNL     1       6.361  -6.277   4.867  0.00  0.00    +0.166 A 
ATOM     33  C   UNL     1       5.232  -6.696   5.567  0.00  0.00    +0.167 A 
ATOM     34  C   UNL     1       4.006  -6.099   5.319  0.00  0.00    +0.054 A 
ATOM     35  O   UNL     1       5.597  -7.689   6.430  0.00  0.00    -0.453 OA
ATOM     36  C   UNL     1       6.877  -8.154   5.962  0.00  0.00    +0.466 C 
ATOM     37  O   UNL     1       7.433  -7.008   5.291  0.00  0.00    -0.453 OA
ENDBRANCH  28  29
ENDBRANCH  10  28
TORSDOF 6
