REMARK  Name = ZINC08435970
REMARK  3 active torsions:
REMARK  status: ('A' for Active; 'I' for Inactive)
REMARK    1  A    between atoms: C_4  and  C_7
REMARK    2  A    between atoms: C_7  and  C_9
REMARK    3  A    between atoms: C_16  and  C_27
REMARK                            x       y       z     vdW  Elec       q    Type
REMARK                         _______ _______ _______ _____ _____    ______ ____
ROOT
ATOM      1  C   UNL     1       2.215   6.629  -3.372  0.00  0.00    +0.024 A 
ATOM      2  C   UNL     1       2.473   7.840  -2.723  0.00  0.00    +0.013 A 
ATOM      3  C   UNL     1       2.622   7.871  -1.353  0.00  0.00    +0.026 A 
ATOM      4  C   UNL     1       2.515   6.702  -0.617  0.00  0.00    +0.052 A 
ATOM      5  C   UNL     1       2.267   5.477  -1.262  0.00  0.00    +0.050 A 
ATOM      6  C   UNL     1       2.114   5.445  -2.632  0.00  0.00    +0.036 A 
ATOM      7  N   UNL     1       2.186   4.309  -0.497  0.00  0.00    -0.332 N 
ATOM      8  C   UNL     1       3.385   3.812   0.185  0.00  0.00    +0.152 C 
ATOM      9  C   UNL     1       3.529   4.498   1.544  0.00  0.00    +0.127 C 
ATOM     10  C   UNL     1       4.702   3.913   2.282  0.00  0.00    +0.144 C 
ATOM     11  O   UNL     1       4.996   2.750   2.143  0.00  0.00    -0.297 OA
ATOM     12  C   UNL     1       5.508   4.804   3.201  0.00  0.00    +0.079 C 
ATOM     13  C   UNL     1       5.943   6.028   2.384  0.00  0.00    +0.036 C 
ATOM     14  C   UNL     1       4.741   6.649   1.738  0.00  0.00    -0.007 C 
ATOM     15  C   UNL     1       3.676   5.978   1.363  0.00  0.00    +0.017 C 
ATOM     16  N   UNL     1       2.632   6.698   0.771  0.00  0.00    -0.316 N 
ATOM     17  H   UNL     1       1.344   3.833  -0.418  0.00  0.00    +0.147 HD
ATOM     18  H   UNL     1       1.999   7.188   1.319  0.00  0.00    +0.152 HD
ENDROOT
BRANCH   8  19
ATOM     19  C   UNL     1       3.266   2.323   0.386  0.00  0.00    +0.126 A 
ATOM     20  C   UNL     1       4.260   1.428   0.243  0.00  0.00    +0.046 A 
ATOM     21  C   UNL     1       3.709   0.156   0.525  0.00  0.00    +0.041 A 
ATOM     22  C   UNL     1       2.412   0.350   0.823  0.00  0.00    +0.195 A 
ATOM     23  O   UNL     1       2.149   1.665   0.737  0.00  0.00    -0.466 OA
ENDBRANCH   8  19
BRANCH   1  24
ATOM     24  C   UNL     1       2.050   6.598  -4.836  0.00  0.00    +0.193 C 
ATOM     25  O   UNL     1       1.532   7.538  -5.409  0.00  0.00    -0.287 OA
BRANCH  24  29
ATOM     26  C   UNL     1       3.380   3.229  -7.054  0.00  0.00    +0.000 A 
ATOM     27  C   UNL     1       2.652   4.224  -7.683  0.00  0.00    +0.001 A 
ATOM     28  C   UNL     1       2.217   5.321  -6.969  0.00  0.00    +0.012 A 
ATOM     29  C   UNL     1       2.513   5.426  -5.608  0.00  0.00    +0.022 A 
ATOM     30  C   UNL     1       3.252   4.421  -4.981  0.00  0.00    +0.012 A 
ATOM     31  C   UNL     1       3.676   3.326  -5.705  0.00  0.00    +0.001 A 
ENDBRANCH  24  29
ENDBRANCH   1  24
TORSDOF 3
