REMARK  Name = ZINC34811858
REMARK  5 active torsions:
REMARK  status: ('A' for Active; 'I' for Inactive)
REMARK    1  A    between atoms: C_1  and  C_2
REMARK    2  A    between atoms: C_2  and  C_3
REMARK    3  A    between atoms: C_3  and  C_4
REMARK    4  A    between atoms: C_4  and  C_5
REMARK    5  A    between atoms: C_8  and  C_11
REMARK                            x       y       z     vdW  Elec       q    Type
REMARK                         _______ _______ _______ _____ _____    ______ ____
ROOT
ATOM      1  C   UNL     1       3.432  -3.884  -6.000  0.00  0.00    +0.247 C 
ATOM      2  O   UNL     1       2.885  -3.391  -5.033  0.00  0.00    -0.270 OA
ATOM      3  N   UNL     1       4.744  -4.191  -5.948  0.00  0.00    -0.297 N 
ATOM      4  C   UNL     1       5.494  -4.062  -4.691  0.00  0.00    +0.112 C 
ATOM      5  C   UNL     1       6.728  -3.189  -4.940  0.00  0.00    +0.064 C 
ATOM      6  C   UNL     1       7.539  -3.780  -6.096  0.00  0.00    +0.102 C 
ATOM      7  C   UNL     1       6.686  -3.782  -7.368  0.00  0.00    +0.064 C 
ATOM      8  C   UNL     1       5.449  -4.666  -7.146  0.00  0.00    +0.112 C 
ATOM      9  N   UNL     1       7.914  -5.161  -5.765  0.00  0.00    -0.323 N 
ATOM     10  C   UNL     1       8.934  -5.366  -4.843  0.00  0.00    +0.042 A 
ATOM     11  C   UNL     1       8.971  -6.482  -4.026  0.00  0.00    +0.043 A 
ATOM     12  C   UNL     1      10.006  -6.634  -3.122  0.00  0.00    +0.043 A 
ATOM     13  C   UNL     1      11.007  -5.677  -3.028  0.00  0.00    +0.021 A 
ATOM     14  C   UNL     1      10.986  -4.561  -3.838  0.00  0.00    +0.016 A 
ATOM     15  C   UNL     1       9.950  -4.397  -4.755  0.00  0.00    +0.058 A 
ATOM     16  C   UNL     1       9.884  -3.229  -5.651  0.00  0.00    +0.247 C 
ATOM     17  O   UNL     1      10.853  -2.507  -5.792  0.00  0.00    -0.270 OA
ATOM     18  N   UNL     1       8.738  -2.970  -6.314  0.00  0.00    -0.290 N 
ATOM     19 CL   UNL     1      10.054  -8.032  -2.094  0.00  0.00    -0.083 Cl
ATOM     20  H   UNL     1       7.460  -5.912  -6.178  0.00  0.00    +0.148 HD
ATOM     21  H   UNL     1       8.708  -2.235  -6.945  0.00  0.00    +0.151 HD
ENDROOT
BRANCH   1  25
ATOM     22  C   UNL     1       1.214  -4.636  -9.543  0.00  0.00    -0.047 A 
ATOM     23  C   UNL     1       1.014  -3.461  -8.842  0.00  0.00    +0.004 A 
ATOM     24  C   UNL     1       1.731  -3.210  -7.690  0.00  0.00    +0.013 A 
ATOM     25  C   UNL     1       2.660  -4.146  -7.233  0.00  0.00    +0.037 A 
ATOM     26  C   UNL     1       2.858  -5.330  -7.945  0.00  0.00    +0.013 A 
ATOM     27  C   UNL     1       2.130  -5.570  -9.092  0.00  0.00    +0.004 A 
BRANCH  22  28
ATOM     28  C   UNL     1       0.428  -4.903 -10.801  0.00  0.00    +0.035 C 
BRANCH  28  29
ATOM     29  C   UNL     1      -0.872  -5.629 -10.445  0.00  0.00    +0.004 C 
BRANCH  29  31
ATOM     30  C   UNL     1      -2.970  -6.625 -11.366  0.00  0.00    +0.004 C 
ATOM     31  C   UNL     1      -1.670  -5.899 -11.721  0.00  0.00    -0.003 C 
ENDBRANCH  29  31
ENDBRANCH  28  29
ENDBRANCH  22  28
ENDBRANCH   1  25
TORSDOF 4
