REMARK  Name = ZINC32883983
REMARK  13 active torsions:
REMARK  status: ('A' for Active; 'I' for Inactive)
REMARK    1  A    between atoms: C_1  and  C_2
REMARK    2  A    between atoms: C_2  and  O_3
REMARK    3  A    between atoms: O_3  and  C_4
REMARK    4  A    between atoms: C_4  and  C_6
REMARK    5  A    between atoms: C_10  and  N_11
REMARK    6  A    between atoms: C_12  and  C_14
REMARK    7  A    between atoms: C_14  and  S_15
REMARK    8  A    between atoms: S_15  and  C_16
REMARK    9  A    between atoms: C_19  and  C_22
REMARK   10  A    between atoms: C_22  and  C_23
REMARK   11  A    between atoms: C_22  and  C_24
REMARK   12  A    between atoms: C_22  and  C_25
REMARK   13  A    between atoms: C_27  and  C_31
REMARK                            x       y       z     vdW  Elec       q    Type
REMARK                         _______ _______ _______ _____ _____    ______ ____
ROOT
ATOM      1  N   UNL     1      -1.491  -0.852  -2.475  0.00  0.00    -0.279 N 
ATOM      2  C   UNL     1      -2.243  -1.282  -3.508  0.00  0.00    +0.228 C 
ATOM      3  O   UNL     1      -3.268  -1.896  -3.298  0.00  0.00    -0.275 OA
ATOM      4  H   UNL     1      -0.561  -0.296  -2.666  0.00  0.00    +0.155 HD
ENDROOT
BRANCH   1   9
ATOM      5  C   UNL     1      -1.256  -0.753   0.010  0.00  0.00    +0.091 A 
ATOM      6  C   UNL     1      -1.892  -1.146   1.257  0.00  0.00    -0.021 A 
ATOM      7  C   UNL     1      -3.047  -1.832   1.122  0.00  0.00    -0.004 A 
ATOM      8  S   UNL     1      -3.296  -1.961  -0.626  0.00  0.00    -0.077 S 
ATOM      9  C   UNL     1      -1.889  -1.111  -1.173  0.00  0.00    +0.086 A 
ATOM     10  C   UNL     1      -3.916  -2.363   2.220  0.00  0.00    +0.046 C 
ATOM     11  C   UNL     1      -3.111  -2.340   3.528  0.00  0.00    -0.009 C 
ATOM     12  C   UNL     1      -2.442  -0.970   3.671  0.00  0.00    +0.008 C 
ATOM     13  C   UNL     1      -1.327  -0.824   2.634  0.00  0.00    +0.037 C 
ATOM     14  C   UNL     1      -4.048  -2.583   4.712  0.00  0.00    +0.008 C 
BRANCH   5  15
ATOM     15  C   UNL     1       0.002  -0.004   0.002  0.00  0.00    +0.342 C 
ATOM     16  O   UNL     1       1.064  -0.598  -0.011  0.00  0.00    -0.245 OA
BRANCH  15  17
ATOM     17  O   UNL     1      -0.016   1.345   0.009  0.00  0.00    -0.461 OA
BRANCH  17  19
ATOM     18  C   UNL     1       1.047   3.535   0.011  0.00  0.00    +0.048 C 
ATOM     19  C   UNL     1       1.268   2.021   0.001  0.00  0.00    +0.229 C 
ENDBRANCH  17  19
ENDBRANCH  15  17
ENDBRANCH   5  15
ENDBRANCH   1   9
BRANCH   2  20
ATOM     20  C   UNL     1      -1.810  -1.001  -4.924  0.00  0.00    +0.173 C 
BRANCH  20  21
ATOM     21  S   UNL     1      -3.019  -1.701  -6.075  0.00  0.00    -0.077 S 
BRANCH  21  22
ATOM     22  C   UNL     1      -2.285  -1.239  -7.608  0.00  0.00    +0.185 A 
ATOM     23  N   UNL     1      -2.769  -1.513  -8.855  0.00  0.00    -0.205 NA
ATOM     24  H   UNL     1      -0.471  -0.162  -7.020  0.00  0.00    +0.191 HD
ATOM     25  C   UNL     1      -1.874  -0.959  -9.729  0.00  0.00    +0.157 A 
ATOM     26  N   UNL     1      -0.934  -0.401  -9.021  0.00  0.00    -0.156 NA
ATOM     27  N   UNL     1      -1.169  -0.566  -7.768  0.00  0.00    -0.254 N 
BRANCH  25  28
ATOM     28  C   UNL     1      -1.960  -0.989 -11.234  0.00  0.00    +0.024 C 
ATOM     29  C   UNL     1      -3.021   0.009 -11.704  0.00  0.00    +0.019 C 
ATOM     30  C   UNL     1      -0.604  -0.610 -11.830  0.00  0.00    +0.019 C 
ATOM     31  C   UNL     1      -2.345  -2.397 -11.694  0.00  0.00    +0.019 C 
ENDBRANCH  25  28
ENDBRANCH  21  22
ENDBRANCH  20  21
ENDBRANCH   2  20
TORSDOF 8
