REMARK  Name = ZINC18939351
REMARK  7 active torsions:
REMARK  status: ('A' for Active; 'I' for Inactive)
REMARK    1  A    between atoms: C_1  and  N_47
REMARK    2  A    between atoms: C_2  and  C_3
REMARK    3  A    between atoms: C_2  and  N_47
REMARK    4  A    between atoms: C_6  and  C_8
REMARK    5  A    between atoms: C_15  and  C_16
REMARK    6  A    between atoms: C_15  and  N_47
REMARK    7  A    between atoms: N_18  and  C_19
REMARK                            x       y       z     vdW  Elec       q    Type
REMARK                         _______ _______ _______ _____ _____    ______ ____
ROOT
ATOM      1  C   UNL     1      -2.820  -3.018   0.931  0.00  0.00    -0.095 C 
ATOM      2  N   UNL     1      -3.402  -2.511  -0.329  0.00  0.00    +0.388 N 
ATOM      3  H   UNL     1      -2.721  -2.642  -1.087  0.00  0.00    -0.081 HD
ENDROOT
BRANCH   2   4
ATOM      4  C   UNL     1      -4.633  -3.261  -0.655  0.00  0.00    -0.003 C 
BRANCH   4   5
ATOM      5  C   UNL     1      -4.262  -4.681  -0.995  0.00  0.00    +0.089 A 
ATOM      6  C   UNL     1      -4.192  -5.706  -0.122  0.00  0.00    +0.043 A 
ATOM      7  C   UNL     1      -3.813  -6.848  -0.856  0.00  0.00    +0.050 A 
ATOM      8  C   UNL     1      -3.671  -6.453  -2.149  0.00  0.00    +0.135 A 
ATOM      9  O   UNL     1      -3.951  -5.138  -2.220  0.00  0.00    -0.462 OA
BRANCH   8  10
ATOM     10  C   UNL     1      -3.281  -7.319  -3.282  0.00  0.00    +0.017 A 
ATOM     11  C   UNL     1      -3.017  -8.673  -3.071  0.00  0.00    +0.012 A 
ATOM     12  C   UNL     1      -2.659  -9.477  -4.133  0.00  0.00    +0.016 A 
ATOM     13  C   UNL     1      -2.552  -8.941  -5.405  0.00  0.00    +0.018 A 
ATOM     14  C   UNL     1      -2.808  -7.597  -5.620  0.00  0.00    +0.016 A 
ATOM     15  C   UNL     1      -3.171  -6.784  -4.567  0.00  0.00    +0.012 A 
ATOM     16 BR   UNL     1      -2.053 -10.048  -6.855  0.00  0.00    -0.050 Br
ENDBRANCH   8  10
ENDBRANCH   4   5
ENDBRANCH   2   4
BRANCH   2  17
ATOM     17  C   UNL     1      -3.707  -1.071  -0.202  0.00  0.00    +0.019 C 
BRANCH  17  18
ATOM     18  C   UNL     1      -2.412  -0.308  -0.090  0.00  0.00    +0.201 C 
ATOM     19  O   UNL     1      -1.355  -0.903  -0.098  0.00  0.00    -0.278 OA
ATOM     20  N   UNL     1      -2.428   1.035   0.019  0.00  0.00    -0.287 N 
ATOM     21  H   UNL     1      -3.273   1.505   0.103  0.00  0.00    +0.155 HD
BRANCH  20  22
ATOM     22  C   UNL     1      -1.225   1.753   0.012  0.00  0.00    +0.037 A 
ATOM     23  C   UNL     1      -1.106   2.917   0.760  0.00  0.00    +0.027 A 
ATOM     24  C   UNL     1       0.082   3.623   0.758  0.00  0.00    +0.051 A 
ATOM     25  C   UNL     1       1.155   3.176   0.005  0.00  0.00    +0.166 A 
ATOM     26  C   UNL     1       1.037   2.012  -0.751  0.00  0.00    +0.168 A 
ATOM     27  C   UNL     1      -0.154   1.305  -0.749  0.00  0.00    +0.072 A 
ATOM     28  O   UNL     1       2.220   1.788  -1.395  0.00  0.00    -0.453 OA
ATOM     29  C   UNL     1       3.192   2.597  -0.706  0.00  0.00    +0.466 C 
ATOM     30  O   UNL     1       2.413   3.680  -0.165  0.00  0.00    -0.453 OA
ENDBRANCH  20  22
ENDBRANCH  17  18
ENDBRANCH   2  17
TORSDOF 6
