REMARK  Name = ZINC39534378
REMARK  12 active torsions:
REMARK  status: ('A' for Active; 'I' for Inactive)
REMARK    1  A    between atoms: C_1  and  C_2
REMARK    2  A    between atoms: C_2  and  O_3
REMARK    3  A    between atoms: O_3  and  C_4
REMARK    4  A    between atoms: N_7  and  C_11
REMARK    5  A    between atoms: C_11  and  C_13
REMARK    6  A    between atoms: C_11  and  C_22
REMARK    7  A    between atoms: C_13  and  N_14
REMARK    8  A    between atoms: N_14  and  C_15
REMARK    9  A    between atoms: C_15  and  C_16
REMARK   10  A    between atoms: C_25  and  S_28
REMARK   11  A    between atoms: S_28  and  O_31
REMARK   12  A    between atoms: O_31  and  C_32
REMARK                            x       y       z     vdW  Elec       q    Type
REMARK                         _______ _______ _______ _____ _____    ______ ____
ROOT
ATOM      1  C   UNL     1       1.813  -4.100  -4.118  0.00  0.00    -0.023 C 
ENDROOT
BRANCH   1   4
ATOM      2  C   UNL     1      -0.241  -2.016  -1.768  0.00  0.00    +0.169 C 
ATOM      3  C   UNL     1       0.644  -2.348  -2.971  0.00  0.00    -0.030 C 
ATOM      4  N   UNL     1       0.979  -3.778  -2.953  0.00  0.00    +0.388 N 
ATOM      5  C   UNL     1       1.714  -4.095  -1.722  0.00  0.00    -0.062 C 
ATOM      6  C   UNL     1       0.839  -3.777  -0.508  0.00  0.00    +0.065 C 
ATOM      7  N   UNL     1       0.474  -2.353  -0.529  0.00  0.00    -0.295 NA
ATOM      8  H   UNL     1       1.289  -1.770  -0.411  0.00  0.00    +0.124 HD
ATOM      9  H   UNL     1       0.130  -4.322  -2.987  0.00  0.00    -0.081 HD
BRANCH   2  10
ATOM     10  O   UNL     1      -0.551  -0.621  -1.774  0.00  0.00    -0.364 OA
BRANCH  10  12
ATOM     11  C   UNL     1      -1.801   1.264  -0.921  0.00  0.00    +0.034 C 
ATOM     12  C   UNL     1      -1.551  -0.243  -0.826  0.00  0.00    +0.158 C 
ENDBRANCH  10  12
ENDBRANCH   2  10
ENDBRANCH   1   4
BRANCH   1  13
ATOM     13  C   UNL     1       1.123  -3.635  -5.375  0.00  0.00    -0.060 A 
ATOM     14  C   UNL     1      -0.245  -3.788  -5.508  0.00  0.00    +0.004 A 
ATOM     15  C   UNL     1      -0.879  -3.362  -6.660  0.00  0.00    +0.031 A 
ATOM     16  C   UNL     1      -0.145  -2.783  -7.679  0.00  0.00    +0.128 A 
ATOM     17  C   UNL     1       1.222  -2.630  -7.545  0.00  0.00    +0.031 A 
ATOM     18  C   UNL     1       1.855  -3.052  -6.391  0.00  0.00    +0.004 A 
BRANCH  16  19
ATOM     19  S   UNL     1      -0.952  -2.241  -9.149  0.00  0.00    +0.151 S 
ATOM     20  O   UNL     1       0.032  -2.232 -10.173  0.00  0.00    -0.131 OA
ATOM     21  O   UNL     1      -2.154  -2.994  -9.253  0.00  0.00    -0.131 OA
BRANCH  19  22
ATOM     22  O   UNL     1      -1.364  -0.793  -8.928  0.00  0.00    -0.342 OA
BRANCH  22  23
ATOM     23  C   UNL     1      -0.334   0.091  -8.996  0.00  0.00    +0.157 A 
ATOM     24  C   UNL     1       0.383   0.412  -7.852  0.00  0.00    +0.048 A 
ATOM     25  C   UNL     1       1.430   1.310  -7.924  0.00  0.00    +0.004 A 
ATOM     26  C   UNL     1       1.763   1.890  -9.135  0.00  0.00    +0.000 A 
ATOM     27  C   UNL     1       1.050   1.572 -10.276  0.00  0.00    +0.004 A 
ATOM     28  C   UNL     1       0.006   0.669 -10.210  0.00  0.00    +0.048 A 
ENDBRANCH  22  23
ENDBRANCH  19  22
ENDBRANCH  16  19
ENDBRANCH   1  13
BRANCH   1  29
ATOM     29  C   UNL     1       2.033  -5.612  -4.186  0.00  0.00    +0.070 C 
BRANCH  29  30
ATOM     30  N   UNL     1       2.853  -6.040  -3.045  0.00  0.00    -0.313 NA
ATOM     31  H   UNL     1       3.726  -5.535  -3.018  0.00  0.00    +0.122 HD
BRANCH  30  32
ATOM     32  C   UNL     1       3.084  -7.490  -3.077  0.00  0.00    +0.116 C 
BRANCH  32  33
ATOM     33  C   UNL     1       3.927  -7.891  -1.894  0.00  0.00    -0.034 A 
ATOM     34  C   UNL     1       5.306  -7.896  -1.997  0.00  0.00    +0.005 A 
ATOM     35  C   UNL     1       6.079  -8.264  -0.912  0.00  0.00    +0.000 A 
ATOM     36  C   UNL     1       5.473  -8.625   0.277  0.00  0.00    +0.000 A 
ATOM     37  C   UNL     1       4.095  -8.619   0.381  0.00  0.00    +0.000 A 
ATOM     38  C   UNL     1       3.322  -8.247  -0.703  0.00  0.00    +0.005 A 
ENDBRANCH  32  33
ENDBRANCH  30  32
ENDBRANCH  29  30
ENDBRANCH   1  29
TORSDOF 11
