REMARK  Name = ZINC42806930
REMARK  8 active torsions:
REMARK  status: ('A' for Active; 'I' for Inactive)
REMARK    1  A    between atoms: C_1  and  C_2
REMARK    2  A    between atoms: C_2  and  C_4
REMARK    3  A    between atoms: C_2  and  N_12
REMARK    4  A    between atoms: N_15  and  N_16
REMARK    5  A    between atoms: C_17  and  C_19
REMARK    6  A    between atoms: C_19  and  C_21
REMARK    7  A    between atoms: C_19  and  O_22
REMARK    8  A    between atoms: O_22  and  C_23
REMARK                            x       y       z     vdW  Elec       q    Type
REMARK                         _______ _______ _______ _____ _____    ______ ____
ROOT
ATOM      1  N   UNL     1       0.195  -1.130  -1.379  0.00  0.00    -0.292 N 
ATOM      2  C   UNL     1      -0.355  -1.087  -2.610  0.00  0.00    +0.316 C 
ATOM      3  O   UNL     1      -1.529  -0.801  -2.741  0.00  0.00    -0.251 OA
ATOM      4  N   UNL     1       0.398  -1.360  -3.694  0.00  0.00    -0.218 N 
ATOM      5  H   UNL     1       1.132  -1.358  -1.275  0.00  0.00    +0.151 HD
ATOM      6  H   UNL     1       0.002  -1.329  -4.579  0.00  0.00    +0.174 HD
ENDROOT
BRANCH   4   7
ATOM      7  N   UNL     1       1.751  -1.690  -3.542  0.00  0.00    -0.230 N 
ATOM      8  C   UNL     1       2.504  -1.963  -4.626  0.00  0.00    +0.270 C 
ATOM      9  O   UNL     1       2.009  -1.924  -5.733  0.00  0.00    -0.270 OA
ATOM     10  H   UNL     1       2.147  -1.720  -2.657  0.00  0.00    +0.173 HD
BRANCH   8  11
ATOM     11  C   UNL     1       3.959  -2.317  -4.463  0.00  0.00    +0.257 C 
ATOM     12  C   UNL     1       4.717  -1.112  -3.901  0.00  0.00    +0.062 C 
BRANCH  11  13
ATOM     13  O   UNL     1       4.508  -2.675  -5.733  0.00  0.00    -0.477 OA
BRANCH  13  14
ATOM     14  C   UNL     1       5.593  -3.494  -5.729  0.00  0.00    +0.157 A 
ATOM     15  C   UNL     1       6.187  -3.852  -4.528  0.00  0.00    +0.048 A 
ATOM     16  C   UNL     1       7.290  -4.685  -4.526  0.00  0.00    +0.004 A 
ATOM     17  C   UNL     1       7.801  -5.162  -5.718  0.00  0.00    +0.003 A 
ATOM     18  C   UNL     1       7.212  -4.807  -6.917  0.00  0.00    +0.042 A 
ATOM     19  C   UNL     1       6.104  -3.979  -6.926  0.00  0.00    +0.165 A 
ATOM     20  F   UNL     1       5.524  -3.637  -8.097  0.00  0.00    -0.202 F 
ENDBRANCH  13  14
ENDBRANCH  11  13
ENDBRANCH   8  11
ENDBRANCH   4   7
BRANCH   1  22
ATOM     21  C   UNL     1      -0.658   0.680   0.028  0.00  0.00    +0.033 C 
ATOM     22  C   UNL     1      -0.624  -0.833  -0.201  0.00  0.00    +0.104 C 
BRANCH  22  23
ATOM     23  C   UNL     1      -0.029  -1.510   1.007  0.00  0.00    +0.008 A 
ATOM     24  C   UNL     1       1.320  -1.811   1.036  0.00  0.00    +0.011 A 
ATOM     25  C   UNL     1       1.866  -2.431   2.143  0.00  0.00    +0.039 A 
ATOM     26  C   UNL     1       1.063  -2.753   3.225  0.00  0.00    +0.126 A 
ATOM     27  C   UNL     1      -0.288  -2.452   3.196  0.00  0.00    +0.077 A 
ATOM     28  C   UNL     1      -0.833  -1.826   2.089  0.00  0.00    +0.131 A 
ATOM     29  F   UNL     1      -2.150  -1.526   2.062  0.00  0.00    -0.205 F 
ATOM     30  F   UNL     1       1.597  -3.361   4.307  0.00  0.00    -0.205 F 
ENDBRANCH  22  23
ENDBRANCH   1  22
TORSDOF 6
