REMARK  Name = ZINC35378661
REMARK  11 active torsions:
REMARK  status: ('A' for Active; 'I' for Inactive)
REMARK    1  A    between atoms: C_1  and  C_2
REMARK    2  A    between atoms: C_5  and  O_8
REMARK    3  A    between atoms: O_8  and  C_9
REMARK    4  A    between atoms: C_9  and  C_11
REMARK    5  A    between atoms: C_9  and  C_12
REMARK    6  A    between atoms: N_14  and  C_15
REMARK    7  A    between atoms: C_17  and  C_34
REMARK    8  A    between atoms: C_20  and  O_21
REMARK    9  A    between atoms: O_21  and  C_22
REMARK   10  A    between atoms: C_22  and  C_23
REMARK   11  A    between atoms: C_31  and  C_33
REMARK                            x       y       z     vdW  Elec       q    Type
REMARK                         _______ _______ _______ _____ _____    ______ ____
ROOT
ATOM      1  C   UNL     1       2.004  -7.960   1.772  0.00  0.00    +0.076 A 
ATOM      2  C   UNL     1       2.448  -8.246   0.489  0.00  0.00    +0.030 A 
ATOM      3  C   UNL     1       3.251  -9.349   0.266  0.00  0.00    -0.048 A 
ATOM      4  C   UNL     1       3.612 -10.169   1.319  0.00  0.00    +0.007 A 
ATOM      5  C   UNL     1       3.173  -9.891   2.600  0.00  0.00    +0.048 A 
ATOM      6  C   UNL     1       2.373  -8.784   2.832  0.00  0.00    +0.142 A 
ATOM      7  C   UNL     1       3.733  -9.659  -1.128  0.00  0.00    +0.044 C 
ENDROOT
BRANCH   1  10
ATOM      8  C   UNL     1       0.438  -6.341   1.001  0.00  0.00    +0.258 C 
ATOM      9  O   UNL     1       0.384  -6.917  -0.065  0.00  0.00    -0.271 OA
ATOM     10  N   UNL     1       1.190  -6.843   2.000  0.00  0.00    -0.280 N 
ATOM     11  H   UNL     1       1.169  -6.430   2.877  0.00  0.00    +0.155 HD
BRANCH   8  12
ATOM     12  C   UNL     1      -0.336  -5.064   1.208  0.00  0.00    +0.256 C 
ATOM     13  C   UNL     1      -1.327  -5.250   2.359  0.00  0.00    +0.062 C 
BRANCH  12  14
ATOM     14  O   UNL     1      -1.050  -4.741   0.013  0.00  0.00    -0.480 OA
BRANCH  14  19
ATOM     15  C   UNL     1      -1.625   0.724  -1.222  0.00  0.00    +0.044 C 
ATOM     16  C   UNL     1      -1.472  -0.738  -0.891  0.00  0.00    -0.050 A 
ATOM     17  C   UNL     1      -0.895  -1.118   0.307  0.00  0.00    +0.007 A 
ATOM     18  C   UNL     1      -0.753  -2.458   0.612  0.00  0.00    +0.046 A 
ATOM     19  C   UNL     1      -1.189  -3.422  -0.285  0.00  0.00    +0.122 A 
ATOM     20  C   UNL     1      -1.768  -3.038  -1.486  0.00  0.00    +0.046 A 
ATOM     21  C   UNL     1      -1.913  -1.697  -1.784  0.00  0.00    +0.007 A 
ENDBRANCH  14  19
ENDBRANCH  12  14
ENDBRANCH   8  12
ENDBRANCH   1  10
BRANCH   6  22
ATOM     22  O   UNL     1       1.945  -8.505   4.093  0.00  0.00    -0.484 OA
BRANCH  22  23
ATOM     23  C   UNL     1       2.363  -9.393   5.131  0.00  0.00    +0.284 C 
BRANCH  23  24
ATOM     24  C   UNL     1       1.797  -8.929   6.448  0.00  0.00    +0.086 A 
ATOM     25  C   UNL     1       0.884  -9.714   7.121  0.00  0.00    +0.100 A 
ATOM     26  C   UNL     1       0.373  -9.258   8.345  0.00  0.00    +0.287 A 
ATOM     27  O   UNL     1      -0.436  -9.928   8.969  0.00  0.00    -0.265 OA
ATOM     28  N   UNL     1       0.790  -8.068   8.820  0.00  0.00    -0.119 N 
ATOM     29  C   UNL     1       1.692  -7.330   8.117  0.00  0.00    +0.177 A 
ATOM     30  N   UNL     1       2.179  -7.768   6.961  0.00  0.00    -0.228 NA
ATOM     31  C   UNL     1       1.928  -6.153   8.861  0.00  0.00    +0.093 A 
ATOM     32  C   UNL     1       1.179  -6.200   9.978  0.00  0.00    +0.134 A 
ATOM     33  O   UNL     1       0.476  -7.340   9.992  0.00  0.00    -0.373 OA
ATOM     34  C   UNL     1       1.138  -5.137  11.045  0.00  0.00    +0.089 C 
ENDBRANCH  23  24
ENDBRANCH  22  23
ENDBRANCH   6  22
TORSDOF 7
