REMARK  Name = ZINC17756745
REMARK  6 active torsions:
REMARK  status: ('A' for Active; 'I' for Inactive)
REMARK    1  A    between atoms: C_1  and  C_2
REMARK    2  A    between atoms: C_6  and  N_8
REMARK    3  A    between atoms: C_9  and  C_11
REMARK    4  A    between atoms: C_11  and  O_12
REMARK    5  A    between atoms: O_12  and  C_13
REMARK    6  A    between atoms: C_13  and  C_15
REMARK                            x       y       z     vdW  Elec       q    Type
REMARK                         _______ _______ _______ _____ _____    ______ ____
ROOT
ATOM      1  O   UNL     1       1.143   1.900   0.001  0.00  0.00    -0.452 OA
ENDROOT
BRANCH   1   2
ATOM      2  C   UNL     1      -0.014   1.211   0.009  0.00  0.00    +0.340 C 
ATOM      3  O   UNL     1       0.002  -0.004   0.002  0.00  0.00    -0.245 OA
BRANCH   2   4
ATOM      4  C   UNL     1      -1.301   1.931   0.019  0.00  0.00    +0.064 A 
ATOM      5  C   UNL     1      -2.504   1.216   0.015  0.00  0.00    +0.064 A 
ATOM      6  C   UNL     1      -3.704   1.899   0.028  0.00  0.00    +0.164 A 
ATOM      7  C   UNL     1      -3.717   3.289   0.036  0.00  0.00    +0.180 A 
ATOM      8  C   UNL     1      -2.526   4.002   0.035  0.00  0.00    +0.087 A 
ATOM      9  C   UNL     1      -1.322   3.328   0.026  0.00  0.00    +0.039 A 
ATOM     10 CL   UNL     1      -2.551   5.737   0.046  0.00  0.00    -0.080 Cl
ATOM     11  O   UNL     1      -4.910   3.950   0.044  0.00  0.00    -0.487 OA
ATOM     12  C   UNL     1      -5.683   3.830   1.240  0.00  0.00    +0.232 C 
ATOM     13  C   UNL     1      -6.517   2.559   1.219  0.00  0.00    +0.082 C 
ATOM     14  C   UNL     1      -5.659   1.304   1.226  0.00  0.00    +0.232 C 
ATOM     15  O   UNL     1      -4.884   1.213   0.029  0.00  0.00    -0.488 OA
ENDBRANCH   2   4
ENDBRANCH   1   2
BRANCH   1  16
ATOM     16  C   UNL     1       2.372   1.126  -0.015  0.00  0.00    +0.328 C 
BRANCH  16  18
ATOM     17  N   UNL     1       4.806   1.562  -0.035  0.00  0.00    -0.266 N 
ATOM     18  C   UNL     1       3.554   2.060  -0.021  0.00  0.00    +0.256 C 
ATOM     19  O   UNL     1       3.379   3.260  -0.013  0.00  0.00    -0.272 OA
ATOM     20  H   UNL     1       4.946   0.603  -0.042  0.00  0.00    +0.156 HD
BRANCH  17  26
ATOM     21  C   UNL     1       6.429   6.069  -0.027  0.00  0.00    +0.067 C 
ATOM     22  C   UNL     1       6.709   4.588  -0.037  0.00  0.00    +0.059 A 
ATOM     23  C   UNL     1       8.017   4.141  -0.053  0.00  0.00    +0.063 A 
ATOM     24  C   UNL     1       8.268   2.776  -0.062  0.00  0.00    +0.045 A 
ATOM     25  C   UNL     1       7.191   1.906  -0.051  0.00  0.00    +0.082 A 
ATOM     26  C   UNL     1       5.901   2.427  -0.041  0.00  0.00    +0.144 A 
ATOM     27  N   UNL     1       5.703   3.736  -0.032  0.00  0.00    -0.234 NA
ATOM     28 CL   UNL     1       7.446   0.189  -0.055  0.00  0.00    -0.080 Cl
ATOM     29 CL   UNL     1       9.331   5.276  -0.060  0.00  0.00    -0.082 Cl
ENDBRANCH  17  26
ENDBRANCH  16  18
ENDBRANCH   1  16
TORSDOF 5
