REMARK  Name = ZINC12899395
REMARK  15 active torsions:
REMARK  status: ('A' for Active; 'I' for Inactive)
REMARK    1  A    between atoms: C_1  and  C_2
REMARK    2  A    between atoms: C_3  and  C_21
REMARK    3  A    between atoms: C_9  and  O_19
REMARK    4  A    between atoms: C_15  and  C_17
REMARK    5  A    between atoms: C_15  and  C_18
REMARK    6  A    between atoms: O_19  and  C_20
REMARK    7  A    between atoms: C_21  and  C_22
REMARK    8  A    between atoms: N_24  and  C_25
REMARK    9  A    between atoms: C_25  and  C_26
REMARK   10  A    between atoms: C_26  and  C_27
REMARK   11  A    between atoms: C_26  and  C_28
REMARK   12  A    between atoms: C_26  and  C_29
REMARK   13  A    between atoms: C_29  and  N_68
REMARK   14  A    between atoms: C_30  and  N_68
REMARK   15  A    between atoms: C_31  and  N_68
REMARK                            x       y       z     vdW  Elec       q    Type
REMARK                         _______ _______ _______ _____ _____    ______ ____
ROOT
ATOM      1  C   UNL     1       0.962  -2.988  -1.995  0.00  0.00    +0.045 C 
ATOM      2  C   UNL     1       1.280  -3.543  -0.630  0.00  0.00    -0.026 A 
ATOM      3  C   UNL     1       0.733  -2.993   0.485  0.00  0.00    +0.049 A 
ATOM      4  C   UNL     1       1.035  -3.528   1.753  0.00  0.00    +0.341 A 
ATOM      5  O   UNL     1       0.536  -3.033   2.747  0.00  0.00    -0.245 OA
ATOM      6  O   UNL     1       1.865  -4.578   1.882  0.00  0.00    -0.421 OA
ATOM      7  C   UNL     1       2.435  -5.149   0.797  0.00  0.00    +0.149 A 
ATOM      8  C   UNL     1       2.159  -4.646  -0.486  0.00  0.00    +0.063 A 
ATOM      9  C   UNL     1       2.752  -5.245  -1.612  0.00  0.00    +0.134 A 
ATOM     10  C   UNL     1       3.599  -6.320  -1.442  0.00  0.00    +0.092 A 
ATOM     11  C   UNL     1       3.872  -6.815  -0.166  0.00  0.00    +0.131 A 
ATOM     12  C   UNL     1       3.294  -6.230   0.948  0.00  0.00    +0.038 A 
ATOM     13  C   UNL     1       3.579  -6.736   2.340  0.00  0.00    +0.046 C 
ATOM     14  C   UNL     1       4.164  -8.149   2.266  0.00  0.00    +0.052 C 
ATOM     15  C   UNL     1       5.286  -8.151   1.220  0.00  0.00    +0.105 C 
ATOM     16  O   UNL     1       4.709  -7.879  -0.058  0.00  0.00    -0.486 OA
ATOM     17  C   UNL     1       5.967  -9.520   1.197  0.00  0.00    +0.055 C 
ATOM     18  C   UNL     1       6.312  -7.069   1.563  0.00  0.00    +0.055 C 
ENDROOT
BRANCH   9  19
ATOM     19  O   UNL     1       2.494  -4.768  -2.856  0.00  0.00    -0.494 OA
ATOM     20  C   UNL     1       3.134  -5.429  -3.949  0.00  0.00    +0.277 C 
ENDBRANCH   9  19
BRANCH   3  21
ATOM     21  C   UNL     1      -0.200  -1.815   0.366  0.00  0.00    +0.138 C 
BRANCH  21  22
ATOM     22  C   UNL     1       0.593  -0.536   0.438  0.00  0.00    +0.218 C 
ATOM     23  O   UNL     1       1.798  -0.577   0.572  0.00  0.00    -0.275 OA
ATOM     24  N   UNL     1      -0.036   0.653   0.352  0.00  0.00    -0.315 N 
ATOM     25  H   UNL     1      -0.999   0.685   0.241  0.00  0.00    +0.149 HD
BRANCH  24  26
ATOM     26  C   UNL     1       0.736   1.896   0.422  0.00  0.00    +0.108 C 
BRANCH  26  27
ATOM     27  C   UNL     1      -0.212   3.092   0.301  0.00  0.00    -0.034 C 
ATOM     28  C   UNL     1      -0.950   3.024  -1.037  0.00  0.00    +0.010 C 
ATOM     29  C   UNL     1      -1.226   3.056   1.446  0.00  0.00    +0.010 C 
BRANCH  27  30
ATOM     30  C   UNL     1       0.594   4.390   0.374  0.00  0.00    -0.072 C 
BRANCH  30  33
ATOM     31  C   UNL     1       1.138   4.882  -1.934  0.00  0.00    -0.097 C 
ATOM     32  C   UNL     1       2.823   5.133  -0.213  0.00  0.00    -0.097 C 
ATOM     33  N   UNL     1       1.653   4.345  -0.656  0.00  0.00    +0.376 N 
ATOM     34  H   UNL     1       1.941   3.370  -0.796  0.00  0.00    -0.083 HD
ENDBRANCH  30  33
ENDBRANCH  27  30
ENDBRANCH  26  27
ENDBRANCH  24  26
ENDBRANCH  21  22
ENDBRANCH   3  21
TORSDOF 7
