REMARK  Name = ZINC01247816
REMARK  13 active torsions:
REMARK  status: ('A' for Active; 'I' for Inactive)
REMARK    1  A    between atoms: C_1  and  C_2
REMARK    2  A    between atoms: C_3  and  C_26
REMARK    3  A    between atoms: C_15  and  C_19
REMARK    4  A    between atoms: C_16  and  N_18
REMARK    5  A    between atoms: C_19  and  O_21
REMARK    6  A    between atoms: O_21  and  C_22
REMARK    7  A    between atoms: C_22  and  C_23
REMARK    8  A    between atoms: C_22  and  C_24
REMARK    9  A    between atoms: C_22  and  C_25
REMARK   10  A    between atoms: C_26  and  O_28
REMARK   11  A    between atoms: O_28  and  C_29
REMARK   12  A    between atoms: C_29  and  C_30
REMARK   13  A    between atoms: C_29  and  C_31
REMARK                            x       y       z     vdW  Elec       q    Type
REMARK                         _______ _______ _______ _____ _____    ______ ____
ROOT
ATOM      1  C   UNL     1      -1.972  -4.435  -1.552  0.00  0.00    +0.087 C 
ATOM      2  C   UNL     1      -3.104  -3.561  -1.077  0.00  0.00    +0.116 C 
ATOM      3  C   UNL     1      -2.917  -2.236  -1.013  0.00  0.00    +0.098 C 
ATOM      4  C   UNL     1      -4.019  -1.325  -0.552  0.00  0.00    +0.145 C 
ATOM      5  C   UNL     1      -3.733  -0.811   0.836  0.00  0.00    -0.001 A 
ATOM      6  C   UNL     1      -3.569  -1.434   2.054  0.00  0.00    +0.022 A 
ATOM      7  C   UNL     1      -3.309  -0.681   3.186  0.00  0.00    +0.018 A 
ATOM      8  C   UNL     1      -3.214   0.696   3.088  0.00  0.00    +0.017 A 
ATOM      9  C   UNL     1      -3.377   1.322   1.870  0.00  0.00    +0.025 A 
ATOM     10  C   UNL     1      -3.640   0.571   0.727  0.00  0.00    +0.038 A 
ATOM     11  N   UNL     1      -3.841   0.965  -0.598  0.00  0.00    -0.284 N 
ATOM     12  C   UNL     1      -4.069  -0.083  -1.410  0.00  0.00    +0.237 C 
ATOM     13  O   UNL     1      -4.276  -0.039  -2.604  0.00  0.00    -0.274 OA
ATOM     14 BR   UNL     1      -3.083  -1.531   4.859  0.00  0.00    -0.050 Br
ATOM     15  C   UNL     1      -5.339  -2.040  -0.587  0.00  0.00    +0.117 C 
ATOM     16  C   UNL     1      -5.384  -3.397  -0.672  0.00  0.00    +0.195 C 
ATOM     17  O   UNL     1      -4.264  -4.137  -0.726  0.00  0.00    -0.446 OA
ATOM     18  H   UNL     1      -3.820   1.887  -0.898  0.00  0.00    +0.155 HD
ENDROOT
BRANCH  16  19
ATOM     19  N   UNL     1      -6.601  -4.024  -0.704  0.00  0.00    -0.329 N 
ATOM     20  H   UNL     1      -6.734  -4.793  -1.278  0.00  0.00    +0.145 HD
ATOM     21  H   UNL     1      -7.329  -3.698  -0.152  0.00  0.00    +0.145 HD
ENDBRANCH  16  19
BRANCH  15  22
ATOM     22  C   UNL     1      -6.533  -1.304  -0.529  0.00  0.00    +0.342 C 
ATOM     23  O   UNL     1      -7.603  -1.869  -0.669  0.00  0.00    -0.245 OA
BRANCH  22  24
ATOM     24  O   UNL     1      -6.495   0.029  -0.319  0.00  0.00    -0.455 OA
BRANCH  24  25
ATOM     25  C   UNL     1      -7.747   0.715  -0.273  0.00  0.00    +0.106 C 
ATOM     26  C   UNL     1      -8.599   0.144   0.863  0.00  0.00    +0.055 C 
ATOM     27  C   UNL     1      -7.505   2.205  -0.029  0.00  0.00    +0.055 C 
ATOM     28  C   UNL     1      -8.480   0.529  -1.603  0.00  0.00    +0.055 C 
ENDBRANCH  24  25
ENDBRANCH  22  24
ENDBRANCH  15  22
BRANCH   3  29
ATOM     29  C   UNL     1      -1.667  -1.687  -1.390  0.00  0.00    +0.340 C 
ATOM     30  O   UNL     1      -0.758  -2.420  -1.732  0.00  0.00    -0.245 OA
BRANCH  29  31
ATOM     31  O   UNL     1      -1.483  -0.350  -1.370  0.00  0.00    -0.459 OA
BRANCH  31  32
ATOM     32  C   UNL     1      -0.197   0.134  -1.763  0.00  0.00    +0.171 C 
ATOM     33  C   UNL     1      -0.345   1.521  -2.391  0.00  0.00    +0.052 C 
ATOM     34  C   UNL     1       0.710   0.225  -0.534  0.00  0.00    +0.052 C 
ENDBRANCH  31  32
ENDBRANCH  29  31
ENDBRANCH   3  29
TORSDOF 7
