REMARK  Name = ZINC11204468
REMARK  5 active torsions:
REMARK  status: ('A' for Active; 'I' for Inactive)
REMARK    1  A    between atoms: C_1  and  C_2
REMARK    2  A    between atoms: C_8  and  C_10
REMARK    3  A    between atoms: C_11  and  C_27
REMARK    4  A    between atoms: N_12  and  C_26
REMARK    5  A    between atoms: C_16  and  C_18
REMARK                            x       y       z     vdW  Elec       q    Type
REMARK                         _______ _______ _______ _____ _____    ______ ____
ROOT
ATOM      1  C   UNL     1      -0.655   2.103   3.633  0.00  0.00    +0.056 C 
ATOM      2  C   UNL     1       0.101   1.841   2.546  0.00  0.00    +0.019 C 
ATOM      3  N   UNL     1      -0.447   1.811   1.296  0.00  0.00    -0.289 N 
ATOM      4  C   UNL     1      -1.743   2.039   1.048  0.00  0.00    +0.137 C 
ATOM      5  S   UNL     1      -2.300   1.978  -0.570  0.00  0.00    -0.018 S 
ATOM      6  N   UNL     1      -2.625   2.308   2.031  0.00  0.00    -0.315 N 
ATOM      7  C   UNL     1      -2.132   2.363   3.418  0.00  0.00    +0.141 C 
ATOM      8  C   UNL     1       0.433   1.520   0.162  0.00  0.00    +0.137 C 
ATOM      9  C   UNL     1       1.575   1.576   2.715  0.00  0.00    +0.061 C 
ATOM     10  H   UNL     1      -3.560   2.466   1.830  0.00  0.00    +0.149 HD
ENDROOT
BRANCH   1  18
ATOM     11  C   UNL     1       2.478   2.469   9.750  0.00  0.00    +0.089 C 
ATOM     12  C   UNL     1       1.877   1.676   8.618  0.00  0.00    +0.136 A 
ATOM     13  C   UNL     1       1.285   2.173   7.508  0.00  0.00    +0.091 A 
ATOM     14  C   UNL     1       0.900   1.017   6.778  0.00  0.00    +0.168 A 
ATOM     15  N   UNL     1       1.278  -0.010   7.494  0.00  0.00    -0.063 NA
ATOM     16  O   UNL     1       1.826   0.340   8.514  0.00  0.00    -0.358 OA
ATOM     17  N   UNL     1       0.245   0.983   5.548  0.00  0.00    -0.264 N 
ATOM     18  C   UNL     1      -0.087   2.134   4.930  0.00  0.00    +0.249 C 
ATOM     19  O   UNL     1       0.100   3.200   5.487  0.00  0.00    -0.270 OA
ATOM     20  H   UNL     1       0.029   0.132   5.136  0.00  0.00    +0.157 HD
ENDBRANCH   1  18
BRANCH   7  21
ATOM     21  C   UNL     1      -2.905   1.351   4.225  0.00  0.00    -0.004 A 
ATOM     22  C   UNL     1      -3.306   0.164   3.642  0.00  0.00    +0.008 A 
ATOM     23  C   UNL     1      -4.010  -0.767   4.383  0.00  0.00    +0.020 A 
ATOM     24  C   UNL     1      -4.322  -0.507   5.705  0.00  0.00    +0.042 A 
ATOM     25  C   UNL     1      -3.925   0.683   6.288  0.00  0.00    +0.040 A 
ATOM     26  C   UNL     1      -3.216   1.613   5.547  0.00  0.00    +0.048 A 
ATOM     27 CL   UNL     1      -2.718   3.107   6.277  0.00  0.00    -0.083 Cl
ATOM     28 CL   UNL     1      -5.210  -1.674   6.634  0.00  0.00    -0.083 Cl
ENDBRANCH   7  21
TORSDOF 2
