REMARK  Name = ZINC64103046
REMARK  10 active torsions:
REMARK  status: ('A' for Active; 'I' for Inactive)
REMARK    1  A    between atoms: C_1  and  C_2
REMARK    2  A    between atoms: C_10  and  C_12
REMARK    3  A    between atoms: C_19  and  C_29
REMARK    4  A    between atoms: C_20  and  O_27
REMARK    5  A    between atoms: O_27  and  C_28
REMARK    6  A    between atoms: N_31  and  C_32
REMARK    7  A    between atoms: C_32  and  C_33
REMARK    8  A    between atoms: C_33  and  C_34
REMARK    9  A    between atoms: C_34  and  C_35
REMARK   10  A    between atoms: C_34  and  C_36
REMARK                            x       y       z     vdW  Elec       q    Type
REMARK                         _______ _______ _______ _____ _____    ______ ____
ROOT
ATOM      1  C   UNL     1      -1.320  -0.702   2.235  0.00  0.00    +0.242 C 
ATOM      2  O   UNL     1      -0.410  -0.755   1.435  0.00  0.00    -0.273 OA
ATOM      3  N   UNL     1      -1.399   0.330   3.098  0.00  0.00    -0.298 N 
ATOM      4  C   UNL     1      -2.397   0.314   4.094  0.00  0.00    +0.110 C 
ATOM      5  C   UNL     1      -3.347   1.518   3.965  0.00  0.00    +0.046 C 
ATOM      6  C   UNL     1      -2.655   2.777   4.447  0.00  0.00    +0.116 C 
ATOM      7  C   UNL     1      -3.650   3.714   5.056  0.00  0.00    +0.072 C 
ATOM      8  C   UNL     1      -3.553   5.041   4.977  0.00  0.00    +0.116 C 
ATOM      9  C   UNL     1      -2.417   5.702   4.253  0.00  0.00    +0.170 C 
ATOM     10  C   UNL     1      -1.775   4.753   3.293  0.00  0.00    +0.223 C 
ATOM     11  O   UNL     1      -1.123   5.218   2.382  0.00  0.00    -0.275 OA
ATOM     12  N   UNL     1      -1.892   3.425   3.373  0.00  0.00    -0.292 N 
ATOM     13  C   UNL     1      -1.173   2.655   2.342  0.00  0.00    +0.127 C 
ATOM     14  C   UNL     1      -0.434   1.442   2.976  0.00  0.00    +0.127 C 
ENDROOT
BRANCH   1  24
ATOM     15  C   UNL     1      -1.802  -2.652   4.763  0.00  0.00    +0.042 C 
ATOM     16  C   UNL     1      -1.985  -2.846   3.279  0.00  0.00    -0.033 C 
ATOM     17  C   UNL     1      -1.851  -4.000   2.587  0.00  0.00    +0.001 A 
ATOM     18  C   UNL     1      -1.507  -5.368   2.993  0.00  0.00    +0.030 A 
ATOM     19  C   UNL     1      -1.448  -6.337   2.050  0.00  0.00    +0.042 A 
ATOM     20  C   UNL     1      -1.707  -6.067   0.699  0.00  0.00    +0.022 A 
ATOM     21  C   UNL     1      -2.029  -4.835   0.250  0.00  0.00    +0.027 A 
ATOM     22  C   UNL     1      -2.119  -3.742   1.155  0.00  0.00    +0.043 A 
ATOM     23  N   UNL     1      -2.408  -2.477   0.968  0.00  0.00    -0.370 N 
ATOM     24  C   UNL     1      -2.362  -1.790   2.264  0.00  0.00    +0.193 C 
ATOM     25 CL   UNL     1      -1.042  -7.957   2.526  0.00  0.00    -0.084 Cl
ATOM     26  H   UNL     1      -2.621  -2.064   0.116  0.00  0.00    +0.161 HD
ENDBRANCH   1  24
BRANCH   7  27
ATOM     27  C   UNL     1      -4.754   3.161   5.753  0.00  0.00    +0.245 C 
ATOM     28  O   UNL     1      -4.598   2.688   6.863  0.00  0.00    -0.270 OA
ATOM     29  N   UNL     1      -5.977   3.160   5.186  0.00  0.00    -0.311 N 
ATOM     30  H   UNL     1      -6.089   3.471   4.274  0.00  0.00    +0.149 HD
BRANCH  29  31
ATOM     31  C   UNL     1      -7.137   2.690   5.947  0.00  0.00    +0.105 C 
BRANCH  31  32
ATOM     32  C   UNL     1      -8.393   2.793   5.078  0.00  0.00    +0.022 C 
BRANCH  32  33
ATOM     33  C   UNL     1      -9.604   2.302   5.873  0.00  0.00    -0.016 C 
ATOM     34  C   UNL     1     -10.876   2.520   5.051  0.00  0.00    +0.007 C 
ATOM     35  C   UNL     1      -9.444   0.811   6.179  0.00  0.00    +0.007 C 
ENDBRANCH  32  33
ENDBRANCH  31  32
ENDBRANCH  29  31
ENDBRANCH   7  27
BRANCH   8  36
ATOM     36  O   UNL     1      -4.497   5.806   5.561  0.00  0.00    -0.498 OA
ATOM     37  C   UNL     1      -4.080   6.631   6.651  0.00  0.00    +0.276 C 
ENDBRANCH   8  36
TORSDOF 6
