REMARK  Name = ZINC63686297
REMARK  7 active torsions:
REMARK  status: ('A' for Active; 'I' for Inactive)
REMARK    1  A    between atoms: C_5  and  C_7
REMARK    2  A    between atoms: C_10  and  S_13
REMARK    3  A    between atoms: S_13  and  C_14
REMARK    4  A    between atoms: C_14  and  C_15
REMARK    5  A    between atoms: N_17  and  C_18
REMARK    6  A    between atoms: C_18  and  C_19
REMARK    7  A    between atoms: C_19  and  C_20
REMARK                            x       y       z     vdW  Elec       q    Type
REMARK                         _______ _______ _______ _____ _____    ______ ____
ROOT
ATOM      1  C   UNL     1      -0.900  -5.789  -4.910  0.00  0.00    +0.223 C 
ATOM      2  O   UNL     1      -2.092  -5.819  -4.689  0.00  0.00    -0.275 OA
ATOM      3  N   UNL     1      -0.398  -6.434  -5.982  0.00  0.00    -0.314 N 
ATOM      4  H   UNL     1       0.555  -6.410  -6.159  0.00  0.00    +0.149 HD
ENDROOT
BRANCH   1   5
ATOM      5  C   UNL     1       0.019  -5.032  -3.988  0.00  0.00    +0.172 C 
BRANCH   5   6
ATOM      6  S   UNL     1      -0.951  -4.279  -2.652  0.00  0.00    -0.080 S 
BRANCH   6   9
ATOM      7  C   UNL     1       1.229  -2.186  -0.022  0.00  0.00    +0.207 C 
ATOM      8  N   UNL     1      -0.048  -2.717  -0.528  0.00  0.00    -0.300 N 
ATOM      9  C   UNL     1       0.250  -3.441  -1.673  0.00  0.00    +0.173 C 
ATOM     10  N   UNL     1       1.514  -3.428  -1.934  0.00  0.00    -0.163 NA
ATOM     11  N   UNL     1       2.228  -2.684  -0.982  0.00  0.00    -0.242 N 
ATOM     12  H   UNL     1      -0.926  -2.586  -0.137  0.00  0.00    +0.150 HD
ATOM     13  H   UNL     1       3.186  -2.528  -0.961  0.00  0.00    +0.170 HD
BRANCH   7  18
ATOM     14  C   UNL     1       1.606   1.406  -1.120  0.00  0.00    +0.000 A 
ATOM     15  C   UNL     1       1.172   2.086   0.003  0.00  0.00    +0.001 A 
ATOM     16  C   UNL     1       0.757   1.384   1.119  0.00  0.00    +0.020 A 
ATOM     17  C   UNL     1       0.775   0.000   1.111  0.00  0.00    +0.048 A 
ATOM     18  C   UNL     1       1.208  -0.679  -0.013  0.00  0.00    +0.010 A 
ATOM     19  C   UNL     1       1.624   0.024  -1.128  0.00  0.00    +0.008 A 
ATOM     20 CL   UNL     1       0.254  -0.882   2.512  0.00  0.00    -0.083 Cl
ENDBRANCH   7  18
ENDBRANCH   6   9
ENDBRANCH   5   6
ENDBRANCH   1   5
BRANCH   3  21
ATOM     21  C   UNL     1      -1.291  -7.171  -6.879  0.00  0.00    +0.108 C 
BRANCH  21  22
ATOM     22  C   UNL     1      -0.473  -7.805  -8.006  0.00  0.00    +0.065 C 
BRANCH  22  23
ATOM     23  C   UNL     1      -1.407  -8.575  -8.943  0.00  0.00    +0.175 C 
ATOM     24  N   UNL     1      -2.051  -9.677  -8.218  0.00  0.00    -0.363 N 
ATOM     25  C   UNL     1      -1.703 -10.786  -8.804  0.00  0.00    +0.060 A 
ATOM     26  C   UNL     1      -2.022 -12.196  -8.543  0.00  0.00    +0.027 A 
ATOM     27  C   UNL     1      -1.502 -13.154  -9.337  0.00  0.00    +0.002 A 
ATOM     28  C   UNL     1      -0.654 -12.862 -10.421  0.00  0.00    +0.002 A 
ATOM     29  C   UNL     1      -0.298 -11.603 -10.746  0.00  0.00    +0.027 A 
ATOM     30  C   UNL     1      -0.806 -10.477  -9.951  0.00  0.00    +0.060 A 
ATOM     31  N   UNL     1      -0.635  -9.189 -10.030  0.00  0.00    -0.363 N 
ATOM     32  H   UNL     1      -2.631  -9.594  -7.445  0.00  0.00    +0.162 HD
ATOM     33  H   UNL     1      -0.096  -8.721 -10.687  0.00  0.00    +0.162 HD
ENDBRANCH  22  23
ENDBRANCH  21  22
ENDBRANCH   3  21
TORSDOF 7
