REMARK  Name = ZINC64600506
REMARK  10 active torsions:
REMARK  status: ('A' for Active; 'I' for Inactive)
REMARK    1  A    between atoms: C_1  and  C_2
REMARK    2  A    between atoms: C_4  and  C_31
REMARK    3  A    between atoms: C_5  and  C_27
REMARK    4  A    between atoms: C_6  and  N_9
REMARK    5  A    between atoms: C_10  and  C_12
REMARK    6  A    between atoms: N_14  and  C_15
REMARK    7  A    between atoms: C_15  and  C_16
REMARK    8  A    between atoms: C_16  and  C_17
REMARK    9  A    between atoms: C_27  and  O_29
REMARK   10  A    between atoms: O_29  and  C_30
REMARK                            x       y       z     vdW  Elec       q    Type
REMARK                         _______ _______ _______ _____ _____    ______ ____
ROOT
ATOM      1  C   UNL     1       1.973  -5.510   1.422  0.00  0.00    +0.299 C 
ATOM      2  O   UNL     1       0.938  -5.894   0.917  0.00  0.00    -0.265 OA
ATOM      3  N   UNL     1       2.753  -6.376   2.099  0.00  0.00    -0.307 N 
ATOM      4  H   UNL     1       3.580  -6.069   2.502  0.00  0.00    +0.149 HD
ENDROOT
BRANCH   1   6
ATOM      5  N   UNL     1       1.601  -3.213   0.616  0.00  0.00    -0.292 N 
ATOM      6  C   UNL     1       2.381  -4.079   1.292  0.00  0.00    +0.300 C 
ATOM      7  O   UNL     1       3.416  -3.695   1.797  0.00  0.00    -0.265 OA
ATOM      8  H   UNL     1       0.774  -3.520   0.212  0.00  0.00    +0.151 HD
BRANCH   5  13
ATOM      9  C   UNL     1      -0.472   1.293  -0.038  0.00  0.00    +0.024 C 
ATOM     10  C   UNL     1      -0.165  -0.205  -0.063  0.00  0.00    +0.072 C 
ATOM     11  C   UNL     1       0.784  -0.550  -1.197  0.00  0.00    -0.047 C 
ATOM     12  C   UNL     1       1.815  -1.314  -0.934  0.00  0.00    +0.067 C 
ATOM     13  C   UNL     1       2.002  -1.810   0.489  0.00  0.00    +0.169 C 
ATOM     14  S   UNL     1       0.841  -0.702   1.402  0.00  0.00    -0.126 S 
ATOM     15  C   UNL     1       0.546  -0.026  -2.590  0.00  0.00    +0.041 C 
BRANCH  12  16
ATOM     16  C   UNL     1       2.768  -1.682  -1.991  0.00  0.00    +0.338 C 
ATOM     17  O   UNL     1       2.675  -1.182  -3.095  0.00  0.00    -0.245 OA
BRANCH  16  18
ATOM     18  O   UNL     1       3.746  -2.574  -1.736  0.00  0.00    -0.465 OA
ATOM     19  C   UNL     1       4.636  -2.886  -2.809  0.00  0.00    +0.280 C 
ENDBRANCH  16  18
ENDBRANCH  12  16
ENDBRANCH   5  13
ENDBRANCH   1   6
BRANCH   3  20
ATOM     20  C   UNL     1       2.352  -7.779   2.225  0.00  0.00    +0.109 C 
BRANCH  20  21
ATOM     21  C   UNL     1       3.405  -8.539   3.034  0.00  0.00    +0.052 C 
BRANCH  21  22
ATOM     22  C   UNL     1       2.993  -9.983   3.164  0.00  0.00    -0.040 C 
ATOM     23  C   UNL     1       3.382 -11.014   2.379  0.00  0.00    +0.000 A 
ATOM     24  C   UNL     1       4.271 -11.096   1.214  0.00  0.00    +0.030 A 
ATOM     25  C   UNL     1       4.470 -12.297   0.624  0.00  0.00    +0.042 A 
ATOM     26  C   UNL     1       3.850 -13.463   1.097  0.00  0.00    +0.022 A 
ATOM     27  C   UNL     1       3.021 -13.466   2.163  0.00  0.00    +0.027 A 
ATOM     28  C   UNL     1       2.740 -12.258   2.859  0.00  0.00    +0.043 A 
ATOM     29  N   UNL     1       1.984 -12.007   3.900  0.00  0.00    -0.380 N 
ATOM     30  C   UNL     1       2.066 -10.574   4.203  0.00  0.00    +0.144 C 
ATOM     31 CL   UNL     1       5.520 -12.398  -0.755  0.00  0.00    -0.084 Cl
ATOM     32  H   UNL     1       1.461 -12.660   4.391  0.00  0.00    +0.160 HD
ENDBRANCH  21  22
ENDBRANCH  20  21
ENDBRANCH   3  20
TORSDOF 7
