REMARK  Name = ZINC36202983
REMARK  10 active torsions:
REMARK  status: ('A' for Active; 'I' for Inactive)
REMARK    1  A    between atoms: C_3  and  C_8
REMARK    2  A    between atoms: C_8  and  N_9
REMARK    3  A    between atoms: N_9  and  C_10
REMARK    4  A    between atoms: N_9  and  C_16
REMARK    5  A    between atoms: C_10  and  C_11
REMARK    6  A    between atoms: C_16  and  C_17
REMARK    7  A    between atoms: C_20  and  C_22
REMARK    8  A    between atoms: C_22  and  C_23
REMARK    9  A    between atoms: C_22  and  C_30
REMARK   10  A    between atoms: C_22  and  O_37
REMARK                            x       y       z     vdW  Elec       q    Type
REMARK                         _______ _______ _______ _____ _____    ______ ____
ROOT
ATOM      1  C   UNL     1       6.575   2.560   2.805  0.00  0.00    +0.089 A 
ATOM      2  C   UNL     1       7.493   2.076   3.661  0.00  0.00    +0.043 A 
ATOM      3  C   UNL     1       7.373   2.824   4.855  0.00  0.00    +0.048 A 
ATOM      4  C   UNL     1       6.389   3.719   4.657  0.00  0.00    +0.146 A 
ATOM      5  O   UNL     1       5.913   3.558   3.411  0.00  0.00    -0.463 OA
ENDROOT
BRANCH   1   6
ATOM      6  C   UNL     1       6.335   2.068   1.401  0.00  0.00    -0.002 C 
BRANCH   6   7
ATOM      7  N   UNL     1       5.326   1.001   1.422  0.00  0.00    +0.392 N 
ATOM      8  H   UNL     1       5.618   0.274   2.058  0.00  0.00    -0.080 HD
BRANCH   7   9
ATOM      9  C   UNL     1       5.178   0.440   0.072  0.00  0.00    -0.042 C 
BRANCH   9  12
ATOM     10  C   UNL     1       7.864  -2.190  -0.288  0.00  0.00    +0.003 A 
ATOM     11  C   UNL     1       6.692  -1.553   0.076  0.00  0.00    +0.002 A 
ATOM     12  C   UNL     1       6.456  -0.253  -0.327  0.00  0.00    -0.061 A 
ATOM     13  C   UNL     1       7.392   0.414  -1.095  0.00  0.00    +0.040 A 
ATOM     14  C   UNL     1       8.566  -0.222  -1.462  0.00  0.00    +0.124 A 
ATOM     15  C   UNL     1       8.801  -1.525  -1.057  0.00  0.00    +0.038 A 
ATOM     16  F   UNL     1       9.481   0.428  -2.213  0.00  0.00    -0.205 F 
ENDBRANCH   9  12
ENDBRANCH   7   9
BRANCH   7  17
ATOM     17  C   UNL     1       4.039   1.552   1.866  0.00  0.00    -0.002 C 
BRANCH  17  18
ATOM     18  C   UNL     1       3.039   0.435   2.019  0.00  0.00    +0.089 A 
ATOM     19  C   UNL     1       2.890  -0.343   3.107  0.00  0.00    +0.042 A 
ATOM     20  C   UNL     1       1.847  -1.253   2.819  0.00  0.00    +0.041 A 
ATOM     21  C   UNL     1       1.421  -0.976   1.574  0.00  0.00    +0.195 A 
ATOM     22  O   UNL     1       2.143   0.051   1.097  0.00  0.00    -0.470 OA
ENDBRANCH  17  18
ENDBRANCH   7  17
ENDBRANCH   6   7
ENDBRANCH   1   6
BRANCH   4  23
ATOM     23  C   UNL     1       5.905   4.735   5.660  0.00  0.00    +0.174 C 
BRANCH  23  24
ATOM     24  C   UNL     1       5.394   5.953   4.936  0.00  0.00    -0.002 A 
ATOM     25  C   UNL     1       6.051   7.162   5.069  0.00  0.00    +0.007 A 
ATOM     26  C   UNL     1       5.583   8.281   4.405  0.00  0.00    +0.003 A 
ATOM     27  C   UNL     1       4.458   8.192   3.607  0.00  0.00    +0.038 A 
ATOM     28  C   UNL     1       3.799   6.981   3.474  0.00  0.00    +0.124 A 
ATOM     29  C   UNL     1       4.272   5.860   4.135  0.00  0.00    +0.045 A 
ATOM     30  F   UNL     1       2.699   6.893   2.695  0.00  0.00    -0.205 F 
ENDBRANCH  23  24
BRANCH  23  31
ATOM     31  C   UNL     1       4.794   4.137   6.484  0.00  0.00    -0.002 A 
ATOM     32  C   UNL     1       3.831   3.351   5.879  0.00  0.00    +0.007 A 
ATOM     33  C   UNL     1       2.811   2.803   6.634  0.00  0.00    +0.003 A 
ATOM     34  C   UNL     1       2.753   3.039   7.994  0.00  0.00    +0.038 A 
ATOM     35  C   UNL     1       3.717   3.825   8.601  0.00  0.00    +0.124 A 
ATOM     36  C   UNL     1       4.742   4.370   7.845  0.00  0.00    +0.045 A 
ATOM     37  F   UNL     1       3.661   4.058   9.931  0.00  0.00    -0.205 F 
ENDBRANCH  23  31
BRANCH  23  38
ATOM     38  O   UNL     1       6.986   5.109   6.518  0.00  0.00    -0.372 OA
ATOM     39  H   UNL     1       7.738   5.501   6.054  0.00  0.00    +0.212 HD
ENDBRANCH  23  38
ENDBRANCH   4  23
TORSDOF 10
