REMARK  Name = ZINC11898366
REMARK  7 active torsions:
REMARK  status: ('A' for Active; 'I' for Inactive)
REMARK    1  A    between atoms: C_1  and  N_2
REMARK    2  A    between atoms: C_6  and  C_7
REMARK    3  A    between atoms: C_7  and  C_9
REMARK    4  A    between atoms: C_7  and  N_56
REMARK    5  A    between atoms: C_9  and  N_10
REMARK    6  A    between atoms: C_11  and  C_13
REMARK    7  A    between atoms: N_15  and  C_16
REMARK                            x       y       z     vdW  Elec       q    Type
REMARK                         _______ _______ _______ _____ _____    ______ ____
ROOT
ATOM      1  C   UNL     1       6.062   1.932   0.344  0.00  0.00    -0.003 C 
ENDROOT
BRANCH   1  11
ATOM      2  C   UNL     1       4.983   3.776  -0.799  0.00  0.00    -0.073 C 
ATOM      3  C   UNL     1       5.259   4.862  -1.839  0.00  0.00    +0.017 C 
ATOM      4  C   UNL     1       5.571   4.231  -3.172  0.00  0.00    -0.048 A 
ATOM      5  C   UNL     1       5.504   5.021  -4.310  0.00  0.00    +0.004 A 
ATOM      6  C   UNL     1       5.790   4.484  -5.549  0.00  0.00    +0.000 A 
ATOM      7  C   UNL     1       6.146   3.153  -5.656  0.00  0.00    +0.000 A 
ATOM      8  C   UNL     1       6.212   2.365  -4.525  0.00  0.00    +0.002 A 
ATOM      9  C   UNL     1       5.923   2.902  -3.279  0.00  0.00    -0.061 A 
ATOM     10  C   UNL     1       6.004   2.002  -2.074  0.00  0.00    -0.042 C 
ATOM     11  N   UNL     1       6.100   2.811  -0.847  0.00  0.00    +0.389 N 
ATOM     12  H   UNL     1       6.988   3.326  -0.853  0.00  0.00    -0.080 HD
ENDBRANCH   1  11
BRANCH   1  18
ATOM     13  C   UNL     1       6.807  -0.223   2.445  0.00  0.00    +0.148 C 
ATOM     14  N   UNL     1       7.705   0.285   1.405  0.00  0.00    -0.355 N 
ATOM     15  C   UNL     1       8.994  -0.113   1.204  0.00  0.00    +0.085 A 
ATOM     16  C   UNL     1       9.493   0.583   0.163  0.00  0.00    +0.019 A 
ATOM     17  C   UNL     1       8.473   1.438  -0.300  0.00  0.00    +0.021 A 
ATOM     18  C   UNL     1       7.390   1.232   0.476  0.00  0.00    +0.006 A 
ENDBRANCH   1  18
BRANCH   1  19
ATOM     19  C   UNL     1       4.949   0.891   0.200  0.00  0.00    +0.095 C 
BRANCH  19  20
ATOM     20  N   UNL     1       3.650   1.568   0.159  0.00  0.00    -0.309 N 
ATOM     21  C   UNL     1       2.533   0.865  -0.115  0.00  0.00    +0.299 C 
ATOM     22  O   UNL     1       2.603  -0.327  -0.329  0.00  0.00    -0.265 OA
ATOM     23  H   UNL     1       3.595   2.521   0.330  0.00  0.00    +0.149 HD
BRANCH  21  24
ATOM     24  C   UNL     1       1.209   1.555  -0.157  0.00  0.00    +0.303 C 
ATOM     25  O   UNL     1       1.139   2.748   0.057  0.00  0.00    -0.265 OA
ATOM     26  N   UNL     1       0.092   0.853  -0.431  0.00  0.00    -0.278 N 
ATOM     27  H   UNL     1       0.153  -0.090  -0.649  0.00  0.00    +0.155 HD
BRANCH  26  28
ATOM     28  C   UNL     1      -1.154   1.485  -0.406  0.00  0.00    +0.034 A 
ATOM     29  C   UNL     1      -2.275   0.797   0.044  0.00  0.00    +0.025 A 
ATOM     30  C   UNL     1      -3.504   1.426   0.073  0.00  0.00    +0.022 A 
ATOM     31  C   UNL     1      -3.622   2.736  -0.356  0.00  0.00    +0.041 A 
ATOM     32  C   UNL     1      -2.509   3.422  -0.811  0.00  0.00    +0.022 A 
ATOM     33  C   UNL     1      -1.276   2.800  -0.836  0.00  0.00    +0.025 A 
ATOM     34 CL   UNL     1      -5.170   3.522  -0.324  0.00  0.00    -0.084 Cl
ENDBRANCH  26  28
ENDBRANCH  21  24
ENDBRANCH  19  20
ENDBRANCH   1  19
TORSDOF 6
