REMARK  Name = ZINC05126350
REMARK  11 active torsions:
REMARK  status: ('A' for Active; 'I' for Inactive)
REMARK    1  A    between atoms: C_1  and  C_2
REMARK    2  A    between atoms: C_2  and  C_3
REMARK    3  A    between atoms: C_14  and  O_37
REMARK    4  A    between atoms: C_18  and  C_36
REMARK    5  A    between atoms: C_23  and  C_35
REMARK    6  A    between atoms: C_24  and  C_26
REMARK    7  A    between atoms: C_26  and  C_34
REMARK    8  A    between atoms: N_27  and  N_28
REMARK    9  A    between atoms: C_29  and  O_31
REMARK   10  A    between atoms: O_31  and  C_32
REMARK   11  A    between atoms: C_32  and  C_33
REMARK                            x       y       z     vdW  Elec       q    Type
REMARK                         _______ _______ _______ _____ _____    ______ ____
ROOT
ATOM      1  C   UNL     1      -0.658   1.739  -1.627  0.00  0.00    -0.002 C 
ATOM      2  C   UNL     1      -0.158   3.206  -1.751  0.00  0.00    +0.008 C 
ATOM      3  C   UNL     1       0.052   3.335  -3.267  0.00  0.00    -0.000 C 
ATOM      4  C   UNL     1       0.776   4.564  -3.760  0.00  0.00    +0.000 C 
ATOM      5  C   UNL     1      -0.266   5.409  -4.518  0.00  0.00    +0.031 C 
ATOM      6  C   UNL     1       0.384   6.571  -5.200  0.00  0.00    -0.027 C 
ATOM      7  C   UNL     1       1.623   6.561  -5.588  0.00  0.00    -0.065 C 
ATOM      8  C   UNL     1       2.169   7.783  -6.307  0.00  0.00    +0.062 C 
ATOM      9  C   UNL     1       2.796   7.318  -7.624  0.00  0.00    +0.119 C 
ATOM     10  C   UNL     1       3.844   6.239  -7.355  0.00  0.00    +0.032 C 
ATOM     11  C   UNL     1       3.213   5.020  -6.685  0.00  0.00    +0.014 C 
ATOM     12  C   UNL     1       2.552   5.409  -5.363  0.00  0.00    -0.008 C 
ATOM     13  C   UNL     1       1.908   4.199  -4.706  0.00  0.00    +0.003 C 
ATOM     14  C   UNL     1       1.537   3.129  -5.712  0.00  0.00    +0.005 C 
ATOM     15  C   UNL     1       0.911   1.873  -5.090  0.00  0.00    +0.008 C 
ATOM     16  C   UNL     1       0.764   2.013  -3.600  0.00  0.00    -0.021 C 
ATOM     17  C   UNL     1      -0.154   0.996  -2.892  0.00  0.00    +0.044 C 
ATOM     18  C   UNL     1       2.127   1.873  -2.908  0.00  0.00    +0.012 C 
ATOM     19  C   UNL     1       3.656   5.878  -4.405  0.00  0.00    +0.016 C 
ENDROOT
BRANCH  17  20
ATOM     20  C   UNL     1      -1.315   0.586  -3.750  0.00  0.00    +0.038 C 
ATOM     21  N   UNL     1      -1.427  -0.628  -4.138  0.00  0.00    -0.187 NA
ATOM     22  C   UNL     1      -2.349   1.605  -4.154  0.00  0.00    +0.062 C 
BRANCH  21  23
ATOM     23  N   UNL     1      -0.535  -1.600  -3.664  0.00  0.00    -0.172 N 
ATOM     24  C   UNL     1      -0.585  -2.855  -4.152  0.00  0.00    +0.420 C 
ATOM     25  O   UNL     1       0.125  -3.720  -3.679  0.00  0.00    -0.225 OA
ATOM     26  H   UNL     1       0.118  -1.369  -2.985  0.00  0.00    +0.181 HD
BRANCH  24  27
ATOM     27  O   UNL     1      -1.422  -3.151  -5.165  0.00  0.00    -0.450 OA
BRANCH  27  28
ATOM     28  C   UNL     1      -1.423  -4.523  -5.640  0.00  0.00    +0.230 C 
ATOM     29  C   UNL     1      -2.429  -4.666  -6.784  0.00  0.00    +0.048 C 
ENDBRANCH  27  28
ENDBRANCH  24  27
ENDBRANCH  21  23
ENDBRANCH  17  20
BRANCH   1  31
ATOM     30  C   UNL     1      -0.692   1.776   0.869  0.00  0.00    +0.004 C 
ATOM     31  C   UNL     1      -0.100   1.087  -0.363  0.00  0.00    +0.001 C 
ENDBRANCH   1  31
BRANCH   9  32
ATOM     32  O   UNL     1       1.778   6.795  -8.480  0.00  0.00    -0.391 OA
ATOM     33  H   UNL     1       1.087   7.433  -8.703  0.00  0.00    +0.210 HD
ENDBRANCH   9  32
TORSDOF 6
