REMARK  Name = ZINC28053239
REMARK  3 active torsions:
REMARK  status: ('A' for Active; 'I' for Inactive)
REMARK    1  A    between atoms: C_1  and  C_2
REMARK    2  A    between atoms: C_10  and  C_18
REMARK    3  A    between atoms: C_24  and  C_27
REMARK                            x       y       z     vdW  Elec       q    Type
REMARK                         _______ _______ _______ _____ _____    ______ ____
ROOT
ATOM      1  C   UNL     1       3.850   1.631  -0.098  0.00  0.00    +0.044 C 
ATOM      2  C   UNL     1       2.489   0.987  -0.068  0.00  0.00    -0.050 A 
ATOM      3  C   UNL     1       2.380  -0.393  -0.052  0.00  0.00    +0.007 A 
ATOM      4  C   UNL     1       1.137  -1.000  -0.024  0.00  0.00    +0.046 A 
ATOM      5  C   UNL     1      -0.006  -0.222  -0.012  0.00  0.00    +0.131 A 
ATOM      6  C   UNL     1       0.102   1.175  -0.029  0.00  0.00    +0.038 A 
ATOM      7  C   UNL     1       1.354   1.776  -0.056  0.00  0.00    +0.016 A 
ATOM      8  C   UNL     1      -1.144   1.978  -0.024  0.00  0.00    +0.050 C 
ATOM      9  C   UNL     1      -2.281   1.380   0.343  0.00  0.00    +0.026 C 
ATOM     10  C   UNL     1      -3.604   2.107   0.363  0.00  0.00    +0.174 C 
ATOM     11  N   UNL     1      -3.388   3.542   0.256  0.00  0.00    -0.201 N 
ATOM     12  C   UNL     1      -2.204   4.106  -0.100  0.00  0.00    +0.240 A 
ATOM     13  N   UNL     1      -2.373   5.397  -0.102  0.00  0.00    -0.092 NA
ATOM     14  N   UNL     1      -3.584   5.689   0.233  0.00  0.00    -0.021 NA
ATOM     15  N   UNL     1      -4.259   4.610   0.467  0.00  0.00    -0.042 NA
ATOM     16  N   UNL     1      -1.091   3.330  -0.377  0.00  0.00    -0.282 N 
ATOM     17  C   UNL     1      -2.253  -0.077   0.743  0.00  0.00    +0.237 C 
ATOM     18  O   UNL     1      -1.244  -0.778   0.018  0.00  0.00    -0.479 OA
ATOM     19  H   UNL     1      -0.189   3.738  -0.857  0.00  0.00    +0.155 HD
ENDROOT
BRANCH  17  20
ATOM     20  C   UNL     1      -1.969  -0.182   2.219  0.00  0.00    +0.032 A 
ATOM     21  C   UNL     1      -0.676  -0.391   2.660  0.00  0.00    +0.010 A 
ATOM     22  C   UNL     1      -0.414  -0.487   4.014  0.00  0.00    +0.001 A 
ATOM     23  C   UNL     1      -1.445  -0.373   4.928  0.00  0.00    +0.003 A 
ATOM     24  C   UNL     1      -2.738  -0.163   4.489  0.00  0.00    +0.039 A 
ATOM     25  C   UNL     1      -3.001  -0.063   3.134  0.00  0.00    +0.130 A 
ATOM     26  F   UNL     1      -4.264   0.147   2.703  0.00  0.00    -0.205 F 
ENDBRANCH  17  20
BRANCH  10  27
ATOM     27  C   UNL     1      -4.448   1.640  -0.795  0.00  0.00    -0.019 A 
ATOM     28  C   UNL     1      -3.998   1.809  -2.091  0.00  0.00    +0.006 A 
ATOM     29  C   UNL     1      -4.770   1.377  -3.152  0.00  0.00    +0.000 A 
ATOM     30  C   UNL     1      -5.997   0.784  -2.919  0.00  0.00    +0.000 A 
ATOM     31  C   UNL     1      -6.450   0.620  -1.623  0.00  0.00    +0.000 A 
ATOM     32  C   UNL     1      -5.675   1.048  -0.561  0.00  0.00    +0.006 A 
ENDBRANCH  10  27
TORSDOF 2
