REMARK  Name = ZINC39675309
REMARK  10 active torsions:
REMARK  status: ('A' for Active; 'I' for Inactive)
REMARK    1  A    between atoms: C_1  and  C_2
REMARK    2  A    between atoms: C_2  and  C_4
REMARK    3  A    between atoms: C_2  and  N_14
REMARK    4  A    between atoms: C_4  and  C_5
REMARK    5  A    between atoms: C_5  and  C_6
REMARK    6  A    between atoms: C_9  and  O_12
REMARK    7  A    between atoms: O_12  and  C_13
REMARK    8  A    between atoms: C_15  and  C_17
REMARK    9  A    between atoms: C_28  and  C_30
REMARK   10  A    between atoms: C_30  and  C_36
REMARK                            x       y       z     vdW  Elec       q    Type
REMARK                         _______ _______ _______ _____ _____    ______ ____
ROOT
ATOM      1  C   UNL     1       1.208  -1.303  -3.873  0.00  0.00    +0.100 C 
ATOM      2  C   UNL     1       1.617  -2.708  -3.377  0.00  0.00    +0.121 C 
ATOM      3  N   UNL     1       0.566  -3.611  -3.902  0.00  0.00    -0.300 N 
ATOM      4  C   UNL     1       0.281  -3.093  -5.262  0.00  0.00    +0.115 C 
ATOM      5  C   UNL     1       0.335  -1.560  -5.112  0.00  0.00    -0.004 C 
ATOM      6  C   UNL     1      -1.069  -1.003  -4.894  0.00  0.00    -0.010 C 
ATOM      7  C   UNL     1      -1.901  -1.220  -6.160  0.00  0.00    -0.082 C 
ATOM      8  N   UNL     1      -1.256  -0.546  -7.293  0.00  0.00    +0.379 N 
ATOM      9  C   UNL     1       0.056  -1.150  -7.555  0.00  0.00    -0.082 C 
ATOM     10  C   UNL     1       0.971  -0.930  -6.347  0.00  0.00    -0.010 C 
ATOM     11  C   UNL     1      -0.003  -4.665  -3.284  0.00  0.00    +0.222 C 
ATOM     12  O   UNL     1       0.282  -4.919  -2.133  0.00  0.00    -0.275 OA
ATOM     13  H   UNL     1      -1.837  -0.638  -8.113  0.00  0.00    -0.086 HD
ATOM     14  H   UNL     1      -1.138   0.433  -7.077  0.00  0.00    -0.086 HD
ENDROOT
BRANCH  11  15
ATOM     15  C   UNL     1      -0.993  -5.528  -4.023  0.00  0.00    +0.044 C 
ATOM     16  C   UNL     1      -2.255  -4.715  -4.320  0.00  0.00    +0.016 C 
ATOM     17  C   UNL     1      -2.876  -4.238  -3.006  0.00  0.00    +0.001 C 
ATOM     18  C   UNL     1      -3.240  -5.449  -2.144  0.00  0.00    +0.000 C 
ATOM     19  C   UNL     1      -1.978  -6.261  -1.847  0.00  0.00    +0.001 C 
ATOM     20  C   UNL     1      -1.357  -6.739  -3.161  0.00  0.00    +0.016 C 
ATOM     21  C   UNL     1      -0.372  -6.005  -5.337  0.00  0.00    +0.021 C 
ENDBRANCH  11  15
BRANCH   1  23
ATOM     22  N   UNL     1       0.459   0.762  -2.736  0.00  0.00    -0.312 N 
ATOM     23  C   UNL     1       0.416  -0.583  -2.812  0.00  0.00    +0.218 C 
ATOM     24  O   UNL     1      -0.260  -1.213  -2.027  0.00  0.00    -0.275 OA
ATOM     25  H   UNL     1       0.999   1.267  -3.364  0.00  0.00    +0.149 HD
BRANCH  22  27
ATOM     26  C   UNL     1      -1.743   1.682  -2.200  0.00  0.00    +0.028 C 
ATOM     27  C   UNL     1      -0.311   1.463  -1.706  0.00  0.00    +0.070 C 
BRANCH  27  28
ATOM     28  C   UNL     1       0.340   2.816  -1.413  0.00  0.00    +0.026 C 
BRANCH  28  29
ATOM     29  C   UNL     1       1.725   2.593  -0.802  0.00  0.00    +0.037 C 
BRANCH  29  30
ATOM     30  C   UNL     1       2.367   3.926  -0.514  0.00  0.00    -0.047 A 
ATOM     31  C   UNL     1       3.141   4.543  -1.480  0.00  0.00    +0.007 A 
ATOM     32  C   UNL     1       3.731   5.764  -1.218  0.00  0.00    +0.046 A 
ATOM     33  C   UNL     1       3.546   6.372   0.015  0.00  0.00    +0.120 A 
ATOM     34  C   UNL     1       2.769   5.751   0.983  0.00  0.00    +0.046 A 
ATOM     35  C   UNL     1       2.177   4.532   0.714  0.00  0.00    +0.007 A 
BRANCH  33  36
ATOM     36  O   UNL     1       4.126   7.573   0.275  0.00  0.00    -0.495 OA
ATOM     37  C   UNL     1       3.893   8.140   1.566  0.00  0.00    +0.277 C 
ENDBRANCH  33  36
ENDBRANCH  29  30
ENDBRANCH  28  29
ENDBRANCH  27  28
ENDBRANCH  22  27
ENDBRANCH   1  23
TORSDOF 7
