REMARK  Name = ZINC04476249
REMARK  6 active torsions:
REMARK  status: ('A' for Active; 'I' for Inactive)
REMARK    1  A    between atoms: C_1  and  C_2
REMARK    2  A    between atoms: C_2  and  C_25
REMARK    3  A    between atoms: N_5  and  C_9
REMARK    4  A    between atoms: C_9  and  C_10
REMARK    5  A    between atoms: C_22  and  C_23
REMARK    6  A    between atoms: C_22  and  C_24
REMARK                            x       y       z     vdW  Elec       q    Type
REMARK                         _______ _______ _______ _____ _____    ______ ____
ROOT
ATOM      1  C   UNL     1       2.783  -1.872  -1.734  0.00  0.00    +0.214 C 
ENDROOT
BRANCH   1   2
ATOM      2  C   UNL     1       3.962  -0.940  -1.839  0.00  0.00    +0.239 C 
ATOM      3  O   UNL     1       3.868   0.204  -1.447  0.00  0.00    -0.273 OA
ATOM      4  N   UNL     1       5.122  -1.377  -2.369  0.00  0.00    -0.254 N 
ATOM      5  C   UNL     1       5.229  -2.667  -2.913  0.00  0.00    +0.059 A 
ATOM      6  C   UNL     1       4.452  -3.709  -2.438  0.00  0.00    +0.025 A 
ATOM      7  C   UNL     1       4.583  -4.970  -2.992  0.00  0.00    +0.002 A 
ATOM      8  C   UNL     1       5.488  -5.189  -4.016  0.00  0.00    +0.002 A 
ATOM      9  C   UNL     1       6.266  -4.152  -4.495  0.00  0.00    +0.025 A 
ATOM     10  C   UNL     1       6.140  -2.885  -3.948  0.00  0.00    +0.055 A 
ATOM     11  N   UNL     1       6.909  -1.819  -4.426  0.00  0.00    -0.282 N 
ATOM     12  C   UNL     1       6.998  -0.668  -3.732  0.00  0.00    +0.241 C 
ATOM     13  O   UNL     1       7.635   0.258  -4.186  0.00  0.00    -0.273 OA
ATOM     14  C   UNL     1       6.314  -0.517  -2.401  0.00  0.00    +0.113 C 
ATOM     15  C   UNL     1       5.897   0.942  -2.204  0.00  0.00    +0.042 C 
ATOM     16  C   UNL     1       7.275  -0.931  -1.285  0.00  0.00    +0.042 C 
ATOM     17  H   UNL     1       7.384  -1.909  -5.267  0.00  0.00    +0.155 HD
ENDBRANCH   1   2
BRANCH   1  22
ATOM     18  C   UNL     1      -0.354   1.599  -2.152  0.00  0.00    +0.047 C 
ATOM     19  C   UNL     1      -0.353   0.117  -1.775  0.00  0.00    +0.135 C 
ATOM     20  C   UNL     1       0.774  -0.613  -2.479  0.00  0.00    +0.251 C 
ATOM     21  O   UNL     1       0.931  -0.736  -3.675  0.00  0.00    -0.272 OA
ATOM     22  N   UNL     1       1.565  -1.094  -1.500  0.00  0.00    -0.215 N 
ATOM     23  C   UNL     1       1.099  -0.773  -0.287  0.00  0.00    +0.310 C 
ATOM     24  O   UNL     1       1.641  -1.096   0.752  0.00  0.00    -0.252 OA
ATOM     25  N   UNL     1      -0.037  -0.054  -0.346  0.00  0.00    -0.281 N 
ATOM     26  H   UNL     1      -0.548   0.285   0.405  0.00  0.00    +0.152 HD
BRANCH  19  27
ATOM     27  C   UNL     1      -1.683  -0.513  -2.103  0.00  0.00    -0.016 A 
ATOM     28  C   UNL     1      -1.885  -1.097  -3.339  0.00  0.00    +0.006 A 
ATOM     29  C   UNL     1      -3.104  -1.674  -3.639  0.00  0.00    +0.000 A 
ATOM     30  C   UNL     1      -4.122  -1.667  -2.704  0.00  0.00    +0.000 A 
ATOM     31  C   UNL     1      -3.919  -1.084  -1.467  0.00  0.00    +0.000 A 
ATOM     32  C   UNL     1      -2.698  -0.510  -1.165  0.00  0.00    +0.006 A 
ENDBRANCH  19  27
ENDBRANCH   1  22
TORSDOF 3
