REMARK  Name = ZINC01451729
REMARK  6 active torsions:
REMARK  status: ('A' for Active; 'I' for Inactive)
REMARK    1  A    between atoms: C_1  and  O_2
REMARK    2  A    between atoms: O_2  and  C_3
REMARK    3  A    between atoms: C_6  and  C_11
REMARK    4  A    between atoms: C_8  and  O_9
REMARK    5  A    between atoms: O_9  and  C_10
REMARK    6  A    between atoms: C_16  and  C_26
REMARK                            x       y       z     vdW  Elec       q    Type
REMARK                         _______ _______ _______ _____ _____    ______ ____
ROOT
ATOM      1  C   UNL     1      -5.339   4.976   1.598  0.00  0.00    +0.032 C 
ATOM      2  C   UNL     1      -3.880   5.095   1.159  0.00  0.00    +0.059 C 
ATOM      3  C   UNL     1      -3.325   3.718   0.834  0.00  0.00    +0.017 C 
ATOM      4  C   UNL     1      -3.747   2.638   1.512  0.00  0.00    +0.036 C 
ATOM      5  C   UNL     1      -3.261   1.222   1.315  0.00  0.00    +0.137 C 
ATOM      6  N   UNL     1      -2.457   1.023   0.128  0.00  0.00    -0.331 N 
ATOM      7  C   UNL     1      -1.216   1.645  -0.021  0.00  0.00    +0.049 A 
ATOM      8  C   UNL     1      -0.038   0.917  -0.027  0.00  0.00    +0.025 A 
ATOM      9  C   UNL     1       1.174   1.584  -0.068  0.00  0.00    +0.002 A 
ATOM     10  C   UNL     1       1.210   2.966  -0.102  0.00  0.00    +0.002 A 
ATOM     11  C   UNL     1       0.034   3.696  -0.117  0.00  0.00    +0.025 A 
ATOM     12  C   UNL     1      -1.179   3.030  -0.085  0.00  0.00    +0.052 A 
ATOM     13  N   UNL     1      -2.396   3.698  -0.155  0.00  0.00    -0.316 N 
ATOM     14  C   UNL     1      -4.740   2.768   2.511  0.00  0.00    +0.163 C 
ATOM     15  O   UNL     1      -5.088   1.777   3.123  0.00  0.00    -0.292 OA
ATOM     16  C   UNL     1      -5.379   4.083   2.844  0.00  0.00    +0.088 C 
ATOM     17  H   UNL     1      -2.786   0.448  -0.581  0.00  0.00    +0.147 HD
ATOM     18  H   UNL     1      -2.595   4.186  -0.969  0.00  0.00    +0.152 HD
ENDROOT
BRANCH   5  19
ATOM     19  C   UNL     1      -2.444   0.826   2.517  0.00  0.00    -0.001 A 
ATOM     20  C   UNL     1      -1.958   1.798   3.372  0.00  0.00    +0.056 A 
ATOM     21  C   UNL     1      -1.210   1.437   4.480  0.00  0.00    +0.167 A 
ATOM     22  C   UNL     1      -0.941   0.092   4.726  0.00  0.00    +0.168 A 
ATOM     23  C   UNL     1      -1.426  -0.877   3.864  0.00  0.00    +0.070 A 
ATOM     24  C   UNL     1      -2.176  -0.509   2.761  0.00  0.00    +0.050 A 
ATOM     25 CL   UNL     1      -2.783  -1.726   1.681  0.00  0.00    -0.083 Cl
ATOM     26  O   UNL     1      -0.191  -0.001   5.863  0.00  0.00    -0.453 OA
ATOM     27  C   UNL     1       0.340   1.319   6.083  0.00  0.00    +0.466 C 
ATOM     28  O   UNL     1      -0.629   2.185   5.463  0.00  0.00    -0.453 OA
ENDBRANCH   5  19
BRANCH   1  32
ATOM     29  C   UNL     1      -6.885   8.849   2.546  0.00  0.00    +0.161 A 
ATOM     30  C   UNL     1      -5.797   8.345   3.240  0.00  0.00    +0.049 A 
ATOM     31  C   UNL     1      -5.299   7.093   2.932  0.00  0.00    +0.008 A 
ATOM     32  C   UNL     1      -5.885   6.340   1.931  0.00  0.00    -0.040 A 
ATOM     33  C   UNL     1      -6.968   6.839   1.230  0.00  0.00    +0.053 A 
ATOM     34  C   UNL     1      -7.474   8.092   1.538  0.00  0.00    +0.162 A 
BRANCH  29  36
ATOM     35  C   UNL     1      -6.720  10.802   3.893  0.00  0.00    +0.277 C 
ATOM     36  O   UNL     1      -7.375  10.081   2.848  0.00  0.00    -0.491 OA
ENDBRANCH  29  36
BRANCH  34  37
ATOM     37  O   UNL     1      -8.542   8.582   0.853  0.00  0.00    -0.491 OA
ATOM     38  C   UNL     1      -9.096   7.749  -0.168  0.00  0.00    +0.277 C 
ENDBRANCH  34  37
ENDBRANCH   1  32
TORSDOF 4
