REMARK  Name = ZINC12152031
REMARK  7 active torsions:
REMARK  status: ('A' for Active; 'I' for Inactive)
REMARK    1  A    between atoms: C_1  and  N_68
REMARK    2  A    between atoms: C_6  and  C_8
REMARK    3  A    between atoms: C_13  and  C_16
REMARK    4  A    between atoms: C_16  and  C_30
REMARK    5  A    between atoms: N_19  and  C_23
REMARK    6  A    between atoms: C_23  and  C_24
REMARK    7  A    between atoms: C_24  and  C_25
REMARK                            x       y       z     vdW  Elec       q    Type
REMARK                         _______ _______ _______ _____ _____    ______ ____
ROOT
ATOM      1  C   UNL     1      -1.235   2.107   0.018  0.00  0.00    +0.142 C 
ATOM      2  C   UNL     1      -0.014   1.208   0.009  0.00  0.00    +0.251 C 
ATOM      3  O   UNL     1       0.002  -0.004   0.002  0.00  0.00    -0.272 OA
ATOM      4  N   UNL     1       1.048   2.037   0.003  0.00  0.00    -0.224 N 
ATOM      5  C   UNL     1       0.673   3.321   0.013  0.00  0.00    +0.310 C 
ATOM      6  O   UNL     1       1.453   4.253   0.010  0.00  0.00    -0.252 OA
ATOM      7  N   UNL     1      -0.664   3.465   0.026  0.00  0.00    -0.281 N 
ATOM      8  H   UNL     1      -1.157   4.301   0.035  0.00  0.00    +0.152 HD
ENDROOT
BRANCH   1  14
ATOM      9  C   UNL     1      -3.632   3.490   4.715  0.00  0.00    +0.202 C 
ATOM     10  O   UNL     1      -2.920   3.589   5.692  0.00  0.00    -0.277 OA
ATOM     11  N   UNL     1      -3.282   2.666   3.707  0.00  0.00    -0.303 N 
ATOM     12  C   UNL     1      -2.041   1.883   3.777  0.00  0.00    +0.108 C 
ATOM     13  C   UNL     1      -1.214   2.155   2.517  0.00  0.00    +0.025 C 
ATOM     14  C   UNL     1      -2.068   1.870   1.279  0.00  0.00    +0.029 C 
ATOM     15  C   UNL     1      -3.283   2.801   1.271  0.00  0.00    +0.025 C 
ATOM     16  C   UNL     1      -4.133   2.536   2.517  0.00  0.00    +0.108 C 
BRANCH   9  22
ATOM     17  C   UNL     1      -3.634   6.225   5.321  0.00  0.00    -0.095 C 
ATOM     18  C   UNL     1      -6.050   6.249   5.474  0.00  0.00    -0.078 C 
ATOM     19  C   UNL     1      -7.270   5.414   5.869  0.00  0.00    -0.019 C 
ATOM     20  C   UNL     1      -7.385   4.212   4.927  0.00  0.00    -0.003 C 
ATOM     21  C   UNL     1      -6.094   3.393   4.997  0.00  0.00    -0.006 C 
ATOM     22  C   UNL     1      -4.908   4.287   4.628  0.00  0.00    +0.019 C 
ATOM     23  N   UNL     1      -4.838   5.411   5.586  0.00  0.00    +0.385 N 
ATOM     24  H   UNL     1      -4.781   5.033   6.539  0.00  0.00    -0.081 HD
ENDBRANCH   9  22
ENDBRANCH   1  14
BRANCH   1  25
ATOM     25  C   UNL     1      -2.067   1.885  -1.218  0.00  0.00    +0.003 A 
ATOM     26  C   UNL     1      -1.828   2.625  -2.367  0.00  0.00    +0.009 A 
ATOM     27  C   UNL     1      -2.615   2.384  -3.482  0.00  0.00    +0.020 A 
ATOM     28  C   UNL     1      -3.611   1.428  -3.410  0.00  0.00    +0.111 A 
ATOM     29  N   UNL     1      -3.813   0.747  -2.299  0.00  0.00    -0.263 NA
ATOM     30  C   UNL     1      -3.081   0.947  -1.220  0.00  0.00    +0.117 A 
ENDBRANCH   1  25
BRANCH   4  31
ATOM     31  C   UNL     1       2.443   1.587  -0.011  0.00  0.00    +0.123 C 
BRANCH  31  32
ATOM     32  C   UNL     1       2.915   1.437  -1.459  0.00  0.00    +0.062 C 
BRANCH  32  33
ATOM     33  C   UNL     1       4.349   0.974  -1.473  0.00  0.00    -0.009 A 
ATOM     34  C   UNL     1       4.838  -0.290  -1.483  0.00  0.00    +0.011 A 
ATOM     35  C   UNL     1       6.207  -0.480  -1.497  0.00  0.00    +0.008 A 
ATOM     36  C   UNL     1       7.021   0.605  -1.500  0.00  0.00    +0.045 A 
ATOM     37  S   UNL     1       5.845   1.948  -1.490  0.00  0.00    -0.102 S 
ENDBRANCH  32  33
ENDBRANCH  31  32
ENDBRANCH   4  31
TORSDOF 6
