REMARK  Name = ZINC01033159
REMARK  6 active torsions:
REMARK  status: ('A' for Active; 'I' for Inactive)
REMARK    1  A    between atoms: C_1  and  C_2
REMARK    2  A    between atoms: C_5  and  S_8
REMARK    3  A    between atoms: S_8  and  N_11
REMARK    4  A    between atoms: N_11  and  N_12
REMARK    5  A    between atoms: C_13  and  C_24
REMARK    6  A    between atoms: C_29  and  O_30
REMARK                            x       y       z     vdW  Elec       q    Type
REMARK                         _______ _______ _______ _____ _____    ______ ____
ROOT
ATOM      1  N   UNL     1       2.386   4.181   0.269  0.00  0.00    -0.189 N 
ATOM      2  C   UNL     1       3.586   3.432   0.640  0.00  0.00    +0.214 C 
ATOM      3  N   UNL     1       3.583   2.114  -0.009  0.00  0.00    -0.320 N 
ATOM      4  C   UNL     1       2.405   1.377  -0.009  0.00  0.00    +0.041 A 
ATOM      5  C   UNL     1       2.406  -0.007  -0.018  0.00  0.00    +0.024 A 
ATOM      6  C   UNL     1       1.206  -0.692  -0.013  0.00  0.00    +0.002 A 
ATOM      7  C   UNL     1       0.002  -0.004   0.002  0.00  0.00    +0.001 A 
ATOM      8  C   UNL     1      -0.017   1.375   0.010  0.00  0.00    +0.015 A 
ATOM      9  C   UNL     1       1.186   2.078   0.002  0.00  0.00    +0.059 A 
ATOM     10  C   UNL     1       1.223   3.552   0.000  0.00  0.00    +0.265 C 
ATOM     11  O   UNL     1       0.218   4.192  -0.241  0.00  0.00    -0.268 OA
ATOM     12  H   UNL     1       4.386   1.766  -0.427  0.00  0.00    +0.148 HD
ENDROOT
BRANCH   2  13
ATOM     13  C   UNL     1       3.616   3.251   2.136  0.00  0.00    +0.036 A 
ATOM     14  C   UNL     1       2.938   4.137   2.952  0.00  0.00    +0.030 A 
ATOM     15  C   UNL     1       2.965   3.973   4.325  0.00  0.00    +0.043 A 
ATOM     16  C   UNL     1       3.670   2.921   4.885  0.00  0.00    +0.043 A 
ATOM     17  C   UNL     1       4.349   2.033   4.072  0.00  0.00    +0.084 A 
ATOM     18  C   UNL     1       4.318   2.194   2.693  0.00  0.00    +0.142 A 
ATOM     19 CL   UNL     1       5.233   0.714   4.774  0.00  0.00    -0.080 Cl
ATOM     20 CL   UNL     1       2.113   5.087   5.349  0.00  0.00    -0.083 Cl
BRANCH  18  21
ATOM     21  O   UNL     1       4.980   1.318   1.891  0.00  0.00    -0.505 OA
ATOM     22  H   UNL     1       5.895   1.570   1.705  0.00  0.00    +0.292 HD
ENDBRANCH  18  21
ENDBRANCH   2  13
BRANCH   1  23
ATOM     23  N   UNL     1       2.445   5.579   0.193  0.00  0.00    -0.103 NA
ATOM     24  H   UNL     1       2.248   6.116   0.976  0.00  0.00    +0.172 HD
BRANCH  23  25
ATOM     25  S   UNL     1       2.849   6.314  -1.235  0.00  0.00    +0.074 S 
ATOM     26  O   UNL     1       2.682   7.711  -1.035  0.00  0.00    -0.152 OA
ATOM     27  O   UNL     1       4.084   5.746  -1.649  0.00  0.00    -0.152 OA
BRANCH  25  32
ATOM     28  C   UNL     1      -1.266   4.656  -5.324  0.00  0.00    +0.044 C 
ATOM     29  C   UNL     1      -0.238   5.070  -4.303  0.00  0.00    -0.050 A 
ATOM     30  C   UNL     1      -0.441   6.204  -3.539  0.00  0.00    +0.005 A 
ATOM     31  C   UNL     1       0.502   6.584  -2.602  0.00  0.00    +0.029 A 
ATOM     32  C   UNL     1       1.647   5.830  -2.429  0.00  0.00    +0.107 A 
ATOM     33  C   UNL     1       1.852   4.698  -3.196  0.00  0.00    +0.029 A 
ATOM     34  C   UNL     1       0.907   4.315  -4.130  0.00  0.00    +0.005 A 
ENDBRANCH  25  32
ENDBRANCH  23  25
ENDBRANCH   1  23
TORSDOF 5
