REMARK  Name = ZINC12497107
REMARK  6 active torsions:
REMARK  status: ('A' for Active; 'I' for Inactive)
REMARK    1  A    between atoms: C_1  and  O_2
REMARK    2  A    between atoms: O_2  and  C_3
REMARK    3  A    between atoms: C_3  and  C_5
REMARK    4  A    between atoms: C_5  and  C_28
REMARK    5  A    between atoms: C_10  and  C_12
REMARK    6  A    between atoms: N_19  and  C_22
REMARK                            x       y       z     vdW  Elec       q    Type
REMARK                         _______ _______ _______ _____ _____    ______ ____
ROOT
ATOM      1  C   UNL     1      -1.244  -2.135   0.003  0.00  0.00    +0.070 C 
ATOM      2  C   UNL     1      -2.549  -2.567   0.649  0.00  0.00    +0.090 C 
ATOM      3  C   UNL     1      -2.094  -3.984   1.170  0.00  0.00    +0.078 C 
ATOM      4  C   UNL     1      -0.813  -3.671   1.825  0.00  0.00    -0.019 C 
ATOM      5  C   UNL     1      -3.361  -4.614   1.448  0.00  0.00    +0.229 C 
ATOM      6  O   UNL     1      -3.613  -5.408   2.329  0.00  0.00    -0.275 OA
ATOM      7  N   UNL     1      -4.221  -4.121   0.497  0.00  0.00    -0.210 N 
ATOM      8  C   UNL     1      -3.708  -3.043  -0.170  0.00  0.00    +0.229 C 
ATOM      9  O   UNL     1      -4.109  -2.571  -1.211  0.00  0.00    -0.275 OA
ATOM     10  N   UNL     1      -0.175  -2.746   0.837  0.00  0.00    +0.398 N 
ATOM     11  H   UNL     1       0.339  -2.009   1.334  0.00  0.00    -0.083 HD
ATOM     12  H   UNL     1       0.473  -3.272   0.239  0.00  0.00    -0.083 HD
ENDROOT
BRANCH   7  13
ATOM     13  C   UNL     1      -5.487  -4.663   0.239  0.00  0.00    +0.044 A 
ATOM     14  C   UNL     1      -6.299  -4.101  -0.737  0.00  0.00    +0.024 A 
ATOM     15  C   UNL     1      -7.544  -4.641  -0.993  0.00  0.00    +0.002 A 
ATOM     16  C   UNL     1      -7.987  -5.734  -0.270  0.00  0.00    +0.000 A 
ATOM     17  C   UNL     1      -7.183  -6.293   0.706  0.00  0.00    +0.002 A 
ATOM     18  C   UNL     1      -5.935  -5.761   0.963  0.00  0.00    +0.024 A 
ENDBRANCH   7  13
BRANCH   1  19
ATOM     19  C   UNL     1      -1.165  -2.652  -1.411  0.00  0.00    -0.047 A 
ATOM     20  C   UNL     1      -0.499  -3.834  -1.679  0.00  0.00    +0.003 A 
ATOM     21  C   UNL     1      -0.431  -4.310  -2.975  0.00  0.00    +0.000 A 
ATOM     22  C   UNL     1      -1.020  -3.600  -4.004  0.00  0.00    +0.000 A 
ATOM     23  C   UNL     1      -1.681  -2.416  -3.737  0.00  0.00    +0.000 A 
ATOM     24  C   UNL     1      -1.754  -1.942  -2.440  0.00  0.00    +0.003 A 
ENDBRANCH   1  19
BRANCH   4  25
ATOM     25  C   UNL     1       0.012  -4.918   2.013  0.00  0.00    -0.023 A 
ATOM     26  C   UNL     1       0.255  -5.618   3.147  0.00  0.00    +0.009 A 
ATOM     27  C   UNL     1       1.051  -6.747   3.081  0.00  0.00    +0.008 A 
ATOM     28  C   UNL     1       1.564  -7.120   1.883  0.00  0.00    +0.045 A 
ATOM     29  S   UNL     1       0.915  -5.862   0.796  0.00  0.00    -0.103 S 
ENDBRANCH   4  25
BRANCH   1  30
ATOM     30  C   UNL     1      -1.128  -0.633   0.014  0.00  0.00    +0.301 C 
ATOM     31  O   UNL     1      -2.125   0.050   0.015  0.00  0.00    -0.252 OA
BRANCH  30  33
ATOM     32  C   UNL     1       0.118   1.398   0.036  0.00  0.00    +0.280 C 
ATOM     33  O   UNL     1       0.083  -0.053   0.025  0.00  0.00    -0.469 OA
ENDBRANCH  30  33
ENDBRANCH   1  30
TORSDOF 5
