REMARK  Name = ZINC16658101
REMARK  11 active torsions:
REMARK  status: ('A' for Active; 'I' for Inactive)
REMARK    1  A    between atoms: C_1  and  O_2
REMARK    2  A    between atoms: O_2  and  C_3
REMARK    3  A    between atoms: C_6  and  C_9
REMARK    4  A    between atoms: C_9  and  S_10
REMARK    5  A    between atoms: S_10  and  C_11
REMARK    6  A    between atoms: C_14  and  S_16
REMARK    7  A    between atoms: S_16  and  C_17
REMARK    8  A    between atoms: C_17  and  C_18
REMARK    9  A    between atoms: N_24  and  C_25
REMARK   10  A    between atoms: C_30  and  O_31
REMARK   11  A    between atoms: O_31  and  C_32
REMARK                            x       y       z     vdW  Elec       q    Type
REMARK                         _______ _______ _______ _____ _____    ______ ____
ROOT
ATOM      1  C   UNL     1      -0.293   8.531   0.049  0.00  0.00    +0.146 A 
ATOM      2  N   UNL     1      -0.130   9.165   1.197  0.00  0.00    -0.199 NA
ATOM      3  C   UNL     1       0.185  10.458   1.206  0.00  0.00    +0.217 A 
ATOM      4  N   UNL     1       0.326  11.114   0.058  0.00  0.00    -0.181 NA
ATOM      5  C   UNL     1       0.156  10.474  -1.093  0.00  0.00    +0.224 A 
ATOM      6  N   UNL     1      -0.154   9.179  -1.094  0.00  0.00    -0.198 NA
ATOM      7  N   UNL     1       0.301  11.150  -2.288  0.00  0.00    -0.281 N 
ATOM      8  N   UNL     1       0.360  11.119   2.405  0.00  0.00    -0.327 N 
ATOM      9  H   UNL     1       0.263  10.666  -3.128  0.00  0.00    +0.155 HD
ATOM     10  H   UNL     1       0.586  12.062   2.410  0.00  0.00    +0.145 HD
ATOM     11  H   UNL     1       0.257  10.640   3.242  0.00  0.00    +0.145 HD
ENDROOT
BRANCH   7  12
ATOM     12  C   UNL     1       0.505  12.536  -2.288  0.00  0.00    +0.076 A 
ATOM     13  C   UNL     1       0.068  13.303  -1.218  0.00  0.00    +0.027 A 
ATOM     14  C   UNL     1       0.274  14.670  -1.218  0.00  0.00    +0.002 A 
ATOM     15  C   UNL     1       0.907  15.277  -2.288  0.00  0.00    +0.004 A 
ATOM     16  C   UNL     1       1.342  14.519  -3.360  0.00  0.00    +0.047 A 
ATOM     17  C   UNL     1       1.143  13.148  -3.365  0.00  0.00    +0.141 A 
BRANCH  17  18
ATOM     18  O   UNL     1       1.569  12.402  -4.419  0.00  0.00    -0.493 OA
ATOM     19  C   UNL     1       2.215  13.097  -5.487  0.00  0.00    +0.277 C 
ENDBRANCH  17  18
ENDBRANCH   7  12
BRANCH   1  20
ATOM     20  C   UNL     1      -0.645   7.065   0.044  0.00  0.00    +0.152 C 
BRANCH  20  21
ATOM     21  S   UNL     1       0.877   6.078   0.018  0.00  0.00    -0.089 S 
BRANCH  21  25
ATOM     22  C   UNL     1      -0.138   1.760   0.003  0.00  0.00    +0.160 A 
ATOM     23  N   UNL     1      -1.159   2.596   0.017  0.00  0.00    -0.134 NA
ATOM     24  N   UNL     1      -0.932   3.953   0.028  0.00  0.00    -0.134 NA
ATOM     25  C   UNL     1       0.305   4.412   0.014  0.00  0.00    +0.160 A 
ATOM     26  S   UNL     1       1.244   2.893  -0.008  0.00  0.00    -0.033 S 
BRANCH  22  27
ATOM     27  S   UNL     1      -0.138  -0.002  -0.009  0.00  0.00    -0.092 S 
BRANCH  27  28
ATOM     28  C   UNL     1      -1.898  -0.441   0.012  0.00  0.00    +0.111 C 
BRANCH  28  32
ATOM     29  C   UNL     1      -2.304  -4.695  -0.010  0.00  0.00    +0.120 A 
ATOM     30  C   UNL     1      -2.222  -4.011   1.194  0.00  0.00    +0.046 A 
ATOM     31  C   UNL     1      -2.090  -2.636   1.199  0.00  0.00    +0.008 A 
ATOM     32  C   UNL     1      -2.041  -1.941   0.004  0.00  0.00    -0.037 A 
ATOM     33  C   UNL     1      -2.129  -2.620  -1.197  0.00  0.00    +0.008 A 
ATOM     34  C   UNL     1      -2.255  -3.995  -1.207  0.00  0.00    +0.046 A 
BRANCH  29  36
ATOM     35  C   UNL     1      -2.512  -6.685  -1.294  0.00  0.00    +0.277 C 
ATOM     36  O   UNL     1      -2.433  -6.048  -0.018  0.00  0.00    -0.495 OA
ENDBRANCH  29  36
ENDBRANCH  28  32
ENDBRANCH  27  28
ENDBRANCH  22  27
ENDBRANCH  21  25
ENDBRANCH  20  21
ENDBRANCH   1  20
TORSDOF 9
