REMARK  Name = ZINC12877906
REMARK  11 active torsions:
REMARK  status: ('A' for Active; 'I' for Inactive)
REMARK    1  A    between atoms: C_1  and  C_2
REMARK    2  A    between atoms: C_17  and  C_35
REMARK    3  A    between atoms: C_19  and  O_33
REMARK    4  A    between atoms: C_22  and  C_32
REMARK    5  A    between atoms: C_23  and  C_24
REMARK    6  A    between atoms: C_23  and  O_31
REMARK    7  A    between atoms: C_24  and  C_26
REMARK    8  A    between atoms: C_26  and  O_27
REMARK    9  A    between atoms: O_27  and  C_28
REMARK   10  A    between atoms: C_28  and  C_30
REMARK   11  A    between atoms: C_30  and  N_64
REMARK                            x       y       z     vdW  Elec       q    Type
REMARK                         _______ _______ _______ _____ _____    ______ ____
ROOT
ATOM      1  C   UNL     1       3.907   0.309  -3.803  0.00  0.00    +0.011 C 
ATOM      2  C   UNL     1       3.396   1.668  -3.320  0.00  0.00    +0.026 C 
ATOM      3  C   UNL     1       3.327   1.692  -1.768  0.00  0.00    +0.011 C 
ATOM      4  C   UNL     1       1.867   1.322  -1.484  0.00  0.00    +0.005 C 
ATOM      5  C   UNL     1       1.325   1.764  -0.137  0.00  0.00    +0.034 C 
ATOM      6  C   UNL     1       2.080   1.052   0.986  0.00  0.00    +0.011 C 
ATOM      7  C   UNL     1       1.558   1.531   2.344  0.00  0.00    +0.032 C 
ATOM      8  C   UNL     1       0.057   1.314   2.376  0.00  0.00    -0.053 C 
ATOM      9  C   UNL     1      -0.477   0.661   3.399  0.00  0.00    +0.051 C 
ATOM     10  C   UNL     1      -1.926   0.414   3.454  0.00  0.00    +0.179 C 
ATOM     11  O   UNL     1      -2.425  -0.151   4.410  0.00  0.00    -0.288 OA
ATOM     12  C   UNL     1      -2.760   0.866   2.328  0.00  0.00    +0.047 C 
ATOM     13  C   UNL     1      -2.207   1.522   1.320  0.00  0.00    -0.009 C 
ATOM     14  C   UNL     1      -0.757   1.857   1.238  0.00  0.00    +0.044 C 
ATOM     15  C   UNL     1      -0.161   1.374  -0.087  0.00  0.00    +0.153 C 
ATOM     16  C   UNL     1      -0.950   2.004  -1.232  0.00  0.00    +0.154 C 
ATOM     17  C   UNL     1      -0.313   1.639  -2.603  0.00  0.00    +0.044 C 
ATOM     18  C   UNL     1       1.118   2.141  -2.570  0.00  0.00    +0.010 C 
ATOM     19  C   UNL     1       1.951   1.903  -3.826  0.00  0.00    +0.135 C 
ATOM     20  C   UNL     1       1.141   3.627  -2.207  0.00  0.00    +0.015 C 
ATOM     21  F   UNL     1      -0.275  -0.018  -0.162  0.00  0.00    -0.238 F 
ATOM     22  C   UNL     1      -0.645   3.383   1.270  0.00  0.00    +0.023 C 
ENDROOT
BRANCH  19  23
ATOM     23  C   UNL     1       1.900   3.113  -4.723  0.00  0.00    +0.202 C 
ATOM     24  O   UNL     1       2.759   3.959  -4.645  0.00  0.00    -0.291 OA
BRANCH  23  25
ATOM     25  C   UNL     1       0.778   3.267  -5.717  0.00  0.00    +0.309 C 
BRANCH  25  26
ATOM     26  O   UNL     1       0.953   4.505  -6.456  0.00  0.00    -0.458 OA
BRANCH  26  27
ATOM     27  C   UNL     1       0.031   4.794  -7.387  0.00  0.00    +0.290 C 
ATOM     28  O   UNL     1      -0.892   4.037  -7.579  0.00  0.00    -0.253 OA
BRANCH  27  29
ATOM     29  C   UNL     1       0.146   6.061  -8.194  0.00  0.00    +0.036 C 
BRANCH  29  32
ATOM     30  H   UNL     1      -1.860   6.086  -8.655  0.00  0.00    -0.089 HD
ATOM     31  H   UNL     1      -0.921   6.987  -9.692  0.00  0.00    -0.089 HD
ATOM     32  N   UNL     1      -0.972   6.124  -9.152  0.00  0.00    +0.385 N 
ATOM     33  H   UNL     1      -0.912   5.324  -9.793  0.00  0.00    -0.089 HD
ENDBRANCH  29  32
ENDBRANCH  27  29
ENDBRANCH  26  27
ENDBRANCH  25  26
ENDBRANCH  23  25
ENDBRANCH  19  23
BRANCH  19  34
ATOM     34  O   UNL     1       1.477   0.750  -4.524  0.00  0.00    -0.380 OA
ATOM     35  H   UNL     1       1.969   0.549  -5.331  0.00  0.00    +0.211 HD
ENDBRANCH  19  34
BRANCH  16  36
ATOM     36  O   UNL     1      -0.957   3.423  -1.067  0.00  0.00    -0.389 OA
ATOM     37  H   UNL     1      -1.440   3.897  -1.758  0.00  0.00    +0.210 HD
ENDBRANCH  16  36
TORSDOF 8
