REMARK  Name = ZINC52094588
REMARK  6 active torsions:
REMARK  status: ('A' for Active; 'I' for Inactive)
REMARK    1  A    between atoms: C_1  and  C_2
REMARK    2  A    between atoms: C_2  and  N_3
REMARK    3  A    between atoms: N_3  and  C_4
REMARK    4  A    between atoms: C_4  and  C_6
REMARK    5  A    between atoms: C_4  and  C_19
REMARK    6  A    between atoms: C_20  and  C_24
REMARK                            x       y       z     vdW  Elec       q    Type
REMARK                         _______ _______ _______ _____ _____    ______ ____
ROOT
ATOM      1  C   UNL     1      -2.300  -3.060  -0.513  0.00  0.00    -0.038 A 
ATOM      2  C   UNL     1      -3.646  -2.987  -0.211  0.00  0.00    +0.031 A 
ATOM      3  C   UNL     1      -4.512  -3.962  -0.681  0.00  0.00    +0.067 A 
ATOM      4  C   UNL     1      -4.021  -5.014  -1.457  0.00  0.00    +0.068 A 
ATOM      5  C   UNL     1      -2.669  -5.080  -1.755  0.00  0.00    +0.043 A 
ATOM      6  C   UNL     1      -1.813  -4.100  -1.288  0.00  0.00    +0.022 A 
ATOM      7 BR   UNL     1       0.030  -4.185  -1.701  0.00  0.00    -0.050 Br
ATOM      8  N   UNL     1      -5.111  -5.821  -1.776  0.00  0.00    -0.306 N 
ATOM      9  H   UNL     1      -5.080  -6.632  -2.308  0.00  0.00    +0.170 HD
ATOM     10  C   UNL     1      -6.213  -5.285  -1.219  0.00  0.00    +0.325 A 
ATOM     11  O   UNL     1      -7.336  -5.746  -1.305  0.00  0.00    -0.247 OA
ATOM     12  N   UNL     1      -5.885  -4.163  -0.552  0.00  0.00    -0.306 N 
ATOM     13  H   UNL     1      -6.499  -3.592  -0.065  0.00  0.00    +0.170 HD
ENDROOT
BRANCH   1  14
ATOM     14  C   UNL     1      -1.357  -2.001  -0.003  0.00  0.00    +0.028 C 
BRANCH  14  15
ATOM     15  C   UNL     1      -0.749  -2.454   1.299  0.00  0.00    +0.098 A 
ATOM     16  C   UNL     1       0.566  -2.595   1.546  0.00  0.00    -0.011 A 
ATOM     17  C   UNL     1       0.686  -3.038   2.883  0.00  0.00    +0.044 A 
ATOM     18  C   UNL     1      -0.562  -3.141   3.373  0.00  0.00    +0.195 A 
ATOM     19  O   UNL     1      -1.427  -2.781   2.411  0.00  0.00    -0.469 OA
ATOM     20  C   UNL     1       1.694  -2.332   0.582  0.00  0.00    +0.047 C 
ENDBRANCH  14  15
BRANCH  14  21
ATOM     21  N   UNL     1      -2.097  -0.750   0.212  0.00  0.00    +0.388 N 
ATOM     22  H   UNL     1      -2.775  -0.882   0.948  0.00  0.00    -0.084 HD
ATOM     23  H   UNL     1      -2.572  -0.490  -0.639  0.00  0.00    -0.084 HD
BRANCH  21  25
ATOM     24  C   UNL     1      -1.930   1.617   0.818  0.00  0.00    -0.017 C 
ATOM     25  C   UNL     1      -1.160   0.315   0.594  0.00  0.00    -0.085 C 
ENDBRANCH  21  25
ENDBRANCH  14  21
ENDBRANCH   1  14
TORSDOF 4
