REMARK  Name = ZINC04140473
REMARK  6 active torsions:
REMARK  status: ('A' for Active; 'I' for Inactive)
REMARK    1  A    between atoms: C_1  and  C_2
REMARK    2  A    between atoms: C_2  and  C_4
REMARK    3  A    between atoms: C_17  and  C_20
REMARK    4  A    between atoms: C_23  and  O_29
REMARK    5  A    between atoms: C_24  and  N_26
REMARK    6  A    between atoms: O_29  and  C_30
REMARK                            x       y       z     vdW  Elec       q    Type
REMARK                         _______ _______ _______ _____ _____    ______ ____
ROOT
ATOM      1  C   UNL     1      -1.232   3.136   0.030  0.00  0.00    +0.017 A 
ATOM      2  C   UNL     1      -1.206   1.736   0.017  0.00  0.00    +0.013 A 
ATOM      3  C   UNL     1      -0.013   1.076   0.008  0.00  0.00    +0.024 A 
ATOM      4  C   UNL     1       1.189   1.783   0.000  0.00  0.00    +0.031 A 
ATOM      5  C   UNL     1       1.164   3.187   0.018  0.00  0.00    -0.019 A 
ATOM      6  C   UNL     1      -0.026   3.851   0.028  0.00  0.00    +0.017 A 
ATOM      7  C   UNL     1       2.463   3.892   0.036  0.00  0.00    +0.049 C 
ATOM      8  C   UNL     1       2.620   5.270  -0.494  0.00  0.00    -0.023 C 
ATOM      9  C   UNL     1       3.851   5.403  -0.973  0.00  0.00    -0.030 C 
ATOM     10  C   UNL     1       4.614   4.085  -0.826  0.00  0.00    +0.033 C 
ATOM     11  C   UNL     1       3.469   3.064  -0.819  0.00  0.00    +0.029 C 
ATOM     12  C   UNL     1       3.675   1.767  -0.057  0.00  0.00    +0.105 C 
ATOM     13  N   UNL     1       2.389   1.078  -0.047  0.00  0.00    -0.336 N 
ATOM     14  H   UNL     1       2.370   0.109  -0.082  0.00  0.00    +0.147 HD
ENDROOT
BRANCH  12  15
ATOM     15  C   UNL     1       4.717   0.921  -0.743  0.00  0.00    -0.025 A 
ATOM     16  C   UNL     1       4.374   0.166  -1.849  0.00  0.00    +0.009 A 
ATOM     17  C   UNL     1       5.327  -0.610  -2.479  0.00  0.00    +0.048 A 
ATOM     18  C   UNL     1       6.630  -0.632  -2.000  0.00  0.00    +0.150 A 
ATOM     19  C   UNL     1       6.971   0.126  -0.890  0.00  0.00    +0.168 A 
ATOM     20  C   UNL     1       6.015   0.906  -0.267  0.00  0.00    +0.042 A 
BRANCH  19  21
ATOM     21  N   UNL     1       8.359   0.106  -0.377  0.00  0.00    +0.060 N 
ATOM     22  O   UNL     1       8.658   0.772   0.598  0.00  0.00    -0.126 OA
ATOM     23  O   UNL     1       9.202  -0.577  -0.930  0.00  0.00    -0.126 OA
ENDBRANCH  19  21
BRANCH  18  24
ATOM     24  O   UNL     1       7.569  -1.395  -2.618  0.00  0.00    -0.493 OA
ATOM     25  C   UNL     1       7.146  -2.151  -3.755  0.00  0.00    +0.277 C 
ENDBRANCH  18  24
ENDBRANCH  12  15
BRANCH   1  27
ATOM     26  C   UNL     1      -3.807   3.079   0.042  0.00  0.00    +0.091 C 
ATOM     27  C   UNL     1      -2.513   3.851   0.040  0.00  0.00    +0.160 C 
ATOM     28  O   UNL     1      -2.531   5.064   0.045  0.00  0.00    -0.292 OA
ENDBRANCH   1  27
TORSDOF 4
