REMARK  Name = ZINC58536685
REMARK  5 active torsions:
REMARK  status: ('A' for Active; 'I' for Inactive)
REMARK    1  A    between atoms: C_1  and  N_2
REMARK    2  A    between atoms: N_2  and  C_3
REMARK    3  A    between atoms: C_6  and  C_11
REMARK    4  A    between atoms: C_11  and  C_19
REMARK    5  A    between atoms: C_12  and  C_13
REMARK                            x       y       z     vdW  Elec       q    Type
REMARK                         _______ _______ _______ _____ _____    ______ ____
ROOT
ATOM      1  C   UNL     1       0.025   1.436   0.065  0.00  0.00    +0.132 C 
ATOM      2  N   UNL     1       0.043  -0.029   0.042  0.00  0.00    -0.306 N 
ATOM      3  C   UNL     1       0.086  -0.781   1.298  0.00  0.00    +0.132 C 
ATOM      4  C   UNL     1       0.021  -0.700  -1.164  0.00  0.00    +0.222 A 
ATOM      5  N   UNL     1       0.033  -2.028  -1.185  0.00  0.00    -0.194 NA
ATOM      6  C   UNL     1       0.012  -2.676  -2.349  0.00  0.00    +0.177 A 
ATOM      7  N   UNL     1      -0.021  -1.990  -3.491  0.00  0.00    -0.194 NA
ATOM      8  C   UNL     1      -0.033  -0.661  -3.467  0.00  0.00    +0.217 A 
ATOM      9  N   UNL     1      -0.017  -0.017  -2.304  0.00  0.00    -0.181 NA
ATOM     10  N   UNL     1      -0.066   0.050  -4.649  0.00  0.00    -0.327 N 
ATOM     11  H   UNL     1      -0.155  -0.418  -5.495  0.00  0.00    +0.145 HD
ATOM     12  H   UNL     1      -0.001   1.018  -4.635  0.00  0.00    +0.145 HD
ENDROOT
BRANCH   6  13
ATOM     13  C   UNL     1       0.025  -4.152  -2.374  0.00  0.00    +0.097 C 
ATOM     14  C   UNL     1      -1.159  -4.856  -2.261  0.00  0.00    +0.037 C 
BRANCH  14  15
ATOM     15  C   UNL     1      -2.388  -4.168  -2.247  0.00  0.00    +0.015 A 
ATOM     16  C   UNL     1      -3.683  -4.684  -2.233  0.00  0.00    +0.017 A 
ATOM     17  C   UNL     1      -4.692  -3.754  -2.220  0.00  0.00    +0.028 A 
ATOM     18  C   UNL     1      -4.373  -2.433  -2.220  0.00  0.00    +0.079 A 
ATOM     19  S   UNL     1      -2.693  -2.412  -2.232  0.00  0.00    -0.077 S 
ATOM     20 CL   UNL     1      -5.455  -1.075  -2.206  0.00  0.00    -0.076 Cl
ENDBRANCH  14  15
BRANCH  13  21
ATOM     21  C   UNL     1       1.265  -4.854  -2.515  0.00  0.00    +0.103 C 
ATOM     22  N   UNL     1       2.249  -5.412  -2.627  0.00  0.00    -0.191 NA
ENDBRANCH  13  21
ENDBRANCH   6  13
TORSDOF 3
