REMARK  Name = ZINC41350342
REMARK  8 active torsions:
REMARK  status: ('A' for Active; 'I' for Inactive)
REMARK    1  A    between atoms: C_1  and  C_2
REMARK    2  A    between atoms: C_2  and  C_4
REMARK    3  A    between atoms: C_2  and  O_26
REMARK    4  A    between atoms: C_11  and  O_12
REMARK    5  A    between atoms: C_14  and  C_18
REMARK    6  A    between atoms: C_23  and  O_24
REMARK    7  A    between atoms: O_24  and  C_25
REMARK    8  A    between atoms: O_26  and  C_27
REMARK                            x       y       z     vdW  Elec       q    Type
REMARK                         _______ _______ _______ _____ _____    ______ ____
ROOT
ATOM      1  C   UNL     1       0.771  -0.632  -1.178  0.00  0.00    +0.258 C 
ATOM      2  O   UNL     1       0.335  -1.593  -1.787  0.00  0.00    -0.271 OA
ATOM      3  N   UNL     1       1.978  -0.174  -1.446  0.00  0.00    -0.282 N 
ATOM      4  C   UNL     1       2.684  -0.686  -2.493  0.00  0.00    +0.037 A 
ATOM      5  C   UNL     1       2.021  -1.423  -3.489  0.00  0.00    +0.024 A 
ATOM      6  C   UNL     1       2.715  -1.938  -4.539  0.00  0.00    +0.017 A 
ATOM      7  C   UNL     1       4.101  -1.735  -4.630  0.00  0.00    +0.059 A 
ATOM      8  C   UNL     1       4.842  -2.264  -5.718  0.00  0.00    +0.131 A 
ATOM      9  C   UNL     1       6.215  -2.031  -5.758  0.00  0.00    +0.093 A 
ATOM     10  C   UNL     1       6.817  -1.300  -4.752  0.00  0.00    +0.143 A 
ATOM     11  O   UNL     1       6.108  -0.802  -3.727  0.00  0.00    -0.454 OA
ATOM     12  C   UNL     1       4.776  -0.996  -3.636  0.00  0.00    +0.141 A 
ATOM     13  C   UNL     1       4.060  -0.471  -2.574  0.00  0.00    +0.070 A 
ATOM     14  H   UNL     1       2.364   0.527  -0.898  0.00  0.00    +0.155 HD
ENDROOT
BRANCH  10  15
ATOM     15  C   UNL     1       8.269  -1.060  -4.806  0.00  0.00    +0.059 A 
ATOM     16  C   UNL     1       9.007  -1.458  -5.926  0.00  0.00    +0.015 A 
ATOM     17  C   UNL     1      10.365  -1.230  -5.970  0.00  0.00    +0.001 A 
ATOM     18  C   UNL     1      11.004  -0.610  -4.909  0.00  0.00    +0.004 A 
ATOM     19  C   UNL     1      10.289  -0.213  -3.796  0.00  0.00    +0.046 A 
ATOM     20  C   UNL     1       8.921  -0.428  -3.736  0.00  0.00    +0.131 A 
BRANCH  20  21
ATOM     21  O   UNL     1       8.216  -0.033  -2.647  0.00  0.00    -0.494 OA
ATOM     22  C   UNL     1       8.946   0.604  -1.597  0.00  0.00    +0.277 C 
ENDBRANCH  20  21
ENDBRANCH  10  15
BRANCH   1  24
ATOM     23  C   UNL     1      -0.409   1.458  -0.558  0.00  0.00    +0.062 C 
ATOM     24  C   UNL     1      -0.069   0.033  -0.118  0.00  0.00    +0.256 C 
BRANCH  24  25
ATOM     25  O   UNL     1      -1.276  -0.709   0.068  0.00  0.00    -0.474 OA
BRANCH  25  26
ATOM     26  C   UNL     1      -1.833  -0.680   1.309  0.00  0.00    +0.198 A 
ATOM     27  C   UNL     1      -1.471  -1.629   2.255  0.00  0.00    +0.206 A 
ATOM     28  C   UNL     1      -2.038  -1.599   3.518  0.00  0.00    +0.200 A 
ATOM     29  C   UNL     1      -2.967  -0.622   3.838  0.00  0.00    +0.199 A 
ATOM     30  C   UNL     1      -3.330   0.326   2.894  0.00  0.00    +0.200 A 
ATOM     31  C   UNL     1      -2.760   0.301   1.632  0.00  0.00    +0.206 A 
ATOM     32  F   UNL     1      -3.109   1.229   0.714  0.00  0.00    -0.198 F 
ATOM     33  F   UNL     1      -4.237   1.278   3.206  0.00  0.00    -0.199 F 
ATOM     34  F   UNL     1      -3.520  -0.593   5.070  0.00  0.00    -0.199 F 
ATOM     35  F   UNL     1      -1.686  -2.523   4.439  0.00  0.00    -0.199 F 
ATOM     36  F   UNL     1      -0.565  -2.582   1.944  0.00  0.00    -0.198 F 
ENDBRANCH  25  26
ENDBRANCH  24  25
ENDBRANCH   1  24
BRANCH   8  37
ATOM     37  O   UNL     1       4.231  -2.977  -6.690  0.00  0.00    -0.506 OA
ATOM     38  H   UNL     1       4.829  -3.290  -7.382  0.00  0.00    +0.292 HD
ENDBRANCH   8  37
TORSDOF 6
