REMARK  Name = ZINC21255986
REMARK  12 active torsions:
REMARK  status: ('A' for Active; 'I' for Inactive)
REMARK    1  A    between atoms: C_1  and  C_2
REMARK    2  A    between atoms: C_2  and  O_3
REMARK    3  A    between atoms: O_3  and  C_4
REMARK    4  A    between atoms: C_6  and  C_14
REMARK    5  A    between atoms: C_9  and  O_10
REMARK    6  A    between atoms: O_10  and  C_11
REMARK    7  A    between atoms: C_11  and  C_13
REMARK    8  A    between atoms: C_19  and  C_24
REMARK    9  A    between atoms: C_27  and  C_30
REMARK   10  A    between atoms: C_30  and  C_31
REMARK   11  A    between atoms: C_30  and  C_32
REMARK   12  A    between atoms: C_30  and  C_33
REMARK                            x       y       z     vdW  Elec       q    Type
REMARK                         _______ _______ _______ _____ _____    ______ ____
ROOT
ATOM      1  C   UNL     1       3.698   2.148   0.021  0.00  0.00    +0.136 C 
ATOM      2  C   UNL     1       4.125   2.360   1.454  0.00  0.00    +0.036 C 
ATOM      3  C   UNL     1       4.126   3.531   2.111  0.00  0.00    +0.017 C 
ATOM      4  C   UNL     1       4.547   3.593   3.570  0.00  0.00    +0.059 C 
ATOM      5  C   UNL     1       5.628   2.549   3.844  0.00  0.00    +0.032 C 
ATOM      6  C   UNL     1       5.039   1.171   3.520  0.00  0.00    +0.088 C 
ATOM      7  C   UNL     1       4.555   1.178   2.101  0.00  0.00    +0.163 C 
ATOM      8  O   UNL     1       4.532   0.131   1.485  0.00  0.00    -0.292 OA
ATOM      9  N   UNL     1       3.756   4.723   1.577  0.00  0.00    -0.316 N 
ATOM     10  C   UNL     1       2.604   4.931   0.826  0.00  0.00    +0.052 A 
ATOM     11  C   UNL     1       1.605   5.797   1.231  0.00  0.00    +0.025 A 
ATOM     12  C   UNL     1       0.535   6.043   0.387  0.00  0.00    +0.002 A 
ATOM     13  C   UNL     1       0.467   5.426  -0.850  0.00  0.00    +0.002 A 
ATOM     14  C   UNL     1       1.456   4.543  -1.248  0.00  0.00    +0.025 A 
ATOM     15  C   UNL     1       2.519   4.283  -0.398  0.00  0.00    +0.049 A 
ATOM     16  N   UNL     1       3.515   3.369  -0.736  0.00  0.00    -0.331 N 
ATOM     17  H   UNL     1       4.385   5.612   1.728  0.00  0.00    +0.152 HD
ATOM     18  H   UNL     1       4.167   3.587  -1.594  0.00  0.00    +0.147 HD
ENDROOT
BRANCH   1  21
ATOM     19  C   UNL     1       1.159  -0.599  -0.510  0.00  0.00    +0.163 A 
ATOM     20  C   UNL     1       2.353   0.105  -0.506  0.00  0.00    +0.055 A 
ATOM     21  C   UNL     1       2.399   1.384   0.017  0.00  0.00    -0.019 A 
ATOM     22  C   UNL     1       1.257   1.963   0.538  0.00  0.00    +0.009 A 
ATOM     23  C   UNL     1       0.063   1.266   0.538  0.00  0.00    +0.050 A 
ATOM     24  C   UNL     1       0.009  -0.016   0.014  0.00  0.00    +0.173 A 
BRANCH  19  25
ATOM     25  O   UNL     1       1.112  -1.857  -1.024  0.00  0.00    -0.489 OA
BRANCH  25  27
ATOM     26  C   UNL     1       2.082  -3.805  -2.075  0.00  0.00    +0.048 C 
ATOM     27  C   UNL     1       2.330  -2.391  -1.545  0.00  0.00    +0.226 C 
ENDBRANCH  25  27
ENDBRANCH  19  25
BRANCH  24  28
ATOM     28  O   UNL     1      -1.165  -0.703   0.013  0.00  0.00    -0.422 OA
BRANCH  28  29
ATOM     29  C   UNL     1      -1.345  -1.603   0.992  0.00  0.00    +0.309 C 
ATOM     30  O   UNL     1      -0.528  -1.706   1.876  0.00  0.00    -0.251 OA
ATOM     31  C   UNL     1      -2.566  -2.487   0.988  0.00  0.00    +0.136 C 
ENDBRANCH  28  29
ENDBRANCH  24  28
ENDBRANCH   1  21
BRANCH   5  32
ATOM     32  C   UNL     1       6.036   2.603   5.294  0.00  0.00    -0.043 A 
ATOM     33  C   UNL     1       5.098   2.380   6.284  0.00  0.00    +0.004 A 
ATOM     34  C   UNL     1       5.473   2.426   7.614  0.00  0.00    +0.004 A 
ATOM     35  C   UNL     1       6.784   2.705   7.953  0.00  0.00    -0.042 A 
ATOM     36  C   UNL     1       7.721   2.933   6.963  0.00  0.00    +0.004 A 
ATOM     37  C   UNL     1       7.346   2.883   5.633  0.00  0.00    +0.004 A 
BRANCH  35  38
ATOM     38  C   UNL     1       7.192   2.760   9.403  0.00  0.00    -0.013 C 
ATOM     39  C   UNL     1       7.740   4.151   9.726  0.00  0.00    +0.015 C 
ATOM     40  C   UNL     1       5.976   2.473  10.286  0.00  0.00    +0.015 C 
ATOM     41  C   UNL     1       8.274   1.711   9.668  0.00  0.00    +0.015 C 
ENDBRANCH  35  38
ENDBRANCH   5  32
TORSDOF 7
