REMARK  Name = ZINC14664686
REMARK  9 active torsions:
REMARK  status: ('A' for Active; 'I' for Inactive)
REMARK    1  A    between atoms: C_1  and  C_2
REMARK    2  A    between atoms: C_2  and  C_3
REMARK    3  A    between atoms: C_2  and  O_4
REMARK    4  A    between atoms: O_4  and  C_5
REMARK    5  A    between atoms: C_10  and  C_11
REMARK    6  A    between atoms: N_13  and  C_14
REMARK    7  A    between atoms: C_14  and  N_16
REMARK    8  A    between atoms: N_16  and  N_17
REMARK    9  A    between atoms: C_18  and  C_20
REMARK                            x       y       z     vdW  Elec       q    Type
REMARK                         _______ _______ _______ _____ _____    ______ ____
ROOT
ATOM      1  C   UNL     1       3.283   9.994  -0.180  0.00  0.00    +0.153 C 
ATOM      2  S   UNL     1       4.461  11.204  -0.454  0.00  0.00    -0.017 S 
ENDROOT
BRANCH   1   5
ATOM      3  C   UNL     1       1.643  11.640   0.043  0.00  0.00    +0.253 C 
ATOM      4  O   UNL     1       2.480  12.500  -0.152  0.00  0.00    -0.270 OA
ATOM      5  N   UNL     1       1.999  10.340   0.039  0.00  0.00    -0.263 N 
ATOM      6  H   UNL     1       1.331   9.654   0.195  0.00  0.00    +0.157 HD
BRANCH   3  12
ATOM      7  C   UNL     1      -0.136  13.371   0.287  0.00  0.00    +0.133 A 
ATOM      8  C   UNL     1      -1.460  13.716   0.514  0.00  0.00    +0.046 A 
ATOM      9  C   UNL     1      -2.404  12.732   0.735  0.00  0.00    +0.004 A 
ATOM     10  C   UNL     1      -2.038  11.396   0.731  0.00  0.00    +0.001 A 
ATOM     11  C   UNL     1      -0.728  11.034   0.501  0.00  0.00    +0.017 A 
ATOM     12  C   UNL     1       0.238  12.020   0.283  0.00  0.00    +0.079 A 
BRANCH   7  13
ATOM     13  O   UNL     1       0.792  14.336   0.070  0.00  0.00    -0.489 OA
BRANCH  13  15
ATOM     14  C   UNL     1       0.191  16.282   1.372  0.00  0.00    +0.051 C 
ATOM     15  C   UNL     1       0.319  15.680  -0.029  0.00  0.00    +0.167 C 
ATOM     16  C   UNL     1       1.307  16.509  -0.852  0.00  0.00    +0.051 C 
ENDBRANCH  13  15
ENDBRANCH   7  13
ENDBRANCH   3  12
ENDBRANCH   1   5
BRANCH   1  17
ATOM     17  N   UNL     1       3.638   8.694  -0.184  0.00  0.00    -0.245 N 
ATOM     18  H   UNL     1       4.562   8.444  -0.342  0.00  0.00    +0.172 HD
BRANCH  17  19
ATOM     19  N   UNL     1       2.674   7.703   0.041  0.00  0.00    -0.231 N 
ATOM     20  C   UNL     1       3.029   6.403   0.037  0.00  0.00    +0.268 C 
ATOM     21  O   UNL     1       4.188   6.090  -0.161  0.00  0.00    -0.268 OA
ATOM     22  H   UNL     1       1.750   7.952   0.199  0.00  0.00    +0.173 HD
BRANCH  20  23
ATOM     23  C   UNL     1       2.018   5.364   0.272  0.00  0.00    +0.095 A 
ATOM     24  C   UNL     1       2.182   4.014   0.306  0.00  0.00    +0.068 A 
ATOM     25  C   UNL     1       1.075   3.179   0.549  0.00  0.00    +0.008 A 
ATOM     26  C   UNL     1       1.042   1.763   0.623  0.00  0.00    +0.010 A 
ATOM     27  C   UNL     1      -0.121   1.107   0.868  0.00  0.00    +0.001 A 
ATOM     28  C   UNL     1      -1.318   1.789   1.050  0.00  0.00    +0.001 A 
ATOM     29  C   UNL     1      -1.331   3.167   0.991  0.00  0.00    +0.016 A 
ATOM     30  C   UNL     1      -0.157   3.848   0.743  0.00  0.00    +0.021 A 
ATOM     31  S   UNL     1       0.272   5.563   0.583  0.00  0.00    -0.082 S 
ATOM     32 CL   UNL     1       3.753   3.321   0.051  0.00  0.00    -0.082 Cl
ENDBRANCH  20  23
ENDBRANCH  17  19
ENDBRANCH   1  17
TORSDOF 7
