REMARK  Name = ZINC09086109
REMARK  9 active torsions:
REMARK  status: ('A' for Active; 'I' for Inactive)
REMARK    1  A    between atoms: C_1  and  C_2
REMARK    2  A    between atoms: C_2  and  C_3
REMARK    3  A    between atoms: C_5  and  C_22
REMARK    4  A    between atoms: C_6  and  O_21
REMARK    5  A    between atoms: C_8  and  O_9
REMARK    6  A    between atoms: O_9  and  C_10
REMARK    7  A    between atoms: C_10  and  C_11
REMARK    8  A    between atoms: C_23  and  C_28
REMARK    9  A    between atoms: C_30  and  C_33
REMARK                            x       y       z     vdW  Elec       q    Type
REMARK                         _______ _______ _______ _____ _____    ______ ____
ROOT
ATOM      1  C   UNL     1       1.108   0.128   0.698  0.00  0.00    -0.005 A 
ATOM      2  C   UNL     1       2.396  -0.360   0.775  0.00  0.00    +0.021 A 
ATOM      3  C   UNL     1       2.871  -0.885   1.975  0.00  0.00    +0.045 A 
ATOM      4  C   UNL     1       2.038  -0.916   3.099  0.00  0.00    +0.130 A 
ATOM      5  C   UNL     1       0.747  -0.425   3.012  0.00  0.00    +0.092 A 
ATOM      6  C   UNL     1       0.283   0.101   1.815  0.00  0.00    +0.128 A 
ENDROOT
BRANCH   3   7
ATOM      7  C   UNL     1       4.255  -1.409   2.061  0.00  0.00    +0.106 A 
ATOM      8  C   UNL     1       4.859  -2.419   1.189  0.00  0.00    +0.052 A 
ATOM      9  C   UNL     1       6.141  -2.597   1.627  0.00  0.00    +0.116 A 
ATOM     10  N   UNL     1       6.341  -1.781   2.678  0.00  0.00    -0.283 N 
ATOM     11  H   UNL     1       7.167  -1.706   3.180  0.00  0.00    +0.188 HD
ATOM     12  N   UNL     1       5.174  -1.052   2.931  0.00  0.00    -0.173 NA
BRANCH   8  13
ATOM     13  C   UNL     1       4.208  -3.111   0.057  0.00  0.00    +0.112 A 
ATOM     14  N   UNL     1       4.728  -3.953  -0.826  0.00  0.00    -0.244 NA
ATOM     15  C   UNL     1       3.993  -4.480  -1.779  0.00  0.00    +0.046 A 
ATOM     16  C   UNL     1       2.676  -4.164  -1.871  0.00  0.00    +0.070 A 
ATOM     17  S   UNL     1       2.506  -3.044  -0.487  0.00  0.00    -0.075 S 
ATOM     18  C   UNL     1       4.611  -5.434  -2.768  0.00  0.00    +0.066 C 
ENDBRANCH   8  13
ENDBRANCH   3   7
BRANCH   1  20
ATOM     19  C   UNL     1       0.787   2.213  -0.605  0.00  0.00    +0.009 C 
ATOM     20  C   UNL     1       0.596   0.695  -0.601  0.00  0.00    +0.035 C 
ENDBRANCH   1  20
BRANCH   4  21
ATOM     21  O   UNL     1       2.495  -1.427   4.271  0.00  0.00    -0.506 OA
ATOM     22  H   UNL     1       2.853  -0.764   4.877  0.00  0.00    +0.292 HD
ENDBRANCH   4  21
BRANCH   6  23
ATOM     23  O   UNL     1      -0.983   0.588   1.734  0.00  0.00    -0.487 OA
BRANCH  23  24
ATOM     24  C   UNL     1      -1.777   0.531   2.920  0.00  0.00    +0.265 C 
BRANCH  24  25
ATOM     25  C   UNL     1      -3.139   1.111   2.641  0.00  0.00    -0.003 A 
ATOM     26  C   UNL     1      -3.442   1.580   1.400  0.00  0.00    +0.007 A 
ATOM     27  C   UNL     1      -4.697   2.120   1.123  0.00  0.00    +0.001 A 
ATOM     28  C   UNL     1      -5.655   2.194   2.086  0.00  0.00    +0.008 A 
ATOM     29  C   UNL     1      -5.380   1.720   3.380  0.00  0.00    -0.018 A 
ATOM     30  C   UNL     1      -4.106   1.165   3.660  0.00  0.00    -0.011 A 
ATOM     31  C   UNL     1      -3.832   0.686   4.952  0.00  0.00    +0.009 A 
ATOM     32  C   UNL     1      -4.793   0.755   5.914  0.00  0.00    +0.001 A 
ATOM     33  C   UNL     1      -6.048   1.295   5.637  0.00  0.00    +0.001 A 
ATOM     34  C   UNL     1      -6.344   1.781   4.401  0.00  0.00    +0.008 A 
ENDBRANCH  24  25
ENDBRANCH  23  24
ENDBRANCH   6  23
TORSDOF 7
