REMARK  Name = ZINC39898819
REMARK  5 active torsions:
REMARK  status: ('A' for Active; 'I' for Inactive)
REMARK    1  A    between atoms: C_4  and  C_7
REMARK    2  A    between atoms: C_7  and  N_8
REMARK    3  A    between atoms: C_9  and  C_27
REMARK    4  A    between atoms: C_12  and  C_19
REMARK    5  A    between atoms: C_24  and  O_25
REMARK                            x       y       z     vdW  Elec       q    Type
REMARK                         _______ _______ _______ _____ _____    ______ ____
ROOT
ATOM      1  N   UNL     1       4.019  -0.832   1.395  0.00  0.00    -0.281 N 
ATOM      2  C   UNL     1       4.867   0.017   2.241  0.00  0.00    +0.142 C 
ATOM      3  C   UNL     1       5.109  -0.763   3.504  0.00  0.00    +0.035 A 
ATOM      4  C   UNL     1       5.717  -0.809   4.764  0.00  0.00    +0.102 A 
ATOM      5  N   UNL     1       5.410  -1.971   5.307  0.00  0.00    -0.173 NA
ATOM      6  N   UNL     1       4.669  -2.662   4.516  0.00  0.00    -0.272 N 
ATOM      7  H   UNL     1       4.324  -3.548   4.708  0.00  0.00    +0.189 HD
ATOM      8  C   UNL     1       4.441  -1.964   3.364  0.00  0.00    +0.126 A 
ATOM      9  C   UNL     1       3.774  -1.977   2.057  0.00  0.00    +0.266 C 
ATOM     10  O   UNL     1       3.097  -2.894   1.632  0.00  0.00    -0.268 OA
ENDROOT
BRANCH   2  11
ATOM     11  C   UNL     1       6.173   0.303   1.547  0.00  0.00    -0.021 A 
ATOM     12  C   UNL     1       6.866  -0.722   0.930  0.00  0.00    +0.007 A 
ATOM     13  C   UNL     1       8.065  -0.462   0.293  0.00  0.00    +0.022 A 
ATOM     14  C   UNL     1       8.572   0.826   0.273  0.00  0.00    +0.059 A 
ATOM     15  C   UNL     1       7.878   1.852   0.891  0.00  0.00    +0.060 A 
ATOM     16  C   UNL     1       6.676   1.590   1.523  0.00  0.00    +0.027 A 
ATOM     17 CL   UNL     1       8.513   3.467   0.866  0.00  0.00    -0.082 Cl
ATOM     18 CL   UNL     1      10.078   1.153  -0.526  0.00  0.00    -0.082 Cl
ENDBRANCH   2  11
BRANCH   4  19
ATOM     19  C   UNL     1       6.553   0.253   5.375  0.00  0.00    +0.045 A 
ATOM     20  C   UNL     1       6.128   1.579   5.350  0.00  0.00    +0.033 A 
ATOM     21  C   UNL     1       6.910   2.564   5.921  0.00  0.00    +0.042 A 
ATOM     22  C   UNL     1       8.115   2.238   6.519  0.00  0.00    +0.023 A 
ATOM     23  C   UNL     1       8.545   0.925   6.549  0.00  0.00    +0.047 A 
ATOM     24  C   UNL     1       7.768  -0.074   5.985  0.00  0.00    +0.126 A 
ATOM     25 CL   UNL     1       6.379   4.217   5.889  0.00  0.00    -0.084 Cl
BRANCH  24  26
ATOM     26  O   UNL     1       8.187  -1.366   6.019  0.00  0.00    -0.506 OA
ATOM     27  H   UNL     1       8.726  -1.624   5.258  0.00  0.00    +0.292 HD
ENDBRANCH  24  26
ENDBRANCH   4  19
BRANCH   1  28
ATOM     28  C   UNL     1       3.522  -0.490   0.060  0.00  0.00    +0.144 C 
BRANCH  28  32
ATOM     29  C   UNL     1      -0.242   1.500   0.408  0.00  0.00    +0.000 A 
ATOM     30  C   UNL     1       0.930   2.232   0.414  0.00  0.00    +0.000 A 
ATOM     31  C   UNL     1       2.148   1.589   0.301  0.00  0.00    +0.005 A 
ATOM     32  C   UNL     1       2.194   0.212   0.184  0.00  0.00    -0.030 A 
ATOM     33  C   UNL     1       1.022  -0.521   0.179  0.00  0.00    +0.005 A 
ATOM     34  C   UNL     1      -0.196   0.123   0.290  0.00  0.00    +0.000 A 
ENDBRANCH  28  32
ENDBRANCH   1  28
TORSDOF 5
