REMARK  Name = ZINC24854623
REMARK  8 active torsions:
REMARK  status: ('A' for Active; 'I' for Inactive)
REMARK    1  A    between atoms: C_1  and  C_2
REMARK    2  A    between atoms: C_2  and  C_4
REMARK    3  A    between atoms: C_2  and  N_19
REMARK    4  A    between atoms: N_6  and  C_7
REMARK    5  A    between atoms: C_7  and  C_8
REMARK    6  A    between atoms: C_8  and  C_9
REMARK    7  A    between atoms: N_22  and  S_25
REMARK    8  A    between atoms: S_25  and  C_28
REMARK                            x       y       z     vdW  Elec       q    Type
REMARK                         _______ _______ _______ _____ _____    ______ ____
ROOT
ATOM      1  C   UNL     1      -0.880   2.039   1.155  0.00  0.00    -0.004 C 
ATOM      2  C   UNL     1      -0.018   1.503   0.010  0.00  0.00    +0.016 C 
ENDROOT
BRANCH   2   3
ATOM      3  N   UNL     1      -0.510   2.039  -1.266  0.00  0.00    +0.389 N 
ATOM      4  C   UNL     1      -0.098   3.437  -1.443  0.00  0.00    -0.060 C 
ATOM      5  C   UNL     1      -0.471   3.901  -2.856  0.00  0.00    +0.091 C 
ATOM      6  N   UNL     1      -1.904   3.643  -3.069  0.00  0.00    -0.180 NA
ATOM      7  C   UNL     1      -2.418   2.296  -2.779  0.00  0.00    +0.091 C 
ATOM      8  C   UNL     1      -1.968   1.895  -1.370  0.00  0.00    -0.060 C 
ATOM      9  H   UNL     1      -0.058   1.451  -2.078  0.00  0.00    -0.081 HD
BRANCH   6  10
ATOM     10  S   UNL     1      -2.910   4.837  -3.621  0.00  0.00    +0.064 S 
ATOM     11  O   UNL     1      -2.091   5.770  -4.313  0.00  0.00    -0.153 OA
ATOM     12  O   UNL     1      -4.012   4.186  -4.238  0.00  0.00    -0.153 OA
BRANCH  10  13
ATOM     13  C   UNL     1      -3.547   5.676  -2.208  0.00  0.00    +0.143 A 
ATOM     14  C   UNL     1      -3.220   7.000  -1.986  0.00  0.00    +0.069 A 
ATOM     15  C   UNL     1      -3.724   7.660  -0.878  0.00  0.00    +0.125 A 
ATOM     16  C   UNL     1      -4.547   6.991   0.012  0.00  0.00    +0.041 A 
ATOM     17  C   UNL     1      -4.869   5.666  -0.208  0.00  0.00    +0.043 A 
ATOM     18  C   UNL     1      -4.369   5.006  -1.319  0.00  0.00    +0.150 A 
ATOM     19  F   UNL     1      -4.684   3.711  -1.533  0.00  0.00    -0.203 F 
ATOM     20  F   UNL     1      -3.409   8.956  -0.663  0.00  0.00    -0.205 F 
ENDBRANCH  10  13
ENDBRANCH   6  10
ENDBRANCH   2   3
BRANCH   2  21
ATOM     21  C   UNL     1      -0.095  -0.002  -0.014  0.00  0.00    +0.199 C 
ATOM     22  O   UNL     1      -0.752  -0.562  -0.865  0.00  0.00    -0.278 OA
ATOM     23  N   UNL     1       0.566  -0.725   0.912  0.00  0.00    -0.316 N 
ATOM     24  H   UNL     1       1.162  -0.217   1.684  0.00  0.00    +0.149 HD
BRANCH  23  25
ATOM     25  C   UNL     1       0.491  -2.188   0.888  0.00  0.00    +0.109 C 
BRANCH  25  26
ATOM     26  C   UNL     1       1.325  -2.760   2.037  0.00  0.00    +0.056 C 
BRANCH  26  27
ATOM     27  C   UNL     1       1.248  -4.265   2.013  0.00  0.00    -0.021 A 
ATOM     28  C   UNL     1       0.406  -5.033   2.722  0.00  0.00    +0.087 A 
ATOM     29  N   UNL     1       0.627  -6.353   2.438  0.00  0.00    -0.360 N 
ATOM     30  H   UNL     1       0.020  -7.130   2.927  0.00  0.00    +0.165 HD
ATOM     31  C   UNL     1       1.649  -6.470   1.523  0.00  0.00    +0.047 A 
ATOM     32  C   UNL     1       2.083  -5.167   1.216  0.00  0.00    +0.003 A 
ATOM     33  C   UNL     1       3.121  -4.976   0.303  0.00  0.00    +0.010 A 
ATOM     34  C   UNL     1       3.712  -6.057  -0.289  0.00  0.00    +0.001 A 
ATOM     35  C   UNL     1       3.288  -7.344   0.011  0.00  0.00    +0.002 A 
ATOM     36  C   UNL     1       2.264  -7.556   0.909  0.00  0.00    +0.026 A 
ENDBRANCH  26  27
ENDBRANCH  25  26
ENDBRANCH  23  25
ENDBRANCH   2  21
TORSDOF 7
