REMARK  Name = ZINC04015068
REMARK  5 active torsions:
REMARK  status: ('A' for Active; 'I' for Inactive)
REMARK    1  A    between atoms: C_1  and  C_2
REMARK    2  A    between atoms: C_5  and  O_27
REMARK    3  A    between atoms: C_18  and  C_26
REMARK    4  A    between atoms: C_23  and  C_24
REMARK    5  A    between atoms: C_23  and  O_25
REMARK                            x       y       z     vdW  Elec       q    Type
REMARK                         _______ _______ _______ _____ _____    ______ ____
ROOT
ATOM      1  C   UNL     1      -2.396  -2.968   0.899  0.00  0.00    +0.012 C 
ATOM      2  C   UNL     1      -1.662  -2.446   2.140  0.00  0.00    -0.026 C 
ATOM      3  C   UNL     1      -2.691  -2.532   3.239  0.00  0.00    +0.010 C 
ATOM      4  C   UNL     1      -3.010  -3.977   3.605  0.00  0.00    +0.032 C 
ATOM      5  C   UNL     1      -1.732  -4.694   4.017  0.00  0.00    +0.115 C 
ATOM      6  C   UNL     1      -0.684  -4.665   2.936  0.00  0.00    +0.035 C 
ATOM      7  C   UNL     1      -0.480  -3.341   2.238  0.00  0.00    -0.002 C 
ATOM      8  C   UNL     1       0.834  -2.732   2.694  0.00  0.00    +0.004 C 
ATOM      9  C   UNL     1       1.043  -1.284   2.262  0.00  0.00    +0.004 C 
ATOM     10  C   UNL     1      -0.206  -0.496   2.629  0.00  0.00    -0.004 C 
ATOM     11  C   UNL     1      -1.354  -1.013   1.762  0.00  0.00    -0.001 C 
ATOM     12  C   UNL     1      -2.534  -0.062   1.868  0.00  0.00    +0.005 C 
ATOM     13  C   UNL     1      -2.201   1.272   1.170  0.00  0.00    +0.010 C 
ATOM     14  C   UNL     1      -0.734   1.583   1.275  0.00  0.00    -0.000 C 
ATOM     15  C   UNL     1      -0.092   0.991   2.547  0.00  0.00    +0.001 C 
ATOM     16  C   UNL     1       1.327   1.578   2.493  0.00  0.00    +0.007 C 
ATOM     17  C   UNL     1       1.115   3.009   1.931  0.00  0.00    +0.035 C 
ATOM     18  C   UNL     1      -0.347   3.067   1.414  0.00  0.00    +0.069 C 
ATOM     19  C   UNL     1      -1.229   3.799   2.418  0.00  0.00    +0.042 C 
ATOM     20  C   UNL     1      -0.013   1.086   0.008  0.00  0.00    +0.014 C 
ENDROOT
BRANCH  18  21
ATOM     21  O   UNL     1      -0.396   3.700   0.135  0.00  0.00    -0.388 OA
ATOM     22  H   UNL     1      -0.163   4.638   0.152  0.00  0.00    +0.210 HD
ENDBRANCH  18  21
BRANCH   5  23
ATOM     23  O   UNL     1      -2.045  -6.055   4.324  0.00  0.00    -0.392 OA
ATOM     24  H   UNL     1      -2.715  -6.158   5.013  0.00  0.00    +0.210 HD
ENDBRANCH   5  23
TORSDOF 2
