REMARK  Name = ZINC29127517
REMARK  6 active torsions:
REMARK  status: ('A' for Active; 'I' for Inactive)
REMARK    1  A    between atoms: C_4  and  C_7
REMARK    2  A    between atoms: C_7  and  C_8
REMARK    3  A    between atoms: C_12  and  C_16
REMARK    4  A    between atoms: N_18  and  C_19
REMARK    5  A    between atoms: C_22  and  N_25
REMARK    6  A    between atoms: N_25  and  C_26
REMARK                            x       y       z     vdW  Elec       q    Type
REMARK                         _______ _______ _______ _____ _____    ______ ____
ROOT
ATOM      1  C   UNL     1       6.999   5.483  -0.334  0.00  0.00    +0.236 C 
ATOM      2  O   UNL     1       5.922   6.045  -0.274  0.00  0.00    -0.274 OA
ATOM      3  N   UNL     1       7.054   4.139  -0.423  0.00  0.00    -0.285 N 
ATOM      4  H   UNL     1       8.024   3.636  -0.556  0.00  0.00    +0.155 HD
ENDROOT
BRANCH   1   8
ATOM      5  C   UNL     1      10.617   7.539   0.525  0.00  0.00    +0.084 C 
ATOM      6  C   UNL     1       9.495   8.397  -0.055  0.00  0.00    +0.098 C 
ATOM      7  C   UNL     1       8.207   7.615  -0.072  0.00  0.00    +0.156 C 
ATOM      8  C   UNL     1       8.241   6.270  -0.309  0.00  0.00    +0.226 C 
ATOM      9  C   UNL     1       9.543   5.620  -0.534  0.00  0.00    +0.233 C 
ATOM     10  O   UNL     1       9.600   4.529  -1.067  0.00  0.00    -0.275 OA
ATOM     11  N   UNL     1      10.672   6.244  -0.150  0.00  0.00    -0.311 N 
ATOM     12  O   UNL     1       7.036   8.236   0.144  0.00  0.00    -0.296 OA
ATOM     13  H   UNL     1      11.644   5.768  -0.349  0.00  0.00    +0.149 HD
BRANCH   5  14
ATOM     14  C   UNL     1      11.953   8.262   0.342  0.00  0.00    +0.057 C 
BRANCH  14  18
ATOM     15  C   UNL     1      15.052   6.039   2.267  0.00  0.00    +0.000 A 
ATOM     16  C   UNL     1      14.741   5.788   0.944  0.00  0.00    +0.000 A 
ATOM     17  C   UNL     1      13.739   6.508   0.321  0.00  0.00    +0.004 A 
ATOM     18  C   UNL     1      13.046   7.478   1.021  0.00  0.00    -0.046 A 
ATOM     19  C   UNL     1      13.360   7.732   2.343  0.00  0.00    +0.004 A 
ATOM     20  C   UNL     1      14.360   7.010   2.967  0.00  0.00    +0.000 A 
ENDBRANCH  14  18
ENDBRANCH   5  14
ENDBRANCH   1   8
BRANCH   3  21
ATOM     21  C   UNL     1       5.878   3.384  -0.347  0.00  0.00    +0.034 A 
ATOM     22  C   UNL     1       5.887   2.145   0.282  0.00  0.00    +0.025 A 
ATOM     23  C   UNL     1       4.728   1.400   0.357  0.00  0.00    +0.025 A 
ATOM     24  C   UNL     1       3.551   1.889  -0.197  0.00  0.00    +0.031 A 
ATOM     25  C   UNL     1       3.543   3.125  -0.830  0.00  0.00    +0.025 A 
ATOM     26  C   UNL     1       4.701   3.873  -0.900  0.00  0.00    +0.025 A 
BRANCH  24  27
ATOM     27  N   UNL     1       2.375   1.134  -0.121  0.00  0.00    -0.314 N 
ATOM     28  H   UNL     1       2.421   0.037  -0.187  0.00  0.00    +0.152 HD
BRANCH  27  29
ATOM     29  C   UNL     1       1.144   1.773   0.039  0.00  0.00    +0.031 A 
ATOM     30  C   UNL     1      -0.014   1.189  -0.460  0.00  0.00    +0.023 A 
ATOM     31  C   UNL     1      -1.229   1.826  -0.305  0.00  0.00    +0.002 A 
ATOM     32  C   UNL     1      -1.296   3.040   0.355  0.00  0.00    +0.000 A 
ATOM     33  C   UNL     1      -0.146   3.624   0.852  0.00  0.00    +0.002 A 
ATOM     34  C   UNL     1       1.073   2.995   0.697  0.00  0.00    +0.023 A 
ENDBRANCH  27  29
ENDBRANCH  24  27
ENDBRANCH   3  21
TORSDOF 6
