REMARK  Name = ZINC02253394
REMARK  2 active torsions:
REMARK  status: ('A' for Active; 'I' for Inactive)
REMARK    1  A    between atoms: C_4  and  C_7
REMARK    2  A    between atoms: C_24  and  C_26
REMARK                            x       y       z     vdW  Elec       q    Type
REMARK                         _______ _______ _______ _____ _____    ______ ____
ROOT
ATOM      1  C   UNL     1       3.658  -0.741  -0.070  0.00  0.00    +0.234 C 
ATOM      2  C   UNL     1       3.995  -1.163  -1.470  0.00  0.00    +0.028 C 
ATOM      3  C   UNL     1       3.589  -2.359  -1.944  0.00  0.00    +0.083 C 
ATOM      4  C   UNL     1       2.814  -3.232  -1.026  0.00  0.00    +0.042 A 
ATOM      5  C   UNL     1       2.083  -4.313  -1.497  0.00  0.00    +0.013 A 
ATOM      6  C   UNL     1       1.375  -5.098  -0.607  0.00  0.00    +0.001 A 
ATOM      7  C   UNL     1       1.395  -4.808   0.746  0.00  0.00    +0.004 A 
ATOM      8  C   UNL     1       2.122  -3.734   1.224  0.00  0.00    +0.046 A 
ATOM      9  C   UNL     1       2.837  -2.939   0.344  0.00  0.00    +0.131 A 
ATOM     10  O   UNL     1       3.560  -1.884   0.782  0.00  0.00    -0.479 OA
ATOM     11  N   UNL     1       3.876  -2.755  -3.208  0.00  0.00    -0.213 NA
ATOM     12  C   UNL     1       4.563  -2.041  -4.069  0.00  0.00    +0.237 C 
ATOM     13  N   UNL     1       4.936  -2.281  -5.346  0.00  0.00    -0.205 NA
ATOM     14  C   UNL     1       5.621  -1.274  -5.815  0.00  0.00    +0.203 C 
ATOM     15  N   UNL     1       5.731  -0.313  -4.857  0.00  0.00    -0.251 N 
ATOM     16  N   UNL     1       5.054  -0.795  -3.734  0.00  0.00    -0.208 N 
ATOM     17  C   UNL     1       4.795  -0.267  -2.389  0.00  0.00    +0.166 C 
ATOM     18  H   UNL     1       6.189   0.538  -4.938  0.00  0.00    +0.171 HD
ENDROOT
BRANCH   1  22
ATOM     19  C   UNL     1      -0.076   1.334  -0.078  0.00  0.00    +0.000 A 
ATOM     20  C   UNL     1      -0.046  -0.034  -0.270  0.00  0.00    +0.000 A 
ATOM     21  C   UNL     1       1.163  -0.706  -0.267  0.00  0.00    +0.007 A 
ATOM     22  C   UNL     1       2.340  -0.009  -0.073  0.00  0.00    -0.003 A 
ATOM     23  C   UNL     1       2.310   1.360   0.118  0.00  0.00    +0.007 A 
ATOM     24  C   UNL     1       1.102   2.031   0.117  0.00  0.00    +0.000 A 
ENDBRANCH   1  22
BRANCH  17  25
ATOM     25  C   UNL     1       4.057   1.040  -2.531  0.00  0.00    +0.016 A 
ATOM     26  C   UNL     1       4.359   2.251  -2.004  0.00  0.00    +0.013 A 
ATOM     27  C   UNL     1       3.529   3.324  -2.272  0.00  0.00    +0.008 A 
ATOM     28  C   UNL     1       2.439   3.133  -3.053  0.00  0.00    +0.045 A 
ATOM     29  S   UNL     1       2.565   1.395  -3.444  0.00  0.00    -0.099 S 
ENDBRANCH  17  25
TORSDOF 2
