REMARK  Name = ZINC21218603
REMARK  6 active torsions:
REMARK  status: ('A' for Active; 'I' for Inactive)
REMARK    1  A    between atoms: C_1  and  C_2
REMARK    2  A    between atoms: C_2  and  C_3
REMARK    3  A    between atoms: C_2  and  O_4
REMARK    4  A    between atoms: O_4  and  C_5
REMARK    5  A    between atoms: C_8  and  C_11
REMARK    6  A    between atoms: C_16  and  C_26
REMARK                            x       y       z     vdW  Elec       q    Type
REMARK                         _______ _______ _______ _____ _____    ______ ____
ROOT
ATOM      1  C   UNL     1      -6.328   2.842   1.016  0.00  0.00    +0.032 C 
ATOM      2  C   UNL     1      -6.371   3.787  -0.183  0.00  0.00    +0.059 C 
ATOM      3  C   UNL     1      -7.802   4.234  -0.437  0.00  0.00    +0.017 C 
ATOM      4  C   UNL     1      -8.827   3.403  -0.186  0.00  0.00    +0.037 C 
ATOM      5  C   UNL     1     -10.288   3.701  -0.425  0.00  0.00    +0.139 C 
ATOM      6  N   UNL     1     -10.575   5.089  -0.717  0.00  0.00    -0.331 N 
ATOM      7  C   UNL     1     -10.089   5.698  -1.873  0.00  0.00    +0.049 A 
ATOM      8  C   UNL     1     -10.939   6.093  -2.894  0.00  0.00    +0.025 A 
ATOM      9  C   UNL     1     -10.404   6.595  -4.068  0.00  0.00    +0.002 A 
ATOM     10  C   UNL     1      -9.034   6.704  -4.223  0.00  0.00    +0.002 A 
ATOM     11  C   UNL     1      -8.184   6.329  -3.197  0.00  0.00    +0.025 A 
ATOM     12  C   UNL     1      -8.717   5.843  -2.016  0.00  0.00    +0.052 A 
ATOM     13  N   UNL     1      -7.923   5.492  -0.930  0.00  0.00    -0.316 N 
ATOM     14  C   UNL     1      -8.586   2.117   0.353  0.00  0.00    +0.163 C 
ATOM     15  O   UNL     1      -9.532   1.379   0.552  0.00  0.00    -0.292 OA
ATOM     16  C   UNL     1      -7.209   1.631   0.689  0.00  0.00    +0.088 C 
ATOM     17  H   UNL     1     -11.187   5.683  -0.022  0.00  0.00    +0.147 HD
ATOM     18  H   UNL     1      -7.369   6.321  -0.466  0.00  0.00    +0.152 HD
ENDROOT
BRANCH   5  19
ATOM     19  C   UNL     1     -10.765   2.860  -1.581  0.00  0.00    +0.015 A 
ATOM     20  C   UNL     1      -9.849   2.282  -2.439  0.00  0.00    +0.047 A 
ATOM     21  C   UNL     1     -10.287   1.509  -3.501  0.00  0.00    +0.124 A 
ATOM     22  C   UNL     1     -11.643   1.316  -3.704  0.00  0.00    +0.041 A 
ATOM     23  C   UNL     1     -12.559   1.895  -2.846  0.00  0.00    +0.041 A 
ATOM     24  C   UNL     1     -12.120   2.663  -1.781  0.00  0.00    +0.129 A 
ATOM     25  F   UNL     1     -13.016   3.225  -0.940  0.00  0.00    -0.205 F 
ATOM     26  F   UNL     1      -9.391   0.943  -4.339  0.00  0.00    -0.205 F 
ENDBRANCH   5  19
BRANCH   1  30
ATOM     27  C   UNL     1      -2.309   1.565   1.710  0.00  0.00    +0.121 A 
ATOM     28  C   UNL     1      -2.912   1.327   0.483  0.00  0.00    +0.046 A 
ATOM     29  C   UNL     1      -4.213   1.737   0.263  0.00  0.00    +0.007 A 
ATOM     30  C   UNL     1      -4.910   2.392   1.261  0.00  0.00    -0.043 A 
ATOM     31  C   UNL     1      -4.310   2.634   2.482  0.00  0.00    +0.007 A 
ATOM     32  C   UNL     1      -3.011   2.222   2.709  0.00  0.00    +0.046 A 
BRANCH  27  33
ATOM     33  O   UNL     1      -1.031   1.158   1.930  0.00  0.00    -0.489 OA
BRANCH  33  35
ATOM     34  C   UNL     1      -0.496  -0.925   0.828  0.00  0.00    +0.051 C 
ATOM     35  C   UNL     1      -0.329   0.596   0.820  0.00  0.00    +0.167 C 
ATOM     36  C   UNL     1       1.157   0.946   0.926  0.00  0.00    +0.051 C 
ENDBRANCH  33  35
ENDBRANCH  27  33
ENDBRANCH   1  30
TORSDOF 4
