REMARK  Name = ZINC21354633
REMARK  6 active torsions:
REMARK  status: ('A' for Active; 'I' for Inactive)
REMARK    1  A    between atoms: C_1  and  C_2
REMARK    2  A    between atoms: C_7  and  C_9
REMARK    3  A    between atoms: C_7  and  C_10
REMARK    4  A    between atoms: N_13  and  C_17
REMARK    5  A    between atoms: C_17  and  C_18
REMARK    6  A    between atoms: N_20  and  C_21
REMARK                            x       y       z     vdW  Elec       q    Type
REMARK                         _______ _______ _______ _____ _____    ______ ____
ROOT
ATOM      1  C   UNL     1       0.521   1.121  -1.063  0.00  0.00    +0.007 C 
ATOM      2  C   UNL     1       0.501  -0.368  -0.710  0.00  0.00    -0.011 C 
ATOM      3  C   UNL     1      -0.933  -0.895  -0.801  0.00  0.00    +0.038 C 
ATOM      4  C   UNL     1      -0.957  -2.374  -0.430  0.00  0.00    +0.113 C 
ATOM      5  C   UNL     1      -0.416  -2.585   0.981  0.00  0.00    +0.041 C 
ATOM      6  C   UNL     1       1.016  -2.051   1.065  0.00  0.00    -0.032 C 
ATOM      7  C   UNL     1       1.026  -0.562   0.714  0.00  0.00    +0.009 C 
ATOM      8  C   UNL     1       1.903  -2.813   0.079  0.00  0.00    +0.011 C 
ATOM      9  C   UNL     1       1.550  -2.244   2.486  0.00  0.00    +0.011 C 
ATOM     10  C   UNL     1      -2.359  -2.925  -0.546  0.00  0.00    +0.247 C 
ATOM     11  O   UNL     1      -3.340  -2.572   0.073  0.00  0.00    -0.273 OA
ATOM     12  N   UNL     1      -2.289  -3.893  -1.483  0.00  0.00    -0.215 N 
ATOM     13  C   UNL     1      -1.048  -4.023  -1.966  0.00  0.00    +0.310 C 
ATOM     14  O   UNL     1      -0.736  -4.828  -2.821  0.00  0.00    -0.252 OA
ATOM     15  N   UNL     1      -0.183  -3.160  -1.399  0.00  0.00    -0.285 N 
ATOM     16  H   UNL     1       0.764  -3.075  -1.593  0.00  0.00    +0.151 HD
ENDROOT
BRANCH  12  17
ATOM     17  C   UNL     1      -3.431  -4.701  -1.918  0.00  0.00    +0.214 C 
BRANCH  17  18
ATOM     18  C   UNL     1      -4.115  -4.022  -3.077  0.00  0.00    +0.235 C 
ATOM     19  O   UNL     1      -3.691  -2.966  -3.497  0.00  0.00    -0.274 OA
ATOM     20  N   UNL     1      -5.198  -4.588  -3.645  0.00  0.00    -0.282 N 
ATOM     21  H   UNL     1      -5.581  -5.393  -3.264  0.00  0.00    +0.155 HD
BRANCH  20  22
ATOM     22  C   UNL     1      -5.771  -4.013  -4.786  0.00  0.00    +0.070 A 
ATOM     23  C   UNL     1      -4.971  -3.354  -5.710  0.00  0.00    +0.026 A 
ATOM     24  C   UNL     1      -5.538  -2.787  -6.835  0.00  0.00    +0.003 A 
ATOM     25  C   UNL     1      -6.902  -2.874  -7.043  0.00  0.00    +0.023 A 
ATOM     26  C   UNL     1      -7.705  -3.529  -6.125  0.00  0.00    +0.078 A 
ATOM     27  C   UNL     1      -7.142  -4.104  -4.999  0.00  0.00    +0.163 A 
ATOM     28  F   UNL     1      -7.924  -4.749  -4.106  0.00  0.00    -0.202 F 
ATOM     29 CL   UNL     1      -9.417  -3.634  -6.390  0.00  0.00    -0.081 Cl
ENDBRANCH  20  22
ENDBRANCH  17  18
ENDBRANCH  12  17
TORSDOF 3
