REMARK  Name = ZINC35851852
REMARK  6 active torsions:
REMARK  status: ('A' for Active; 'I' for Inactive)
REMARK    1  A    between atoms: C_1  and  C_2
REMARK    2  A    between atoms: C_5  and  C_8
REMARK    3  A    between atoms: C_8  and  C_10
REMARK    4  A    between atoms: C_12  and  C_31
REMARK    5  A    between atoms: C_23  and  C_30
REMARK    6  A    between atoms: C_34  and  N_37
REMARK                            x       y       z     vdW  Elec       q    Type
REMARK                         _______ _______ _______ _____ _____    ______ ____
ROOT
ATOM      1  C   UNL     1       0.179  -5.000   1.278  0.00  0.00    +0.103 C 
ATOM      2  C   UNL     1      -1.219  -5.392   1.800  0.00  0.00    +0.050 C 
ATOM      3  C   UNL     1      -1.194  -6.927   1.918  0.00  0.00    +0.077 C 
ATOM      4  C   UNL     1      -1.966  -7.351   3.185  0.00  0.00    +0.090 C 
ATOM      5  S   UNL     1      -0.619  -8.044   4.236  0.00  0.00    -0.144 S 
ATOM      6  C   UNL     1       0.801  -7.314   3.307  0.00  0.00    +0.155 C 
ATOM      7  N   UNL     1       0.227  -7.317   1.950  0.00  0.00    -0.271 NA
ATOM      8  C   UNL     1       0.944  -6.320   1.138  0.00  0.00    +0.137 C 
ATOM      9  C   UNL     1       1.030  -6.748  -0.302  0.00  0.00    +0.004 A 
ATOM     10  C   UNL     1       0.084  -7.045  -1.258  0.00  0.00    +0.011 A 
ATOM     11  C   UNL     1       0.480  -7.420  -2.530  0.00  0.00    -0.050 A 
ATOM     12  C   UNL     1       1.827  -7.495  -2.836  0.00  0.00    +0.005 A 
ATOM     13  C   UNL     1       2.777  -7.199  -1.881  0.00  0.00    +0.024 A 
ATOM     14  C   UNL     1       2.387  -6.821  -0.599  0.00  0.00    +0.039 A 
ATOM     15  N   UNL     1       3.145  -6.479   0.523  0.00  0.00    -0.283 N 
ATOM     16  C   UNL     1       2.374  -6.172   1.583  0.00  0.00    +0.243 C 
ATOM     17  O   UNL     1       2.759  -5.840   2.685  0.00  0.00    -0.273 OA
ATOM     18  C   UNL     1      -0.553  -7.746  -3.577  0.00  0.00    +0.044 C 
ATOM     19  H   UNL     1       4.115  -6.463   0.536  0.00  0.00    +0.155 HD
ENDROOT
BRANCH   2  20
ATOM     20  C   UNL     1      -2.281  -4.959   0.824  0.00  0.00    -0.042 A 
ATOM     21  C   UNL     1      -2.732  -5.838  -0.143  0.00  0.00    +0.006 A 
ATOM     22  C   UNL     1      -3.707  -5.441  -1.039  0.00  0.00    +0.033 A 
ATOM     23  C   UNL     1      -4.231  -4.164  -0.968  0.00  0.00    +0.126 A 
ATOM     24  C   UNL     1      -3.781  -3.284  -0.001  0.00  0.00    +0.033 A 
ATOM     25  C   UNL     1      -2.809  -3.683   0.898  0.00  0.00    +0.006 A 
BRANCH  23  26
ATOM     26  N   UNL     1      -5.274  -3.737  -1.928  0.00  0.00    +0.056 N 
ATOM     27  O   UNL     1      -5.667  -4.506  -2.774  0.00  0.00    -0.126 OA
ATOM     28  O   UNL     1      -5.733  -2.621  -1.866  0.00  0.00    -0.126 OA
ENDBRANCH  23  26
ENDBRANCH   2  20
BRANCH   1  29
ATOM     29  C   UNL     1       0.065  -4.318  -0.060  0.00  0.00    +0.169 C 
ATOM     30  O   UNL     1       0.178  -4.962  -1.081  0.00  0.00    -0.292 OA
BRANCH  29  35
ATOM     31  C   UNL     1      -0.912   1.341  -0.328  0.00  0.00    +0.044 C 
ATOM     32  C   UNL     1      -0.655  -0.142  -0.258  0.00  0.00    -0.050 A 
ATOM     33  C   UNL     1      -0.399  -0.852  -1.418  0.00  0.00    +0.004 A 
ATOM     34  C   UNL     1      -0.164  -2.210  -1.362  0.00  0.00    +0.011 A 
ATOM     35  C   UNL     1      -0.185  -2.869  -0.129  0.00  0.00    +0.018 A 
ATOM     36  C   UNL     1      -0.444  -2.144   1.039  0.00  0.00    +0.011 A 
ATOM     37  C   UNL     1      -0.672  -0.786   0.967  0.00  0.00    +0.004 A 
ENDBRANCH  29  35
ENDBRANCH   1  29
TORSDOF 4
