REMARK  Name = ZINC03523228
REMARK  9 active torsions:
REMARK  status: ('A' for Active; 'I' for Inactive)
REMARK    1  A    between atoms: C_1  and  C_2
REMARK    2  A    between atoms: C_8  and  C_16
REMARK    3  A    between atoms: C_16  and  O_18
REMARK    4  A    between atoms: O_18  and  C_19
REMARK    5  A    between atoms: C_19  and  C_21
REMARK    6  A    between atoms: C_19  and  C_22
REMARK    7  A    between atoms: N_24  and  C_25
REMARK    8  A    between atoms: C_28  and  S_31
REMARK    9  A    between atoms: S_31  and  N_34
REMARK                            x       y       z     vdW  Elec       q    Type
REMARK                         _______ _______ _______ _____ _____    ______ ____
ROOT
ATOM      1  O   UNL     1      -0.342   2.922  -4.369  0.00  0.00    -0.449 OA
ENDROOT
BRANCH   1   2
ATOM      2  C   UNL     1      -1.424   3.046  -3.576  0.00  0.00    +0.341 C 
ATOM      3  O   UNL     1      -2.487   2.570  -3.920  0.00  0.00    -0.245 OA
BRANCH   2  11
ATOM      4  C   UNL     1      -2.478   8.056  -4.434  0.00  0.00    +0.044 C 
ATOM      5  C   UNL     1      -2.112   7.247  -3.216  0.00  0.00    -0.050 A 
ATOM      6  C   UNL     1      -2.001   7.878  -1.979  0.00  0.00    +0.005 A 
ATOM      7  C   UNL     1      -1.670   7.177  -0.860  0.00  0.00    +0.028 A 
ATOM      8  C   UNL     1      -1.436   5.792  -0.948  0.00  0.00    +0.072 A 
ATOM      9  C   UNL     1      -1.552   5.155  -2.209  0.00  0.00    +0.015 A 
ATOM     10  C   UNL     1      -1.892   5.908  -3.340  0.00  0.00    +0.014 A 
ATOM     11  C   UNL     1      -1.317   3.761  -2.287  0.00  0.00    +0.073 A 
ATOM     12  C   UNL     1      -0.983   3.081  -1.117  0.00  0.00    -0.012 A 
ATOM     13  C   UNL     1      -0.885   3.779   0.079  0.00  0.00    +0.046 A 
ATOM     14  N   UNL     1      -1.110   5.078   0.127  0.00  0.00    -0.251 NA
ATOM     15  C   UNL     1      -0.511   3.100   1.374  0.00  0.00    +0.056 C 
ATOM     16  C   UNL     1      -0.711   1.590   1.266  0.00  0.00    +0.006 C 
ATOM     17  C   UNL     1       0.015   1.093   0.011  0.00  0.00    +0.005 C 
ATOM     18  C   UNL     1      -0.743   1.598  -1.216  0.00  0.00    +0.038 C 
ENDBRANCH   2  11
ENDBRANCH   1   2
BRANCH   1  19
ATOM     19  C   UNL     1      -0.521   2.207  -5.620  0.00  0.00    +0.259 C 
ATOM     20  C   UNL     1      -0.924   3.193  -6.718  0.00  0.00    +0.062 C 
BRANCH  19  21
ATOM     21  C   UNL     1       0.771   1.532  -6.002  0.00  0.00    +0.258 C 
ATOM     22  O   UNL     1       1.747   1.642  -5.289  0.00  0.00    -0.271 OA
ATOM     23  N   UNL     1       0.843   0.805  -7.135  0.00  0.00    -0.282 N 
ATOM     24  H   UNL     1       0.047   0.661  -7.669  0.00  0.00    +0.155 HD
BRANCH  23  25
ATOM     25  C   UNL     1       2.066   0.259  -7.539  0.00  0.00    +0.034 A 
ATOM     26  C   UNL     1       2.374   0.165  -8.890  0.00  0.00    +0.025 A 
ATOM     27  C   UNL     1       3.584  -0.369  -9.286  0.00  0.00    +0.030 A 
ATOM     28  C   UNL     1       4.485  -0.821  -8.339  0.00  0.00    +0.105 A 
ATOM     29  C   UNL     1       4.179  -0.735  -6.993  0.00  0.00    +0.030 A 
ATOM     30  C   UNL     1       2.973  -0.196  -6.590  0.00  0.00    +0.025 A 
BRANCH  28  31
ATOM     31  S   UNL     1       6.025  -1.509  -8.848  0.00  0.00    +0.056 S 
ATOM     32  O   UNL     1       6.301  -0.977 -10.137  0.00  0.00    -0.153 OA
ATOM     33  O   UNL     1       6.919  -1.356  -7.754  0.00  0.00    -0.153 OA
BRANCH  31  34
ATOM     34  N   UNL     1       5.793  -3.136  -9.047  0.00  0.00    -0.204 NA
ATOM     35  H   UNL     1       6.318  -3.625  -9.700  0.00  0.00    +0.144 HD
ATOM     36  H   UNL     1       5.132  -3.601  -8.510  0.00  0.00    +0.144 HD
ENDBRANCH  31  34
ENDBRANCH  28  31
ENDBRANCH  23  25
ENDBRANCH  19  21
ENDBRANCH   1  19
TORSDOF 7
