REMARK  Name = ZINC39519597
REMARK  13 active torsions:
REMARK  status: ('A' for Active; 'I' for Inactive)
REMARK    1  A    between atoms: C_1  and  C_2
REMARK    2  A    between atoms: C_2  and  C_3
REMARK    3  A    between atoms: C_3  and  C_5
REMARK    4  A    between atoms: C_3  and  C_6
REMARK    5  A    between atoms: C_9  and  C_12
REMARK    6  A    between atoms: C_12  and  C_14
REMARK    7  A    between atoms: C_12  and  N_17
REMARK    8  A    between atoms: C_14  and  C_15
REMARK    9  A    between atoms: C_14  and  C_16
REMARK   10  A    between atoms: N_17  and  C_18
REMARK   11  A    between atoms: C_18  and  C_19
REMARK   12  A    between atoms: N_21  and  C_22
REMARK   13  A    between atoms: C_22  and  C_29
REMARK                            x       y       z     vdW  Elec       q    Type
REMARK                         _______ _______ _______ _____ _____    ______ ____
ROOT
ATOM      1  N   UNL     1       2.044  -6.619  -1.949  0.00  0.00    +0.389 N 
ATOM      2  H   UNL     1       2.939  -6.242  -1.678  0.00  0.00    -0.084 HD
ATOM      3  H   UNL     1       2.092  -7.627  -1.960  0.00  0.00    -0.084 HD
ENDROOT
BRANCH   1   4
ATOM      4  C   UNL     1       1.020  -6.188  -0.989  0.00  0.00    -0.038 C 
BRANCH   4   8
ATOM      5  C   UNL     1       1.081  -1.930  -0.654  0.00  0.00    -0.045 A 
ATOM      6  C   UNL     1      -0.126  -2.605  -0.669  0.00  0.00    +0.004 A 
ATOM      7  C   UNL     1      -0.145  -3.982  -0.777  0.00  0.00    +0.002 A 
ATOM      8  C   UNL     1       1.041  -4.686  -0.872  0.00  0.00    -0.061 A 
ATOM      9  C   UNL     1       2.247  -4.011  -0.858  0.00  0.00    +0.002 A 
ATOM     10  C   UNL     1       2.267  -2.632  -0.754  0.00  0.00    +0.004 A 
BRANCH   5  11
ATOM     11  C   UNL     1       1.102  -0.427  -0.536  0.00  0.00    +0.016 C 
ATOM     12  C   UNL     1       0.343   0.188  -1.714  0.00  0.00    +0.012 C 
BRANCH  11  14
ATOM     13  C   UNL     1       0.566   1.504   0.955  0.00  0.00    +0.004 C 
ATOM     14  C   UNL     1       0.434  -0.009   0.775  0.00  0.00    +0.004 C 
ENDBRANCH  11  14
ENDBRANCH   5  11
ENDBRANCH   4   8
BRANCH   4  15
ATOM     15  C   UNL     1       1.309  -6.810   0.379  0.00  0.00    -0.027 C 
ATOM     16  C   UNL     1       0.256  -6.343   1.385  0.00  0.00    +0.006 C 
ATOM     17  C   UNL     1       1.265  -8.335   0.265  0.00  0.00    +0.006 C 
ENDBRANCH   4  15
ENDBRANCH   1   4
BRANCH   1  18
ATOM     18  C   UNL     1       1.693  -6.132  -3.290  0.00  0.00    +0.016 C 
BRANCH  18  19
ATOM     19  C   UNL     1       2.777  -6.516  -4.264  0.00  0.00    +0.196 C 
ATOM     20  O   UNL     1       3.747  -7.134  -3.878  0.00  0.00    -0.278 OA
ATOM     21  N   UNL     1       2.670  -6.172  -5.562  0.00  0.00    -0.310 N 
ATOM     22  H   UNL     1       1.895  -5.677  -5.870  0.00  0.00    +0.149 HD
BRANCH  21  23
ATOM     23  C   UNL     1       3.724  -6.545  -6.509  0.00  0.00    +0.052 C 
ATOM     24  C   UNL     1       5.056  -5.994  -6.000  0.00  0.00    +0.049 C 
ATOM     25  C   UNL     1       6.016  -5.720  -7.192  0.00  0.00    +0.168 C 
ATOM     26  S   UNL     1       4.807  -5.035  -8.409  0.00  0.00    -0.029 S 
ATOM     27  O   UNL     1       4.571  -3.666  -8.113  0.00  0.00    -0.174 OA
ATOM     28  O   UNL     1       5.201  -5.413  -9.721  0.00  0.00    -0.174 OA
ATOM     29  C   UNL     1       3.338  -6.026  -7.908  0.00  0.00    +0.191 C 
ATOM     30  C   UNL     1       3.817  -8.071  -6.560  0.00  0.00    +0.033 C 
ENDBRANCH  21  23
ENDBRANCH  18  19
ENDBRANCH   1  18
TORSDOF 8
