REMARK  Name = ZINC56622443
REMARK  5 active torsions:
REMARK  status: ('A' for Active; 'I' for Inactive)
REMARK    1  A    between atoms: C_3  and  C_23
REMARK    2  A    between atoms: C_6  and  C_7
REMARK    3  A    between atoms: C_7  and  N_8
REMARK    4  A    between atoms: N_11  and  N_12
REMARK    5  A    between atoms: N_15  and  C_16
REMARK                            x       y       z     vdW  Elec       q    Type
REMARK                         _______ _______ _______ _____ _____    ______ ____
ROOT
ATOM      1  N   UNL     1      -1.719  -1.031  -1.367  0.00  0.00    -0.294 N 
ATOM      2  C   UNL     1      -2.860  -1.706  -1.606  0.00  0.00    +0.316 C 
ATOM      3  O   UNL     1      -3.527  -2.121  -0.678  0.00  0.00    -0.251 OA
ATOM      4  N   UNL     1      -3.263  -1.922  -2.874  0.00  0.00    -0.217 N 
ATOM      5  H   UNL     1      -1.187  -0.700  -2.108  0.00  0.00    +0.151 HD
ATOM      6  H   UNL     1      -4.085  -2.408  -3.046  0.00  0.00    +0.174 HD
ENDROOT
BRANCH   4   7
ATOM      7  N   UNL     1      -2.495  -1.444  -3.944  0.00  0.00    -0.217 N 
ATOM      8  C   UNL     1      -2.898  -1.660  -5.212  0.00  0.00    +0.320 C 
ATOM      9  O   UNL     1      -2.231  -1.245  -6.140  0.00  0.00    -0.251 OA
ATOM     10  N   UNL     1      -4.040  -2.335  -5.451  0.00  0.00    -0.268 N 
ATOM     11  H   UNL     1      -1.673  -0.958  -3.772  0.00  0.00    +0.174 HD
ATOM     12  H   UNL     1      -4.536  -2.724  -4.714  0.00  0.00    +0.156 HD
BRANCH  10  13
ATOM     13  C   UNL     1      -4.509  -2.475  -6.762  0.00  0.00    +0.035 A 
ATOM     14  C   UNL     1      -5.874  -2.466  -7.017  0.00  0.00    +0.024 A 
ATOM     15  C   UNL     1      -6.334  -2.604  -8.312  0.00  0.00    +0.017 A 
ATOM     16  C   UNL     1      -5.436  -2.752  -9.354  0.00  0.00    +0.018 A 
ATOM     17  C   UNL     1      -4.076  -2.762  -9.103  0.00  0.00    +0.017 A 
ATOM     18  C   UNL     1      -3.610  -2.619  -7.811  0.00  0.00    +0.024 A 
ATOM     19 BR   UNL     1      -6.070  -2.940 -11.126  0.00  0.00    -0.050 Br
ENDBRANCH  10  13
ENDBRANCH   4   7
BRANCH   1  20
ATOM     20  C   UNL     1      -1.281  -0.796   0.011  0.00  0.00    +0.141 C 
BRANCH  20  26
ATOM     21  C   UNL     1      -0.009   1.358   0.018  0.00  0.00    +0.006 A 
ATOM     22  C   UNL     1       1.173   2.070   0.011  0.00  0.00    +0.019 A 
ATOM     23  C   UNL     1       2.393   1.392  -0.013  0.00  0.00    +0.052 A 
ATOM     24  C   UNL     1       2.408  -0.004  -0.028  0.00  0.00    +0.019 A 
ATOM     25  C   UNL     1       1.219  -0.704  -0.021  0.00  0.00    +0.006 A 
ATOM     26  C   UNL     1       0.014  -0.025   0.002  0.00  0.00    -0.030 A 
BRANCH  23  27
ATOM     27  C   UNL     1       3.623   2.125  -0.021  0.00  0.00    +0.099 C 
ATOM     28  N   UNL     1       4.599   2.706  -0.027  0.00  0.00    -0.191 NA
ENDBRANCH  23  27
ENDBRANCH  20  26
ENDBRANCH   1  20
TORSDOF 5
