REMARK  Name = ZINC13095279
REMARK  7 active torsions:
REMARK  status: ('A' for Active; 'I' for Inactive)
REMARK    1  A    between atoms: C_4  and  C_7
REMARK    2  A    between atoms: C_12  and  N_22
REMARK    3  A    between atoms: C_14  and  C_16
REMARK    4  A    between atoms: N_22  and  C_23
REMARK    5  A    between atoms: C_23  and  C_24
REMARK    6  A    between atoms: C_27  and  S_30
REMARK    7  A    between atoms: S_30  and  N_33
REMARK                            x       y       z     vdW  Elec       q    Type
REMARK                         _______ _______ _______ _____ _____    ______ ____
ROOT
ATOM      1  C   UNL     1       0.983  -3.757  -4.242  0.00  0.00    +0.002 A 
ATOM      2  C   UNL     1       0.603  -4.451  -5.341  0.00  0.00    +0.056 A 
ATOM      3  S   UNL     1       0.833  -6.152  -4.860  0.00  0.00    -0.076 S 
ATOM      4  C   UNL     1       1.430  -5.899  -3.210  0.00  0.00    +0.114 A 
ATOM      5  C   UNL     1       1.431  -4.495  -3.067  0.00  0.00    +0.055 A 
ATOM      6  C   UNL     1       1.883  -4.007  -1.810  0.00  0.00    +0.132 A 
ATOM      7  N   UNL     1       2.254  -4.866  -0.877  0.00  0.00    -0.212 NA
ATOM      8  C   UNL     1       2.223  -6.180  -1.075  0.00  0.00    +0.164 A 
ATOM      9  N   UNL     1       1.815  -6.691  -2.230  0.00  0.00    -0.220 NA
ENDROOT
BRANCH   1  13
ATOM     10  C   UNL     1       0.858   0.492  -4.216  0.00  0.00    +0.000 A 
ATOM     11  C   UNL     1       1.642  -0.168  -5.145  0.00  0.00    +0.001 A 
ATOM     12  C   UNL     1       1.687  -1.547  -5.158  0.00  0.00    +0.008 A 
ATOM     13  C   UNL     1       0.940  -2.276  -4.233  0.00  0.00    -0.017 A 
ATOM     14  C   UNL     1       0.147  -1.605  -3.302  0.00  0.00    +0.008 A 
ATOM     15  C   UNL     1       0.114  -0.225  -3.295  0.00  0.00    +0.001 A 
ENDBRANCH   1  13
BRANCH   8  16
ATOM     16  C   UNL     1       2.651  -7.091   0.013  0.00  0.00    +0.037 A 
ATOM     17  C   UNL     1       2.623  -8.477  -0.169  0.00  0.00    +0.014 A 
ATOM     18  C   UNL     1       3.037  -9.284   0.876  0.00  0.00    +0.020 A 
ATOM     19  C   UNL     1       3.453  -8.700   2.059  0.00  0.00    +0.111 A 
ATOM     20  N   UNL     1       3.465  -7.389   2.203  0.00  0.00    -0.263 NA
ATOM     21  C   UNL     1       3.084  -6.580   1.235  0.00  0.00    +0.122 A 
ENDBRANCH   8  16
BRANCH   6  22
ATOM     22  N   UNL     1       1.930  -2.646  -1.565  0.00  0.00    -0.324 N 
ATOM     23  H   UNL     1       1.740  -2.017  -2.279  0.00  0.00    +0.148 HD
BRANCH  22  24
ATOM     24  C   UNL     1       2.268  -2.154  -0.227  0.00  0.00    +0.138 C 
BRANCH  24  25
ATOM     25  C   UNL     1       2.250  -0.647  -0.227  0.00  0.00    -0.030 A 
ATOM     26  C   UNL     1       1.083   0.031   0.071  0.00  0.00    +0.007 A 
ATOM     27  C   UNL     1       1.066   1.413   0.072  0.00  0.00    +0.029 A 
ATOM     28  C   UNL     1       2.218   2.118  -0.224  0.00  0.00    +0.105 A 
ATOM     29  C   UNL     1       3.385   1.440  -0.524  0.00  0.00    +0.029 A 
ATOM     30  C   UNL     1       3.402   0.058  -0.524  0.00  0.00    +0.007 A 
BRANCH  28  31
ATOM     31  S   UNL     1       2.197   3.880  -0.224  0.00  0.00    +0.056 S 
ATOM     32  O   UNL     1       3.262   4.299  -1.066  0.00  0.00    -0.153 OA
ATOM     33  O   UNL     1       0.850   4.270  -0.448  0.00  0.00    -0.153 OA
BRANCH  31  34
ATOM     34  N   UNL     1       2.584   4.373   1.309  0.00  0.00    -0.204 NA
ATOM     35  H   UNL     1       2.768   3.716   1.998  0.00  0.00    +0.144 HD
ATOM     36  H   UNL     1       2.626   5.319   1.518  0.00  0.00    +0.144 HD
ENDBRANCH  31  34
ENDBRANCH  28  31
ENDBRANCH  24  25
ENDBRANCH  22  24
ENDBRANCH   6  22
TORSDOF 7
