REMARK  Name = ZINC20828985
REMARK  7 active torsions:
REMARK  status: ('A' for Active; 'I' for Inactive)
REMARK    1  A    between atoms: C_4  and  C_7
REMARK    2  A    between atoms: C_9  and  C_32
REMARK    3  A    between atoms: C_22  and  C_28
REMARK    4  A    between atoms: C_22  and  C_30
REMARK    5  A    between atoms: C_23  and  N_27
REMARK    6  A    between atoms: C_24  and  C_25
REMARK    7  A    between atoms: C_32  and  C_34
REMARK                            x       y       z     vdW  Elec       q    Type
REMARK                         _______ _______ _______ _____ _____    ______ ____
ROOT
ATOM      1  C   UNL     1       2.445   6.621  -0.226  0.00  0.00    +0.089 C 
ATOM      2  C   UNL     1       2.480   5.572   0.871  0.00  0.00    +0.157 C 
ATOM      3  N   UNL     1       2.388   4.215   0.348  0.00  0.00    -0.315 N 
ATOM      4  C   UNL     1       3.544   3.441   0.338  0.00  0.00    +0.072 C 
ATOM      5  C   UNL     1       3.527   2.131   0.122  0.00  0.00    +0.023 C 
ATOM      6  C   UNL     1       2.268   1.396  -0.085  0.00  0.00    -0.019 A 
ATOM      7  C   UNL     1       2.254   0.005  -0.162  0.00  0.00    +0.008 A 
ATOM      8  C   UNL     1       1.047  -0.662  -0.223  0.00  0.00    +0.001 A 
ATOM      9  C   UNL     1      -0.141   0.046  -0.200  0.00  0.00    +0.000 A 
ATOM     10  C   UNL     1      -0.130   1.431  -0.151  0.00  0.00    +0.006 A 
ATOM     11  C   UNL     1       1.063   2.111  -0.136  0.00  0.00    -0.017 A 
ATOM     12  C   UNL     1       1.149   3.620  -0.166  0.00  0.00    +0.144 C 
ATOM     13  C   UNL     1       0.965   4.118  -1.594  0.00  0.00    +0.203 C 
ATOM     14  C   UNL     1       0.574   5.572  -1.595  0.00  0.00    +0.052 C 
ATOM     15  C   UNL     1       1.176   6.599  -1.027  0.00  0.00    +0.058 C 
ENDROOT
BRANCH   1  19
ATOM     16  C   UNL     1       5.898   6.370  -2.727  0.00  0.00    +0.000 A 
ATOM     17  C   UNL     1       4.667   6.676  -3.277  0.00  0.00    +0.000 A 
ATOM     18  C   UNL     1       3.550   6.758  -2.467  0.00  0.00    +0.004 A 
ATOM     19  C   UNL     1       3.663   6.532  -1.108  0.00  0.00    -0.037 A 
ATOM     20  C   UNL     1       4.894   6.230  -0.558  0.00  0.00    +0.004 A 
ATOM     21  C   UNL     1       6.011   6.144  -1.368  0.00  0.00    +0.000 A 
ENDBRANCH   1  19
BRANCH  14  22
ATOM     22  N   UNL     1      -0.594   5.879  -2.293  0.00  0.00    -0.358 N 
ATOM     23  H   UNL     1      -0.949   6.919  -2.341  0.00  0.00    +0.142 HD
ATOM     24  H   UNL     1      -1.161   5.081  -2.795  0.00  0.00    +0.142 HD
ENDBRANCH  14  22
BRANCH  15  25
ATOM     25  C   UNL     1       0.515   7.885  -1.217  0.00  0.00    +0.097 C 
ATOM     26  N   UNL     1      -0.000   8.886  -1.365  0.00  0.00    -0.191 NA
ENDBRANCH  15  25
BRANCH  13  27
ATOM     27  C   UNL     1       2.179   3.910  -2.399  0.00  0.00    +0.093 C 
ATOM     28  N   UNL     1       3.116   3.749  -3.021  0.00  0.00    -0.194 NA
ENDBRANCH  13  27
BRANCH  13  29
ATOM     29  C   UNL     1      -0.133   3.380  -2.264  0.00  0.00    +0.093 C 
ATOM     30  N   UNL     1      -0.975   2.814  -2.777  0.00  0.00    -0.194 NA
ENDBRANCH  13  29
BRANCH   2  31
ATOM     31  C   UNL     1       1.398   5.835   1.884  0.00  0.00    +0.184 C 
ATOM     32  O   UNL     1       0.450   5.084   1.967  0.00  0.00    -0.290 OA
BRANCH  31  33
ATOM     33  C   UNL     1       1.492   7.002   2.775  0.00  0.00    +0.019 A 
ATOM     34  C   UNL     1       2.588   7.867   2.687  0.00  0.00    +0.011 A 
ATOM     35  C   UNL     1       2.666   8.961   3.522  0.00  0.00    +0.001 A 
ATOM     36  C   UNL     1       1.669   9.200   4.452  0.00  0.00    +0.000 A 
ATOM     37  C   UNL     1       0.585   8.345   4.549  0.00  0.00    +0.001 A 
ATOM     38  C   UNL     1       0.489   7.250   3.718  0.00  0.00    +0.011 A 
ENDBRANCH  31  33
ENDBRANCH   2  31
TORSDOF 7
