REMARK  Name = ZINC66244368
REMARK  6 active torsions:
REMARK  status: ('A' for Active; 'I' for Inactive)
REMARK    1  A    between atoms: C_3  and  C_25
REMARK    2  A    between atoms: C_6  and  C_7
REMARK    3  A    between atoms: C_7  and  C_9
REMARK    4  A    between atoms: C_7  and  N_19
REMARK    5  A    between atoms: C_9  and  N_10
REMARK    6  A    between atoms: N_13  and  C_14
REMARK                            x       y       z     vdW  Elec       q    Type
REMARK                         _______ _______ _______ _____ _____    ______ ____
ROOT
ATOM      1  C   UNL     1      -1.244  -0.728   0.057  0.00  0.00    +0.106 C 
ENDROOT
BRANCH   1   7
ATOM      2  C   UNL     1      -0.310   1.592   0.164  0.00  0.00    +0.006 A 
ATOM      3  C   UNL     1       0.756   2.471   0.214  0.00  0.00    +0.013 A 
ATOM      4  C   UNL     1       2.051   1.987   0.211  0.00  0.00    +0.055 A 
ATOM      5  C   UNL     1       2.280   0.625   0.158  0.00  0.00    +0.013 A 
ATOM      6  C   UNL     1       1.214  -0.254   0.109  0.00  0.00    +0.006 A 
ATOM      7  C   UNL     1      -0.081   0.230   0.111  0.00  0.00    -0.029 A 
BRANCH   4   8
ATOM      8  C   UNL     1       3.213   2.945   0.265  0.00  0.00    +0.417 C 
ATOM      9  F   UNL     1       3.556   3.188   1.599  0.00  0.00    -0.166 F 
ATOM     10  F   UNL     1       4.308   2.387  -0.404  0.00  0.00    -0.166 F 
ATOM     11  F   UNL     1       2.854   4.149  -0.351  0.00  0.00    -0.166 F 
ENDBRANCH   4   8
ENDBRANCH   1   7
BRANCH   1  12
ATOM     12  N   UNL     1      -0.957  -1.894   0.903  0.00  0.00    -0.289 NA
ATOM     13  C   UNL     1      -2.043  -2.881   0.825  0.00  0.00    +0.113 C 
ATOM     14  C   UNL     1      -1.677  -4.103   1.672  0.00  0.00    +0.175 C 
ATOM     15  O   UNL     1      -1.421  -3.685   3.016  0.00  0.00    -0.377 OA
ATOM     16  C   UNL     1      -0.369  -2.723   3.129  0.00  0.00    +0.175 C 
ATOM     17  C   UNL     1      -0.721  -1.488   2.296  0.00  0.00    +0.113 C 
ENDBRANCH   1  12
BRANCH   1  18
ATOM     18  C   UNL     1      -1.460  -1.186  -1.387  0.00  0.00    +0.139 C 
BRANCH  18  19
ATOM     19  N   UNL     1      -1.824  -0.035  -2.216  0.00  0.00    -0.356 N 
ATOM     20  C   UNL     1      -2.139  -0.214  -3.542  0.00  0.00    +0.169 C 
ATOM     21  N   UNL     1      -2.115  -1.410  -4.061  0.00  0.00    -0.371 N 
ATOM     22  N   UNL     1      -2.481   0.866  -4.320  0.00  0.00    -0.355 N 
ATOM     23  H   UNL     1      -1.842   0.855  -1.829  0.00  0.00    +0.162 HD
ATOM     24  H   UNL     1      -2.338  -1.536  -4.997  0.00  0.00    +0.159 HD
ATOM     25  H   UNL     1      -2.499   1.756  -3.933  0.00  0.00    +0.163 HD
ATOM     26  H   UNL     1      -1.874  -2.172  -3.513  0.00  0.00    +0.159 HD
BRANCH  22  27
ATOM     27  C   UNL     1      -2.818   0.675  -5.733  0.00  0.00    +0.082 C 
ATOM     28  C   UNL     1      -4.322   0.368  -5.881  0.00  0.00    +0.024 C 
ATOM     29  C   UNL     1      -4.961   1.744  -6.195  0.00  0.00    +0.002 C 
ATOM     30  C   UNL     1      -3.907   2.408  -7.116  0.00  0.00    +0.002 C 
ATOM     31  C   UNL     1      -2.554   1.972  -6.518  0.00  0.00    +0.024 C 
ENDBRANCH  22  27
ENDBRANCH  18  19
ENDBRANCH   1  18
TORSDOF 6
