REMARK  Name = ZINC02387613
REMARK  3 active torsions:
REMARK  status: ('A' for Active; 'I' for Inactive)
REMARK    1  A    between atoms: C_1  and  C_2
REMARK    2  A    between atoms: N_13  and  C_16
REMARK    3  A    between atoms: N_23  and  N_24
REMARK                            x       y       z     vdW  Elec       q    Type
REMARK                         _______ _______ _______ _____ _____    ______ ____
ROOT
ATOM      1  C   UNL     1       0.440   3.694   0.388  0.00  0.00    +0.008 C 
ATOM      2  C   UNL     1      -0.414   3.555   1.650  0.00  0.00    -0.009 C 
ATOM      3  C   UNL     1      -1.764   2.930   1.284  0.00  0.00    +0.009 C 
ATOM      4  C   UNL     1      -2.699   3.037   2.498  0.00  0.00    +0.043 C 
ATOM      5  C   UNL     1      -1.956   2.572   3.712  0.00  0.00    -0.004 A 
ATOM      6  C   UNL     1      -0.621   2.391   3.836  0.00  0.00    -0.022 A 
ATOM      7  C   UNL     1      -0.144   1.928   5.129  0.00  0.00    +0.076 A 
ATOM      8  C   UNL     1      -1.131   1.717   6.118  0.00  0.00    +0.118 A 
ATOM      9  S   UNL     1      -2.634   2.139   5.294  0.00  0.00    -0.073 S 
ATOM     10  N   UNL     1      -0.869   1.297   7.350  0.00  0.00    -0.207 NA
ATOM     11  C   UNL     1       0.399   1.065   7.656  0.00  0.00    +0.218 A 
ATOM     12  N   UNL     1       1.415   1.241   6.765  0.00  0.00    -0.248 N 
ATOM     13  C   UNL     1       1.217   1.667   5.495  0.00  0.00    +0.268 A 
ATOM     14  O   UNL     1       2.139   1.819   4.712  0.00  0.00    -0.266 OA
ATOM     15  N   UNL     1       0.702   0.630   8.922  0.00  0.00    -0.253 N 
ATOM     16  C   UNL     1       0.312   2.667   2.660  0.00  0.00    +0.040 C 
ATOM     17  H   UNL     1       1.628   0.525   9.191  0.00  0.00    +0.169 HD
ENDROOT
BRANCH  12  18
ATOM     18  C   UNL     1       2.726   0.970   7.183  0.00  0.00    +0.053 A 
ATOM     19  C   UNL     1       3.501   1.978   7.740  0.00  0.00    +0.028 A 
ATOM     20  C   UNL     1       4.790   1.707   8.155  0.00  0.00    +0.022 A 
ATOM     21  C   UNL     1       5.312   0.434   8.006  0.00  0.00    +0.041 A 
ATOM     22  C   UNL     1       4.544  -0.571   7.445  0.00  0.00    +0.022 A 
ATOM     23  C   UNL     1       3.252  -0.306   7.034  0.00  0.00    +0.028 A 
ATOM     24 CL   UNL     1       6.935   0.098   8.523  0.00  0.00    -0.084 Cl
ENDBRANCH  12  18
BRANCH  15  25
ATOM     25  N   UNL     1      -0.301   0.344   9.804  0.00  0.00    -0.254 NA
ATOM     26  H   UNL     1       0.073   0.037  10.690  0.00  0.00    +0.140 HD
ATOM     27  H   UNL     1      -0.913   1.137   9.925  0.00  0.00    +0.140 HD
ENDBRANCH  15  25
TORSDOF 2
