REMARK  Name = ZINC23118995
REMARK  7 active torsions:
REMARK  status: ('A' for Active; 'I' for Inactive)
REMARK    1  A    between atoms: C_1  and  C_2
REMARK    2  A    between atoms: C_2  and  C_3
REMARK    3  A    between atoms: C_8  and  N_9
REMARK    4  A    between atoms: C_10  and  C_12
REMARK    5  A    between atoms: C_12  and  S_13
REMARK    6  A    between atoms: S_13  and  C_14
REMARK    7  A    between atoms: N_22  and  C_26
REMARK                            x       y       z     vdW  Elec       q    Type
REMARK                         _______ _______ _______ _____ _____    ______ ____
ROOT
ATOM      1  C   UNL     1       0.775  -2.560   0.012  0.00  0.00    +0.172 A 
ATOM      2  N   UNL     1      -0.561  -2.289   0.031  0.00  0.00    -0.301 N 
ATOM      3  H   UNL     1      -1.290  -3.113   0.028  0.00  0.00    +0.171 HD
ATOM      4  C   UNL     1      -0.966  -0.996   0.053  0.00  0.00    +0.268 A 
ATOM      5  O   UNL     1      -2.153  -0.713   0.071  0.00  0.00    -0.267 OA
ATOM      6  C   UNL     1       0.004  -0.003   0.055  0.00  0.00    +0.122 A 
ATOM      7  C   UNL     1       1.367  -0.304   0.035  0.00  0.00    +0.161 A 
ATOM      8  N   UNL     1       1.688  -1.622   0.014  0.00  0.00    -0.204 NA
ATOM      9  N   UNL     1       2.222   0.770   0.040  0.00  0.00    -0.282 N 
ATOM     10  C   UNL     1       1.748   2.032   0.062  0.00  0.00    +0.132 A 
ATOM     11  S   UNL     1       2.616   3.507   0.071  0.00  0.00    -0.024 S 
ATOM     12  S   UNL     1      -0.020   1.771   0.079  0.00  0.00    -0.055 S 
ENDROOT
BRANCH   9  13
ATOM     13  C   UNL     1       3.606   0.552   0.021  0.00  0.00    +0.050 A 
ATOM     14  C   UNL     1       4.228  -0.067   1.097  0.00  0.00    +0.026 A 
ATOM     15  C   UNL     1       5.591  -0.286   1.073  0.00  0.00    +0.002 A 
ATOM     16  C   UNL     1       6.339   0.121  -0.017  0.00  0.00    +0.000 A 
ATOM     17  C   UNL     1       5.724   0.743  -1.088  0.00  0.00    +0.002 A 
ATOM     18  C   UNL     1       4.360   0.960  -1.072  0.00  0.00    +0.026 A 
ENDBRANCH   9  13
BRANCH   1  19
ATOM     19  S   UNL     1       1.295  -4.244  -0.017  0.00  0.00    -0.078 S 
BRANCH  19  20
ATOM     20  C   UNL     1       3.090  -4.018  -0.035  0.00  0.00    +0.173 C 
BRANCH  20  22
ATOM     21  N   UNL     1       5.111  -5.444  -0.077  0.00  0.00    -0.285 N 
ATOM     22  C   UNL     1       3.766  -5.365  -0.061  0.00  0.00    +0.227 C 
ATOM     23  O   UNL     1       3.099  -6.378  -0.067  0.00  0.00    -0.275 OA
ATOM     24  H   UNL     1       5.715  -4.529  -0.164  0.00  0.00    +0.155 HD
BRANCH  21  30
ATOM     25  C   UNL     1       7.020  -6.863  -0.494  0.00  0.00    -0.026 A 
ATOM     26  C   UNL     1       7.638  -8.095  -0.401  0.00  0.00    +0.005 A 
ATOM     27  C   UNL     1       6.984  -9.155   0.199  0.00  0.00    +0.000 A 
ATOM     28  C   UNL     1       5.708  -8.986   0.707  0.00  0.00    +0.002 A 
ATOM     29  C   UNL     1       5.087  -7.756   0.621  0.00  0.00    +0.023 A 
ATOM     30  C   UNL     1       5.740  -6.691   0.015  0.00  0.00    +0.037 A 
BRANCH  25  32
ATOM     31  C   UNL     1       8.433  -4.869  -0.074  0.00  0.00    +0.009 C 
ATOM     32  C   UNL     1       7.735  -5.708  -1.146  0.00  0.00    +0.033 C 
ENDBRANCH  25  32
ENDBRANCH  21  30
ENDBRANCH  20  22
ENDBRANCH  19  20
ENDBRANCH   1  19
TORSDOF 6
