REMARK  Name = ZINC39687129
REMARK  8 active torsions:
REMARK  status: ('A' for Active; 'I' for Inactive)
REMARK    1  A    between atoms: C_1  and  C_2
REMARK    2  A    between atoms: C_2  and  C_4
REMARK    3  A    between atoms: C_2  and  N_12
REMARK    4  A    between atoms: C_4  and  C_5
REMARK    5  A    between atoms: C_13  and  C_15
REMARK    6  A    between atoms: C_26  and  C_28
REMARK    7  A    between atoms: C_31  and  O_34
REMARK    8  A    between atoms: O_34  and  C_35
REMARK                            x       y       z     vdW  Elec       q    Type
REMARK                         _______ _______ _______ _____ _____    ______ ____
ROOT
ATOM      1  C   UNL     1       0.885  -0.865  -3.619  0.00  0.00    +0.100 C 
ATOM      2  C   UNL     1       1.114  -2.270  -3.019  0.00  0.00    +0.121 C 
ATOM      3  N   UNL     1       0.362  -3.185  -3.911  0.00  0.00    -0.296 N 
ATOM      4  C   UNL     1       0.598  -2.648  -5.272  0.00  0.00    +0.115 C 
ATOM      5  C   UNL     1       0.550  -1.117  -5.099  0.00  0.00    -0.004 C 
ATOM      6  C   UNL     1      -0.847  -0.594  -5.421  0.00  0.00    -0.010 C 
ATOM      7  C   UNL     1      -1.135  -0.804  -6.910  0.00  0.00    -0.082 C 
ATOM      8  N   UNL     1      -0.128  -0.096  -7.710  0.00  0.00    +0.379 N 
ATOM      9  C   UNL     1       1.201  -0.667  -7.463  0.00  0.00    -0.082 C 
ATOM     10  C   UNL     1       1.588  -0.451  -5.997  0.00  0.00    -0.010 C 
ATOM     11  C   UNL     1      -0.369  -4.261  -3.562  0.00  0.00    +0.248 C 
ATOM     12  O   UNL     1      -1.300  -4.615  -4.260  0.00  0.00    -0.270 OA
ATOM     13  H   UNL     1      -0.355  -0.185  -8.689  0.00  0.00    -0.086 HD
ATOM     14  H   UNL     1      -0.126   0.881  -7.456  0.00  0.00    -0.086 HD
ENDROOT
BRANCH  11  15
ATOM     15  C   UNL     1      -0.041  -5.011  -2.334  0.00  0.00    +0.055 A 
ATOM     16  C   UNL     1      -0.631  -6.259  -2.082  0.00  0.00    +0.020 A 
ATOM     17  C   UNL     1      -0.292  -6.921  -0.920  0.00  0.00    +0.068 A 
ATOM     18  C   UNL     1       0.616  -6.335  -0.043  0.00  0.00    +0.220 A 
ATOM     19  N   UNL     1       1.155  -5.155  -0.309  0.00  0.00    -0.220 NA
ATOM     20  C   UNL     1       0.865  -4.492  -1.408  0.00  0.00    +0.127 A 
BRANCH  18  21
ATOM     21  O   UNL     1       0.952  -6.981   1.099  0.00  0.00    -0.438 OA
BRANCH  21  22
ATOM     22  C   UNL     1       1.079  -6.245   2.235  0.00  0.00    +0.130 A 
ATOM     23  C   UNL     1       0.729  -4.902   2.235  0.00  0.00    +0.046 A 
ATOM     24  C   UNL     1       0.858  -4.157   3.391  0.00  0.00    +0.004 A 
ATOM     25  C   UNL     1       1.336  -4.747   4.546  0.00  0.00    +0.000 A 
ATOM     26  C   UNL     1       1.685  -6.085   4.549  0.00  0.00    +0.004 A 
ATOM     27  C   UNL     1       1.552  -6.837   3.397  0.00  0.00    +0.046 A 
ENDBRANCH  21  22
ENDBRANCH  18  21
ENDBRANCH  11  15
BRANCH   1  29
ATOM     28  N   UNL     1      -0.383   1.161  -2.982  0.00  0.00    -0.312 N 
ATOM     29  C   UNL     1      -0.267  -0.181  -2.929  0.00  0.00    +0.218 C 
ATOM     30  O   UNL     1      -1.089  -0.838  -2.327  0.00  0.00    -0.275 OA
ATOM     31  H   UNL     1       0.311   1.692  -3.401  0.00  0.00    +0.149 HD
BRANCH  28  33
ATOM     32  C   UNL     1      -2.729   1.723  -3.387  0.00  0.00    +0.028 C 
ATOM     33  C   UNL     1      -1.559   1.817  -2.405  0.00  0.00    +0.074 C 
BRANCH  33  34
ATOM     34  C   UNL     1      -1.240   3.288  -2.132  0.00  0.00    +0.060 C 
BRANCH  34  35
ATOM     35  C   UNL     1      -0.187   3.382  -1.058  0.00  0.00    -0.010 A 
ATOM     36  C   UNL     1      -0.560   3.469   0.270  0.00  0.00    +0.006 A 
ATOM     37  C   UNL     1       0.406   3.555   1.256  0.00  0.00    +0.000 A 
ATOM     38  C   UNL     1       1.746   3.555   0.914  0.00  0.00    +0.003 A 
ATOM     39  C   UNL     1       2.121   3.468  -0.413  0.00  0.00    +0.038 A 
ATOM     40  C   UNL     1       1.155   3.377  -1.400  0.00  0.00    +0.127 A 
ATOM     41  F   UNL     1       1.520   3.287  -2.698  0.00  0.00    -0.205 F 
ENDBRANCH  34  35
ENDBRANCH  33  34
ENDBRANCH  28  33
ENDBRANCH   1  29
TORSDOF 7
