REMARK  Name = ZINC58510935
REMARK  12 active torsions:
REMARK  status: ('A' for Active; 'I' for Inactive)
REMARK    1  A    between atoms: C_1  and  C_2
REMARK    2  A    between atoms: C_2  and  N_3
REMARK    3  A    between atoms: N_3  and  C_4
REMARK    4  A    between atoms: N_3  and  C_6
REMARK    5  A    between atoms: C_4  and  C_5
REMARK    6  A    between atoms: C_6  and  C_7
REMARK    7  A    between atoms: C_7  and  N_8
REMARK    8  A    between atoms: N_17  and  C_18
REMARK    9  A    between atoms: C_18  and  C_20
REMARK   10  A    between atoms: C_20  and  C_21
REMARK   11  A    between atoms: C_21  and  C_22
REMARK   12  A    between atoms: C_25  and  C_27
REMARK                            x       y       z     vdW  Elec       q    Type
REMARK                         _______ _______ _______ _____ _____    ______ ____
ROOT
ATOM      1  N   UNL     1       0.741  -3.948  -2.373  0.00  0.00    -0.314 N 
ATOM      2  C   UNL     1       1.588  -4.872  -1.769  0.00  0.00    +0.068 A 
ATOM      3  C   UNL     1       2.800  -4.753  -1.103  0.00  0.00    +0.028 A 
ATOM      4  C   UNL     1       3.421  -5.878  -0.599  0.00  0.00    +0.002 A 
ATOM      5  C   UNL     1       2.839  -7.126  -0.755  0.00  0.00    +0.002 A 
ATOM      6  C   UNL     1       1.634  -7.255  -1.415  0.00  0.00    +0.028 A 
ATOM      7  C   UNL     1       1.001  -6.130  -1.926  0.00  0.00    +0.066 A 
ATOM      8  N   UNL     1      -0.189  -5.943  -2.621  0.00  0.00    -0.326 N 
ATOM      9  C   UNL     1      -0.329  -4.616  -2.877  0.00  0.00    +0.201 A 
ATOM     10  N   UNL     1      -1.352  -4.059  -3.521  0.00  0.00    -0.147 NA
ATOM     11  H   UNL     1      -0.813  -6.640  -2.877  0.00  0.00    +0.169 HD
ENDROOT
BRANCH  10  12
ATOM     12  C   UNL     1      -2.403  -4.797  -3.862  0.00  0.00    +0.240 C 
ATOM     13  O   UNL     1      -2.473  -5.958  -3.507  0.00  0.00    -0.274 OA
BRANCH  12  14
ATOM     14  C   UNL     1      -3.510  -4.195  -4.690  0.00  0.00    +0.107 C 
BRANCH  14  15
ATOM     15  C   UNL     1      -4.590  -5.249  -4.941  0.00  0.00    +0.105 C 
BRANCH  15  16
ATOM     16  C   UNL     1      -5.697  -4.646  -5.768  0.00  0.00    +0.197 A 
ATOM     17  N   UNL     1      -5.756  -4.650  -7.070  0.00  0.00    -0.221 NA
ATOM     18  C   UNL     1      -6.879  -4.027  -7.456  0.00  0.00    +0.161 A 
ATOM     19  C   UNL     1      -7.530  -3.627  -6.334  0.00  0.00    +0.155 A 
ATOM     20  O   UNL     1      -6.781  -4.026  -5.283  0.00  0.00    -0.440 OA
BRANCH  19  21
ATOM     21  C   UNL     1      -8.816  -2.899  -6.274  0.00  0.00    +0.019 A 
ATOM     22  C   UNL     1      -9.486  -2.561  -7.450  0.00  0.00    +0.011 A 
ATOM     23  C   UNL     1     -10.685  -1.882  -7.387  0.00  0.00    +0.001 A 
ATOM     24  C   UNL     1     -11.224  -1.536  -6.161  0.00  0.00    +0.000 A 
ATOM     25  C   UNL     1     -10.565  -1.868  -4.990  0.00  0.00    +0.001 A 
ATOM     26  C   UNL     1      -9.368  -2.553  -5.039  0.00  0.00    +0.011 A 
ENDBRANCH  19  21
ENDBRANCH  15  16
ENDBRANCH  14  15
ENDBRANCH  12  14
ENDBRANCH  10  12
BRANCH   1  27
ATOM     27  C   UNL     1       0.963  -2.502  -2.447  0.00  0.00    +0.106 C 
BRANCH  27  28
ATOM     28  C   UNL     1       0.344  -1.827  -1.221  0.00  0.00    -0.057 C 
BRANCH  28  29
ATOM     29  N   UNL     1       0.673  -0.395  -1.232  0.00  0.00    +0.380 N 
ATOM     30  H   UNL     1       1.675  -0.281  -1.276  0.00  0.00    -0.082 HD
BRANCH  29  32
ATOM     31  C   UNL     1       0.500   1.703  -2.483  0.00  0.00    -0.017 C 
ATOM     32  C   UNL     1       0.056   0.241  -2.403  0.00  0.00    -0.082 C 
ENDBRANCH  29  32
BRANCH  29  33
ATOM     33  C   UNL     1       0.162   0.234  -0.007  0.00  0.00    -0.082 C 
ATOM     34  C   UNL     1       0.892  -0.346   1.207  0.00  0.00    -0.017 C 
ENDBRANCH  29  33
ENDBRANCH  28  29
ENDBRANCH  27  28
ENDBRANCH   1  27
TORSDOF 10
