REMARK  Name = ZINC10759061
REMARK  9 active torsions:
REMARK  status: ('A' for Active; 'I' for Inactive)
REMARK    1  A    between atoms: C_1  and  C_2
REMARK    2  A    between atoms: N_11  and  C_15
REMARK    3  A    between atoms: C_15  and  C_16
REMARK    4  A    between atoms: C_16  and  O_18
REMARK    5  A    between atoms: O_18  and  C_19
REMARK    6  A    between atoms: C_19  and  C_20
REMARK    7  A    between atoms: C_23  and  C_25
REMARK    8  A    between atoms: C_30  and  O_31
REMARK    9  A    between atoms: O_31  and  C_32
REMARK                            x       y       z     vdW  Elec       q    Type
REMARK                         _______ _______ _______ _____ _____    ______ ____
ROOT
ATOM      1  C   UNL     1       5.744   1.580  -0.046  0.00  0.00    +0.326 C 
ATOM      2  O   UNL     1       6.272   0.493  -0.057  0.00  0.00    -0.249 OA
ENDROOT
BRANCH   1   3
ATOM      3  C   UNL     1       6.589   2.828  -0.048  0.00  0.00    +0.238 C 
BRANCH   3  13
ATOM      4  C   UNL     1      10.717   4.327   0.563  0.00  0.00    +0.010 C 
ATOM      5  C   UNL     1      11.153   2.932   1.016  0.00  0.00    +0.018 C 
ATOM      6  C   UNL     1      11.247   2.898   2.543  0.00  0.00    +0.006 C 
ATOM      7  C   UNL     1      11.663   1.497   2.996  0.00  0.00    +0.000 C 
ATOM      8  C   UNL     1      10.617   0.479   2.537  0.00  0.00    +0.003 C 
ATOM      9  C   UNL     1      10.520   0.503   1.009  0.00  0.00    +0.035 C 
ATOM     10  C   UNL     1      10.132   1.903   0.544  0.00  0.00    +0.115 C 
ATOM     11  C   UNL     1       8.752   2.266   1.044  0.00  0.00    +0.247 C 
ATOM     12  O   UNL     1       8.392   2.362   2.197  0.00  0.00    -0.273 OA
ATOM     13  N   UNL     1       8.006   2.458  -0.064  0.00  0.00    -0.213 N 
ATOM     14  C   UNL     1       8.723   2.274  -1.179  0.00  0.00    +0.310 C 
ATOM     15  O   UNL     1       8.271   2.394  -2.301  0.00  0.00    -0.252 OA
ATOM     16  N   UNL     1      10.002   1.940  -0.919  0.00  0.00    -0.285 N 
ATOM     17  H   UNL     1      10.699   1.760  -1.568  0.00  0.00    +0.151 HD
ENDBRANCH   3  13
ENDBRANCH   1   3
BRANCH   1  18
ATOM     18  O   UNL     1       4.405   1.676  -0.032  0.00  0.00    -0.457 OA
BRANCH  18  19
ATOM     19  C   UNL     1       3.655   0.433  -0.031  0.00  0.00    +0.288 C 
BRANCH  19  20
ATOM     20  C   UNL     1       2.179   0.737  -0.015  0.00  0.00    +0.086 A 
ATOM     21  C   UNL     1       1.750   2.026  -0.004  0.00  0.00    +0.074 A 
ATOM     22  S   UNL     1      -0.022   1.784   0.012  0.00  0.00    -0.075 S 
ATOM     23  C   UNL     1       0.002  -0.004   0.002  0.00  0.00    +0.112 A 
ATOM     24  N   UNL     1       1.306  -0.244  -0.012  0.00  0.00    -0.240 NA
BRANCH  23  25
ATOM     25  C   UNL     1      -1.127  -0.957   0.007  0.00  0.00    +0.049 A 
ATOM     26  C   UNL     1      -0.885  -2.332  -0.003  0.00  0.00    +0.014 A 
ATOM     27  C   UNL     1      -1.943  -3.216   0.002  0.00  0.00    +0.001 A 
ATOM     28  C   UNL     1      -3.245  -2.747   0.017  0.00  0.00    +0.004 A 
ATOM     29  C   UNL     1      -3.497  -1.388   0.027  0.00  0.00    +0.046 A 
ATOM     30  C   UNL     1      -2.445  -0.487   0.028  0.00  0.00    +0.130 A 
BRANCH  30  31
ATOM     31  O   UNL     1      -2.692   0.849   0.044  0.00  0.00    -0.494 OA
ATOM     32  C   UNL     1      -4.062   1.255   0.065  0.00  0.00    +0.277 C 
ENDBRANCH  30  31
ENDBRANCH  23  25
ENDBRANCH  19  20
ENDBRANCH  18  19
ENDBRANCH   1  18
TORSDOF 7
