REMARK  Name = ZINC22322111
REMARK  14 active torsions:
REMARK  status: ('A' for Active; 'I' for Inactive)
REMARK    1  A    between atoms: C_1  and  C_2
REMARK    2  A    between atoms: C_2  and  O_3
REMARK    3  A    between atoms: O_3  and  C_4
REMARK    4  A    between atoms: C_9  and  N_10
REMARK    5  A    between atoms: N_10  and  C_11
REMARK    6  A    between atoms: N_10  and  S_30
REMARK    7  A    between atoms: C_11  and  C_12
REMARK    8  A    between atoms: N_14  and  C_15
REMARK    9  A    between atoms: C_15  and  C_16
REMARK   10  A    between atoms: C_16  and  C_18
REMARK   11  A    between atoms: C_16  and  C_19
REMARK   12  A    between atoms: C_19  and  C_20
REMARK   13  A    between atoms: S_30  and  C_33
REMARK   14  A    between atoms: C_36  and  C_39
REMARK                            x       y       z     vdW  Elec       q    Type
REMARK                         _______ _______ _______ _____ _____    ______ ____
ROOT
ATOM      1  N   UNL     1      -7.786   2.478  -4.438  0.00  0.00    -0.191 N 
ENDROOT
BRANCH   1   7
ATOM      2  C   UNL     1      -8.200   4.406  -3.035  0.00  0.00    +0.143 A 
ATOM      3  C   UNL     1      -8.369   5.774  -2.898  0.00  0.00    +0.047 A 
ATOM      4  C   UNL     1      -8.297   6.594  -4.009  0.00  0.00    +0.004 A 
ATOM      5  C   UNL     1      -8.056   6.053  -5.258  0.00  0.00    +0.002 A 
ATOM      6  C   UNL     1      -7.881   4.690  -5.403  0.00  0.00    +0.028 A 
ATOM      7  C   UNL     1      -7.957   3.860  -4.294  0.00  0.00    +0.093 A 
BRANCH   2   8
ATOM      8  O   UNL     1      -8.269   3.598  -1.943  0.00  0.00    -0.490 OA
BRANCH   8  10
ATOM      9  C   UNL     1      -8.564   3.166   0.416  0.00  0.00    +0.048 C 
ATOM     10  C   UNL     1      -8.521   4.227  -0.685  0.00  0.00    +0.226 C 
ENDBRANCH   8  10
ENDBRANCH   2   8
ENDBRANCH   1   7
BRANCH   1  11
ATOM     11  S   UNL     1      -9.106   1.493  -4.604  0.00  0.00    +0.075 S 
ATOM     12  O   UNL     1     -10.155   2.302  -5.116  0.00  0.00    -0.150 OA
ATOM     13  O   UNL     1      -8.656   0.320  -5.268  0.00  0.00    -0.150 OA
BRANCH  11  14
ATOM     14  C   UNL     1      -9.595   0.999  -2.985  0.00  0.00    +0.109 A 
ATOM     15  C   UNL     1      -9.070  -0.151  -2.425  0.00  0.00    +0.029 A 
ATOM     16  C   UNL     1      -9.450  -0.536  -1.153  0.00  0.00    +0.005 A 
ATOM     17  C   UNL     1     -10.362   0.223  -0.445  0.00  0.00    -0.050 A 
ATOM     18  C   UNL     1     -10.890   1.371  -1.006  0.00  0.00    +0.005 A 
ATOM     19  C   UNL     1     -10.507   1.758  -2.277  0.00  0.00    +0.029 A 
ATOM     20  C   UNL     1     -10.780  -0.199   0.940  0.00  0.00    +0.044 C 
ENDBRANCH  11  14
ENDBRANCH   1  11
BRANCH   1  21
ATOM     21  C   UNL     1      -6.438   1.905  -4.442  0.00  0.00    +0.227 C 
BRANCH  21  22
ATOM     22  C   UNL     1      -5.989   1.666  -3.023  0.00  0.00    +0.232 C 
ATOM     23  O   UNL     1      -6.723   1.948  -2.100  0.00  0.00    -0.274 OA
ATOM     24  N   UNL     1      -4.772   1.140  -2.781  0.00  0.00    -0.314 N 
ATOM     25  H   UNL     1      -4.107   0.884  -3.618  0.00  0.00    +0.149 HD
BRANCH  24  26
ATOM     26  C   UNL     1      -4.336   0.908  -1.401  0.00  0.00    +0.107 C 
BRANCH  26  27
ATOM     27  C   UNL     1      -2.928   0.309  -1.405  0.00  0.00    +0.007 C 
ATOM     28  C   UNL     1      -1.941   1.329  -1.976  0.00  0.00    +0.009 C 
BRANCH  27  29
ATOM     29  C   UNL     1      -2.522  -0.048   0.026  0.00  0.00    +0.040 C 
BRANCH  29  30
ATOM     30  C   UNL     1      -1.188  -0.750   0.009  0.00  0.00    -0.039 A 
ATOM     31  C   UNL     1      -1.131  -2.110   0.001  0.00  0.00    +0.004 A 
ATOM     32  C   UNL     1       0.092  -2.776  -0.015  0.00  0.00    +0.001 A 
ATOM     33  C   UNL     1       1.266  -2.087  -0.021  0.00  0.00    +0.008 A 
ATOM     34  C   UNL     1       1.247  -0.682  -0.013  0.00  0.00    -0.018 A 
ATOM     35  C   UNL     1       0.002  -0.004   0.002  0.00  0.00    -0.015 A 
ATOM     36  C   UNL     1      -0.017   1.401   0.010  0.00  0.00    +0.009 A 
ATOM     37  C   UNL     1       1.156   2.091   0.002  0.00  0.00    +0.001 A 
ATOM     38  C   UNL     1       2.380   1.424  -0.013  0.00  0.00    +0.001 A 
ATOM     39  C   UNL     1       2.438   0.064  -0.021  0.00  0.00    +0.008 A 
ENDBRANCH  29  30
ENDBRANCH  27  29
ENDBRANCH  26  27
ENDBRANCH  24  26
ENDBRANCH  21  22
ENDBRANCH   1  21
TORSDOF 11
