REMARK  Name = ZINC38872580
REMARK  7 active torsions:
REMARK  status: ('A' for Active; 'I' for Inactive)
REMARK    1  A    between atoms: C_1  and  C_2
REMARK    2  A    between atoms: C_2  and  C_4
REMARK    3  A    between atoms: C_2  and  N_11
REMARK    4  A    between atoms: C_12  and  C_14
REMARK    5  A    between atoms: N_17  and  C_20
REMARK    6  A    between atoms: C_20  and  C_21
REMARK    7  A    between atoms: C_23  and  C_26
REMARK                            x       y       z     vdW  Elec       q    Type
REMARK                         _______ _______ _______ _____ _____    ______ ____
ROOT
ATOM      1  C   UNL     1       2.736  -1.073  -2.455  0.00  0.00    +0.071 C 
ATOM      2  C   UNL     1       2.255  -2.486  -2.798  0.00  0.00    -0.006 C 
ATOM      3  C   UNL     1       3.032  -3.004  -4.010  0.00  0.00    -0.077 C 
ATOM      4  N   UNL     1       4.466  -3.036  -3.699  0.00  0.00    +0.386 N 
ATOM      5  C   UNL     1       4.950  -1.675  -3.439  0.00  0.00    -0.077 C 
ATOM      6  C   UNL     1       4.247  -1.106  -2.205  0.00  0.00    -0.006 C 
ATOM      7  H   UNL     1       4.619  -3.608  -2.882  0.00  0.00    -0.081 HD
ENDROOT
BRANCH   1   9
ATOM      8  N   UNL     1       0.688  -0.476  -1.203  0.00  0.00    -0.309 N 
ATOM      9  C   UNL     1       2.031  -0.587  -1.215  0.00  0.00    +0.216 C 
ATOM     10  O   UNL     1       2.672  -0.295  -0.228  0.00  0.00    -0.276 OA
ATOM     11  H   UNL     1       0.175  -0.710  -1.993  0.00  0.00    +0.149 HD
BRANCH   8  13
ATOM     12  C   UNL     1      -0.019   1.526   0.010  0.00  0.00    +0.033 C 
ATOM     13  C   UNL     1       0.002  -0.004   0.002  0.00  0.00    +0.100 C 
BRANCH  13  14
ATOM     14  C   UNL     1      -1.412  -0.526   0.013  0.00  0.00    -0.027 A 
ATOM     15  C   UNL     1      -2.141  -0.569  -1.161  0.00  0.00    +0.008 A 
ATOM     16  C   UNL     1      -3.437  -1.047  -1.153  0.00  0.00    +0.038 A 
ATOM     17  C   UNL     1      -4.006  -1.484   0.032  0.00  0.00    +0.123 A 
ATOM     18  C   UNL     1      -3.275  -1.440   1.207  0.00  0.00    +0.038 A 
ATOM     19  C   UNL     1      -1.976  -0.966   1.195  0.00  0.00    +0.008 A 
ATOM     20  F   UNL     1      -5.273  -1.951   0.042  0.00  0.00    -0.205 F 
ENDBRANCH  13  14
ENDBRANCH   8  13
ENDBRANCH   1   9
BRANCH   4  21
ATOM     21  C   UNL     1       5.199  -3.607  -4.836  0.00  0.00    +0.022 C 
BRANCH  21  22
ATOM     22  C   UNL     1       6.654  -3.755  -4.473  0.00  0.00    +0.211 A 
ATOM     23  N   UNL     1       7.200  -4.805  -3.928  0.00  0.00    -0.193 NA
ATOM     24  C   UNL     1       8.515  -4.595  -3.740  0.00  0.00    +0.203 A 
ATOM     25  N   UNL     1       8.813  -3.394  -4.171  0.00  0.00    -0.056 NA
ATOM     26  O   UNL     1       7.606  -2.831  -4.660  0.00  0.00    -0.340 OA
BRANCH  24  27
ATOM     27  C   UNL     1       9.469  -5.563  -3.145  0.00  0.00    +0.041 A 
ATOM     28  C   UNL     1       9.025  -6.817  -2.729  0.00  0.00    +0.014 A 
ATOM     29  C   UNL     1       9.916  -7.713  -2.176  0.00  0.00    +0.021 A 
ATOM     30  C   UNL     1      11.250  -7.370  -2.033  0.00  0.00    +0.042 A 
ATOM     31  C   UNL     1      11.697  -6.126  -2.443  0.00  0.00    +0.040 A 
ATOM     32  C   UNL     1      10.814  -5.223  -3.004  0.00  0.00    +0.053 A 
ATOM     33 CL   UNL     1      11.377  -3.666  -3.526  0.00  0.00    -0.083 Cl
ATOM     34 CL   UNL     1      12.365  -8.503  -1.336  0.00  0.00    -0.083 Cl
ENDBRANCH  24  27
ENDBRANCH  21  22
ENDBRANCH   4  21
TORSDOF 6
