REMARK  Name = ZINC20882673
REMARK  9 active torsions:
REMARK  status: ('A' for Active; 'I' for Inactive)
REMARK    1  A    between atoms: C_1  and  C_2
REMARK    2  A    between atoms: C_2  and  C_3
REMARK    3  A    between atoms: C_2  and  O_4
REMARK    4  A    between atoms: O_4  and  C_5
REMARK    5  A    between atoms: C_8  and  C_13
REMARK    6  A    between atoms: C_10  and  O_11
REMARK    7  A    between atoms: O_11  and  C_12
REMARK    8  A    between atoms: C_18  and  C_24
REMARK    9  A    between atoms: C_28  and  N_30
REMARK                            x       y       z     vdW  Elec       q    Type
REMARK                         _______ _______ _______ _____ _____    ______ ____
ROOT
ATOM      1  C   UNL     1       2.176   4.309  -0.269  0.00  0.00    +0.032 C 
ATOM      2  C   UNL     1       0.953   3.569   0.276  0.00  0.00    +0.059 C 
ATOM      3  C   UNL     1       0.980   2.134  -0.189  0.00  0.00    +0.018 C 
ATOM      4  C   UNL     1       2.151   1.500  -0.407  0.00  0.00    +0.020 C 
ATOM      5  C   UNL     1       2.154   0.059  -0.862  0.00  0.00    +0.063 C 
ATOM      6  C   UNL     1       0.979  -0.679  -0.219  0.00  0.00    +0.109 C 
ATOM      7  C   UNL     1      -0.274   0.139  -0.397  0.00  0.00    +0.218 C 
ATOM      8  O   UNL     1      -1.342  -0.414  -0.550  0.00  0.00    -0.275 OA
ATOM      9  N   UNL     1      -0.211   1.482  -0.386  0.00  0.00    -0.289 N 
ATOM     10  C   UNL     1       3.382   2.151  -0.220  0.00  0.00    +0.162 C 
ATOM     11  O   UNL     1       4.416   1.544  -0.415  0.00  0.00    -0.292 OA
ATOM     12  C   UNL     1       3.439   3.590   0.218  0.00  0.00    +0.088 C 
ATOM     13  H   UNL     1      -1.135   2.059  -0.537  0.00  0.00    +0.155 HD
ENDROOT
BRANCH   1  17
ATOM     14  C   UNL     1       2.175   8.335   1.174  0.00  0.00    +0.162 A 
ATOM     15  C   UNL     1       2.196   7.276   2.067  0.00  0.00    +0.050 A 
ATOM     16  C   UNL     1       2.196   5.976   1.598  0.00  0.00    +0.008 A 
ATOM     17  C   UNL     1       2.175   5.729   0.238  0.00  0.00    -0.040 A 
ATOM     18  C   UNL     1       2.160   6.781  -0.659  0.00  0.00    +0.053 A 
ATOM     19  C   UNL     1       2.154   8.086  -0.195  0.00  0.00    +0.162 A 
BRANCH  19  20
ATOM     20  O   UNL     1       2.134   9.123  -1.076  0.00  0.00    -0.491 OA
ATOM     21  C   UNL     1       2.113   8.792  -2.466  0.00  0.00    +0.277 C 
ENDBRANCH  19  20
BRANCH  14  22
ATOM     22  O   UNL     1       2.176   9.615   1.634  0.00  0.00    -0.486 OA
BRANCH  22  24
ATOM     23  C   UNL     1       2.911  11.181   3.321  0.00  0.00    +0.051 C 
ATOM     24  C   UNL     1       2.320   9.797   3.044  0.00  0.00    +0.167 C 
ATOM     25  C   UNL     1       0.950   9.684   3.716  0.00  0.00    +0.051 C 
ENDBRANCH  22  24
ENDBRANCH  14  22
ENDBRANCH   1  17
BRANCH   5  26
ATOM     26  C   UNL     1       2.022   0.006  -2.362  0.00  0.00    -0.037 A 
ATOM     27  C   UNL     1       0.907   0.544  -2.977  0.00  0.00    +0.004 A 
ATOM     28  C   UNL     1       0.788   0.500  -4.354  0.00  0.00    +0.003 A 
ATOM     29  C   UNL     1       1.779  -0.092  -5.114  0.00  0.00    +0.033 A 
ATOM     30  C   UNL     1       2.890  -0.636  -4.499  0.00  0.00    +0.126 A 
ATOM     31  C   UNL     1       3.012  -0.587  -3.123  0.00  0.00    +0.037 A 
BRANCH  30  32
ATOM     32  N   UNL     1       3.951  -1.270  -5.313  0.00  0.00    +0.056 N 
ATOM     33  O   UNL     1       4.931  -1.749  -4.771  0.00  0.00    -0.126 OA
ATOM     34  O   UNL     1       3.844  -1.314  -6.526  0.00  0.00    -0.126 OA
ENDBRANCH  30  32
ENDBRANCH   5  26
TORSDOF 6
