REMARK  Name = ZINC35415728
REMARK  6 active torsions:
REMARK  status: ('A' for Active; 'I' for Inactive)
REMARK    1  A    between atoms: C_1  and  C_2
REMARK    2  A    between atoms: C_4  and  N_19
REMARK    3  A    between atoms: C_6  and  C_9
REMARK    4  A    between atoms: C_7  and  O_8
REMARK    5  A    between atoms: N_10  and  C_11
REMARK    6  A    between atoms: C_16  and  O_17
REMARK                            x       y       z     vdW  Elec       q    Type
REMARK                         _______ _______ _______ _____ _____    ______ ____
ROOT
ATOM      1  C   UNL     1      -0.350   1.401  -0.072  0.00  0.00    +0.047 C 
ATOM      2  C   UNL     1      -0.032  -0.072  -0.039  0.00  0.00    -0.006 A 
ATOM      3  C   UNL     1       0.240  -0.746  -1.214  0.00  0.00    +0.039 A 
ATOM      4  C   UNL     1       0.533  -2.099  -1.195  0.00  0.00    +0.127 A 
ATOM      5  C   UNL     1       0.556  -2.789  -0.002  0.00  0.00    +0.045 A 
ATOM      6  C   UNL     1       0.283  -2.120   1.195  0.00  0.00    +0.037 A 
ATOM      7  C   UNL     1      -0.009  -0.747   1.171  0.00  0.00    +0.128 A 
ENDROOT
BRANCH   4   8
ATOM      8  N   UNL     1       0.823  -2.808  -2.461  0.00  0.00    +0.056 N 
ATOM      9  O   UNL     1       0.803  -2.206  -3.509  0.00  0.00    -0.126 OA
ATOM     10  O   UNL     1       1.079  -3.990  -2.447  0.00  0.00    -0.126 OA
ENDBRANCH   4   8
BRANCH   7  11
ATOM     11  O   UNL     1      -0.270  -0.085   2.326  0.00  0.00    -0.506 OA
ATOM     12  H   UNL     1      -1.205  -0.081   2.574  0.00  0.00    +0.292 HD
ENDBRANCH   7  11
BRANCH   6  13
ATOM     13  C   UNL     1       0.305  -2.849   2.472  0.00  0.00    +0.123 C 
ATOM     14  N   UNL     1       0.049  -2.221   3.586  0.00  0.00    -0.251 NA
BRANCH  14  15
ATOM     15  C   UNL     1      -0.039  -2.919   4.760  0.00  0.00    +0.107 A 
ATOM     16  C   UNL     1      -0.808  -4.081   4.829  0.00  0.00    +0.051 A 
ATOM     17  C   UNL     1      -0.893  -4.781   6.016  0.00  0.00    +0.043 A 
ATOM     18  C   UNL     1      -0.217  -4.333   7.139  0.00  0.00    +0.024 A 
ATOM     19  C   UNL     1       0.548  -3.183   7.082  0.00  0.00    +0.049 A 
ATOM     20  C   UNL     1       0.647  -2.473   5.897  0.00  0.00    +0.142 A 
ATOM     21 CL   UNL     1      -1.850  -6.226   6.102  0.00  0.00    -0.083 Cl
BRANCH  20  22
ATOM     22  O   UNL     1       1.403  -1.345   5.839  0.00  0.00    -0.505 OA
ATOM     23  H   UNL     1       0.920  -0.536   6.056  0.00  0.00    +0.292 HD
ENDBRANCH  20  22
ENDBRANCH  14  15
ENDBRANCH   6  13
TORSDOF 5
