REMARK  Name = ZINC07825270
REMARK  5 active torsions:
REMARK  status: ('A' for Active; 'I' for Inactive)
REMARK    1  A    between atoms: C_1  and  C_2
REMARK    2  A    between atoms: C_5  and  O_22
REMARK    3  A    between atoms: C_6  and  C_8
REMARK    4  A    between atoms: C_8  and  N_9
REMARK    5  A    between atoms: O_22  and  C_23
REMARK                            x       y       z     vdW  Elec       q    Type
REMARK                         _______ _______ _______ _____ _____    ______ ____
ROOT
ATOM      1  N   UNL     1      -4.492   3.890   2.172  0.00  0.00    -0.220 N 
ATOM      2  C   UNL     1      -4.635   4.759   3.196  0.00  0.00    +0.247 C 
ATOM      3  O   UNL     1      -4.567   4.514   4.381  0.00  0.00    -0.273 OA
ATOM      4  C   UNL     1      -4.894   6.100   2.552  0.00  0.00    +0.113 C 
ATOM      5  C   UNL     1      -6.206   6.685   2.991  0.00  0.00    +0.035 C 
ATOM      6  C   UNL     1      -6.915   7.448   1.852  0.00  0.00    +0.003 C 
ATOM      7  C   UNL     1      -5.942   8.302   1.013  0.00  0.00    +0.000 C 
ATOM      8  C   UNL     1      -4.926   9.018   1.859  0.00  0.00    +0.000 C 
ATOM      9  C   UNL     1      -3.649   8.157   1.927  0.00  0.00    +0.003 C 
ATOM     10  C   UNL     1      -3.758   7.079   2.901  0.00  0.00    +0.035 C 
ATOM     11  N   UNL     1      -4.877   5.816   1.111  0.00  0.00    -0.285 N 
ATOM     12  C   UNL     1      -4.633   4.497   0.988  0.00  0.00    +0.310 C 
ATOM     13  O   UNL     1      -4.549   3.923  -0.080  0.00  0.00    -0.252 OA
ATOM     14  H   UNL     1      -5.014   6.452   0.392  0.00  0.00    +0.151 HD
ENDROOT
BRANCH   1  15
ATOM     15  C   UNL     1      -4.222   2.460   2.338  0.00  0.00    +0.156 C 
BRANCH  15  21
ATOM     16  C   UNL     1      -0.013   1.086   0.008  0.00  0.00    +0.044 C 
ATOM     17  C   UNL     1      -0.718   1.572   1.248  0.00  0.00    -0.050 A 
ATOM     18  C   UNL     1       0.002   1.805   2.405  0.00  0.00    +0.007 A 
ATOM     19  C   UNL     1      -0.642   2.250   3.543  0.00  0.00    +0.046 A 
ATOM     20  C   UNL     1      -2.013   2.463   3.524  0.00  0.00    +0.125 A 
ATOM     21  C   UNL     1      -2.733   2.229   2.362  0.00  0.00    +0.012 A 
ATOM     22  C   UNL     1      -2.083   1.789   1.225  0.00  0.00    +0.012 A 
BRANCH  20  23
ATOM     23  O   UNL     1      -2.649   2.901   4.643  0.00  0.00    -0.495 OA
ATOM     24  C   UNL     1      -1.845   3.121   5.803  0.00  0.00    +0.277 C 
ENDBRANCH  20  23
ENDBRANCH  15  21
ENDBRANCH   1  15
TORSDOF 3
