REMARK  Name = ZINC52566187
REMARK  9 active torsions:
REMARK  status: ('A' for Active; 'I' for Inactive)
REMARK    1  A    between atoms: C_1  and  C_2
REMARK    2  A    between atoms: C_2  and  C_34
REMARK    3  A    between atoms: C_6  and  C_13
REMARK    4  A    between atoms: C_15  and  O_19
REMARK    5  A    between atoms: O_19  and  C_20
REMARK    6  A    between atoms: C_20  and  C_21
REMARK    7  A    between atoms: C_21  and  C_23
REMARK    8  A    between atoms: C_21  and  N_33
REMARK    9  A    between atoms: C_23  and  C_24
REMARK                            x       y       z     vdW  Elec       q    Type
REMARK                         _______ _______ _______ _____ _____    ______ ____
ROOT
ATOM      1  C   UNL     1      -0.322  -5.666   0.040  0.00  0.00    +0.004 A 
ATOM      2  C   UNL     1      -0.378  -6.973   0.529  0.00  0.00    +0.057 A 
ATOM      3  C   UNL     1      -0.485  -8.013  -0.386  0.00  0.00    +0.139 A 
ATOM      4  C   UNL     1      -0.532  -7.720  -1.742  0.00  0.00    +0.156 A 
ATOM      5  N   UNL     1      -0.476  -6.473  -2.168  0.00  0.00    -0.259 NA
ATOM      6  C   UNL     1      -0.381  -5.456  -1.336  0.00  0.00    +0.119 A 
ENDROOT
BRANCH   1  12
ATOM      7  C   UNL     1      -0.036   1.502   0.008  0.00  0.00    +0.039 C 
ATOM      8  C   UNL     1       0.002  -0.004   0.002  0.00  0.00    -0.063 C 
ATOM      9  C   UNL     1       0.023  -0.680   1.164  0.00  0.00    +0.045 C 
ATOM     10  C   UNL     1      -0.052  -2.151   1.357  0.00  0.00    +0.009 A 
ATOM     11  C   UNL     1      -0.158  -3.217   0.476  0.00  0.00    +0.019 A 
ATOM     12  C   UNL     1      -0.208  -4.517   0.972  0.00  0.00    -0.016 A 
ATOM     13  C   UNL     1      -0.150  -4.737   2.349  0.00  0.00    +0.010 A 
ATOM     14  C   UNL     1      -0.045  -3.676   3.222  0.00  0.00    +0.024 A 
ATOM     15  C   UNL     1       0.006  -2.371   2.739  0.00  0.00    +0.042 A 
ATOM     16  N   UNL     1       0.110  -1.150   3.396  0.00  0.00    -0.281 N 
ATOM     17  C   UNL     1       0.131  -0.123   2.530  0.00  0.00    +0.249 C 
ATOM     18  O   UNL     1       0.220   1.055   2.819  0.00  0.00    -0.270 OA
ATOM     19  C   UNL     1       0.018  -0.752  -1.306  0.00  0.00    +0.039 C 
ATOM     20  H   UNL     1       0.165  -1.053   4.360  0.00  0.00    +0.155 HD
ENDBRANCH   1  12
BRANCH   3  21
ATOM     21  O   UNL     1      -0.543  -9.302   0.042  0.00  0.00    -0.492 OA
BRANCH  21  22
ATOM     22  C   UNL     1      -0.652 -10.314  -0.961  0.00  0.00    +0.213 C 
BRANCH  22  23
ATOM     23  C   UNL     1      -0.704 -11.690  -0.294  0.00  0.00    -0.033 C 
BRANCH  23  24
ATOM     24  N   UNL     1      -1.931 -11.801   0.506  0.00  0.00    +0.382 N 
ATOM     25  H   UNL     1      -2.734 -11.688  -0.094  0.00  0.00    -0.089 HD
ATOM     26  H   UNL     1      -1.965 -12.708   0.946  0.00  0.00    -0.089 HD
ATOM     27  H   UNL     1      -1.937 -11.083   1.215  0.00  0.00    -0.089 HD
ENDBRANCH  23  24
BRANCH  23  28
ATOM     28  C   UNL     1      -0.695 -12.779  -1.369  0.00  0.00    +0.020 C 
BRANCH  28  29
ATOM     29  C   UNL     1      -0.622 -14.133  -0.712  0.00  0.00    -0.043 C 
ATOM     30  C   UNL     1      -1.658 -14.949  -0.413  0.00  0.00    -0.001 A 
ATOM     31  C   UNL     1      -3.108 -14.824  -0.602  0.00  0.00    +0.010 A 
ATOM     32  C   UNL     1      -3.912 -15.831  -0.190  0.00  0.00    +0.001 A 
ATOM     33  C   UNL     1      -3.397 -16.987   0.412  0.00  0.00    +0.002 A 
ATOM     34  C   UNL     1      -2.076 -17.174   0.619  0.00  0.00    +0.026 A 
ATOM     35  C   UNL     1      -1.139 -16.180   0.225  0.00  0.00    +0.043 A 
ATOM     36  N   UNL     1       0.168 -16.127   0.317  0.00  0.00    -0.380 N 
ATOM     37  C   UNL     1       0.626 -14.857  -0.259  0.00  0.00    +0.144 C 
ATOM     38  H   UNL     1       0.737 -16.814   0.697  0.00  0.00    +0.160 HD
ENDBRANCH  28  29
ENDBRANCH  23  28
ENDBRANCH  22  23
ENDBRANCH  21  22
ENDBRANCH   3  21
TORSDOF 7
