REMARK  Name = ZINC10038717
REMARK  9 active torsions:
REMARK  status: ('A' for Active; 'I' for Inactive)
REMARK    1  A    between atoms: C_1  and  C_2
REMARK    2  A    between atoms: N_4  and  C_5
REMARK    3  A    between atoms: C_8  and  S_11
REMARK    4  A    between atoms: S_11  and  N_14
REMARK    5  A    between atoms: N_14  and  C_15
REMARK    6  A    between atoms: C_15  and  C_16
REMARK    7  A    between atoms: C_16  and  N_49
REMARK    8  A    between atoms: C_17  and  C_18
REMARK    9  A    between atoms: C_17  and  N_49
REMARK                            x       y       z     vdW  Elec       q    Type
REMARK                         _______ _______ _______ _____ _____    ______ ____
ROOT
ATOM      1  N   UNL     1      -1.864   2.656   1.614  0.00  0.00    -0.192 NA
ATOM      2  H   UNL     1      -2.622   2.274   2.084  0.00  0.00    +0.148 HD
ENDROOT
BRANCH   1   3
ATOM      3  S   UNL     1      -1.561   2.227   0.044  0.00  0.00    +0.058 S 
ATOM      4  O   UNL     1      -1.363   3.436  -0.676  0.00  0.00    -0.153 OA
ATOM      5  O   UNL     1      -2.556   1.278  -0.317  0.00  0.00    -0.153 OA
BRANCH   3   9
ATOM      6  C   UNL     1       2.398   0.029  -0.016  0.00  0.00    +0.033 A 
ATOM      7  C   UNL     1       1.215  -0.674   0.171  0.00  0.00    +0.025 A 
ATOM      8  C   UNL     1       0.010  -0.000   0.191  0.00  0.00    +0.030 A 
ATOM      9  C   UNL     1      -0.020   1.372   0.025  0.00  0.00    +0.105 A 
ATOM     10  C   UNL     1       1.156   2.075  -0.161  0.00  0.00    +0.030 A 
ATOM     11  C   UNL     1       2.365   1.407  -0.181  0.00  0.00    +0.025 A 
BRANCH   6  15
ATOM     12  C   UNL     1       4.979  -2.676  -0.452  0.00  0.00    +0.109 C 
ATOM     13  C   UNL     1       3.690  -1.900  -0.537  0.00  0.00    +0.214 C 
ATOM     14  O   UNL     1       2.715  -2.400  -1.056  0.00  0.00    -0.276 OA
ATOM     15  N   UNL     1       3.622  -0.651  -0.036  0.00  0.00    -0.286 N 
ATOM     16  H   UNL     1       4.420  -0.222   0.310  0.00  0.00    +0.155 HD
ENDBRANCH   6  15
ENDBRANCH   3   9
ENDBRANCH   1   3
BRANCH   1  17
ATOM     17  C   UNL     1      -0.987   3.612   2.295  0.00  0.00    +0.087 C 
BRANCH  17  18
ATOM     18  C   UNL     1      -1.673   4.118   3.566  0.00  0.00    -0.066 C 
BRANCH  18  19
ATOM     19  N   UNL     1      -0.784   5.080   4.244  0.00  0.00    +0.380 N 
ATOM     20  H   UNL     1      -0.593   5.867   3.614  0.00  0.00    -0.086 HD
ATOM     21  H   UNL     1       0.098   4.613   4.486  0.00  0.00    -0.086 HD
BRANCH  19  22
ATOM     22  C   UNL     1      -1.421   5.585   5.475  0.00  0.00    -0.079 C 
BRANCH  22  23
ATOM     23  C   UNL     1      -0.477   6.579   6.156  0.00  0.00    -0.021 C 
ATOM     24  C   UNL     1       0.771   5.850   6.713  0.00  0.00    +0.010 C 
ATOM     25  C   UNL     1       0.674   6.086   8.257  0.00  0.00    +0.012 C 
ATOM     26  C   UNL     1       0.126   7.582   8.261  0.00  0.00    +0.015 C 
ATOM     27  C   UNL     1      -1.149   7.191   7.426  0.00  0.00    +0.013 C 
ATOM     28  C   UNL     1      -1.640   5.971   8.214  0.00  0.00    -0.027 C 
ATOM     29  C   UNL     1      -0.590   5.334   8.693  0.00  0.00    -0.027 C 
ENDBRANCH  22  23
ENDBRANCH  19  22
ENDBRANCH  18  19
ENDBRANCH  17  18
ENDBRANCH   1  17
TORSDOF 8
