REMARK  Name = ZINC12377268
REMARK  7 active torsions:
REMARK  status: ('A' for Active; 'I' for Inactive)
REMARK    1  A    between atoms: C_7  and  C_21
REMARK    2  A    between atoms: C_7  and  C_28
REMARK    3  A    between atoms: N_10  and  C_11
REMARK    4  A    between atoms: C_11  and  C_12
REMARK    5  A    between atoms: C_15  and  N_18
REMARK    6  A    between atoms: C_24  and  O_27
REMARK    7  A    between atoms: C_31  and  O_34
REMARK                            x       y       z     vdW  Elec       q    Type
REMARK                         _______ _______ _______ _____ _____    ______ ____
ROOT
ATOM      1  C   UNL     1       2.248   0.460  -0.663  0.00  0.00    +0.000 A 
ATOM      2  C   UNL     1       2.066   1.830  -0.700  0.00  0.00    +0.002 A 
ATOM      3  C   UNL     1       0.812   2.373  -0.512  0.00  0.00    +0.024 A 
ATOM      4  C   UNL     1      -0.283   1.542  -0.284  0.00  0.00    +0.041 A 
ATOM      5  C   UNL     1      -0.087   0.167  -0.249  0.00  0.00    -0.002 A 
ATOM      6  C   UNL     1       1.166  -0.372  -0.436  0.00  0.00    +0.007 A 
ATOM      7  C   UNL     1      -1.442  -0.449   0.014  0.00  0.00    +0.124 C 
ATOM      8  C   UNL     1      -2.374   0.740   0.114  0.00  0.00    +0.239 C 
ATOM      9  O   UNL     1      -3.568   0.704   0.320  0.00  0.00    -0.274 OA
ATOM     10  N   UNL     1      -1.627   1.843  -0.064  0.00  0.00    -0.265 N 
ENDROOT
BRANCH   7  11
ATOM     11  C   UNL     1      -1.847  -1.342  -1.130  0.00  0.00    -0.024 A 
ATOM     12  C   UNL     1      -2.936  -1.008  -1.915  0.00  0.00    +0.009 A 
ATOM     13  C   UNL     1      -3.306  -1.822  -2.968  0.00  0.00    +0.046 A 
ATOM     14  C   UNL     1      -2.591  -2.982  -3.231  0.00  0.00    +0.117 A 
ATOM     15  C   UNL     1      -1.502  -3.317  -2.439  0.00  0.00    +0.046 A 
ATOM     16  C   UNL     1      -1.133  -2.497  -1.391  0.00  0.00    +0.009 A 
BRANCH  14  17
ATOM     17  O   UNL     1      -2.956  -3.788  -4.262  0.00  0.00    -0.507 OA
ATOM     18  H   UNL     1      -3.595  -4.472  -4.019  0.00  0.00    +0.292 HD
ENDBRANCH  14  17
ENDBRANCH   7  11
BRANCH   7  19
ATOM     19  C   UNL     1      -1.429  -1.223   1.307  0.00  0.00    -0.024 A 
ATOM     20  C   UNL     1      -0.313  -1.185   2.123  0.00  0.00    +0.009 A 
ATOM     21  C   UNL     1      -0.300  -1.889   3.311  0.00  0.00    +0.046 A 
ATOM     22  C   UNL     1      -1.404  -2.644   3.680  0.00  0.00    +0.117 A 
ATOM     23  C   UNL     1      -2.520  -2.686   2.857  0.00  0.00    +0.046 A 
ATOM     24  C   UNL     1      -2.530  -1.975   1.673  0.00  0.00    +0.009 A 
BRANCH  22  25
ATOM     25  O   UNL     1      -1.391  -3.343   4.846  0.00  0.00    -0.507 OA
ATOM     26  H   UNL     1      -1.050  -4.244   4.761  0.00  0.00    +0.292 HD
ENDBRANCH  22  25
ENDBRANCH   7  19
BRANCH  10  27
ATOM     27  C   UNL     1      -2.165   3.206  -0.038  0.00  0.00    +0.148 C 
BRANCH  27  28
ATOM     28  C   UNL     1      -2.594   3.603  -1.427  0.00  0.00    -0.030 A 
ATOM     29  C   UNL     1      -1.698   4.226  -2.275  0.00  0.00    +0.007 A 
ATOM     30  C   UNL     1      -2.090   4.587  -3.551  0.00  0.00    +0.033 A 
ATOM     31  C   UNL     1      -3.381   4.332  -3.975  0.00  0.00    +0.126 A 
ATOM     32  C   UNL     1      -4.279   3.714  -3.124  0.00  0.00    +0.033 A 
ATOM     33  C   UNL     1      -3.885   3.349  -1.850  0.00  0.00    +0.007 A 
BRANCH  31  34
ATOM     34  N   UNL     1      -3.802   4.722  -5.339  0.00  0.00    +0.056 N 
ATOM     35  O   UNL     1      -4.940   4.497  -5.713  0.00  0.00    -0.126 OA
ATOM     36  O   UNL     1      -3.011   5.266  -6.088  0.00  0.00    -0.126 OA
ENDBRANCH  31  34
ENDBRANCH  27  28
ENDBRANCH  10  27
TORSDOF 7
