REMARK  Name = ZINC12705374
REMARK  7 active torsions:
REMARK  status: ('A' for Active; 'I' for Inactive)
REMARK    1  A    between atoms: C_4  and  C_7
REMARK    2  A    between atoms: C_10  and  C_13
REMARK    3  A    between atoms: N_15  and  C_16
REMARK    4  A    between atoms: N_15  and  C_22
REMARK    5  A    between atoms: C_22  and  C_24
REMARK    6  A    between atoms: C_22  and  C_31
REMARK    7  A    between atoms: N_33  and  C_34
REMARK                            x       y       z     vdW  Elec       q    Type
REMARK                         _______ _______ _______ _____ _____    ______ ____
ROOT
ATOM      1  C   UNL     1       5.501  -3.734   0.695  0.00  0.00    +0.268 C 
ATOM      2  O   UNL     1       5.217  -2.566   0.505  0.00  0.00    -0.268 OA
ATOM      3  N   UNL     1       5.307  -4.643  -0.281  0.00  0.00    -0.250 N 
ENDROOT
BRANCH   1   7
ATOM      4  C   UNL     1       6.956  -5.403   3.591  0.00  0.00    +0.047 A 
ATOM      5  C   UNL     1       6.760  -4.141   4.109  0.00  0.00    +0.028 A 
ATOM      6  C   UNL     1       6.195  -3.356   3.105  0.00  0.00    +0.033 A 
ATOM      7  C   UNL     1       6.055  -4.152   1.986  0.00  0.00    +0.103 A 
ATOM      8  N   UNL     1       6.531  -5.407   2.295  0.00  0.00    -0.351 N 
ATOM      9  H   UNL     1       6.557  -6.167   1.692  0.00  0.00    +0.166 HD
BRANCH   4  13
ATOM     10  C   UNL     1       8.616  -8.713   5.672  0.00  0.00    +0.000 A 
ATOM     11  C   UNL     1       8.554  -7.474   6.286  0.00  0.00    +0.001 A 
ATOM     12  C   UNL     1       8.016  -6.395   5.616  0.00  0.00    +0.010 A 
ATOM     13  C   UNL     1       7.534  -6.555   4.315  0.00  0.00    -0.002 A 
ATOM     14  C   UNL     1       7.599  -7.807   3.702  0.00  0.00    +0.010 A 
ATOM     15  C   UNL     1       8.139  -8.878   4.384  0.00  0.00    +0.001 A 
ENDBRANCH   4  13
ENDBRANCH   1   7
BRANCH   3  16
ATOM     16  C   UNL     1       4.888  -4.229  -1.549  0.00  0.00    +0.038 A 
ATOM     17  C   UNL     1       3.631  -3.663  -1.715  0.00  0.00    +0.023 A 
ATOM     18  C   UNL     1       3.220  -3.254  -2.969  0.00  0.00    +0.002 A 
ATOM     19  C   UNL     1       4.059  -3.409  -4.058  0.00  0.00    +0.000 A 
ATOM     20  C   UNL     1       5.311  -3.972  -3.895  0.00  0.00    +0.002 A 
ATOM     21  C   UNL     1       5.730  -4.377  -2.643  0.00  0.00    +0.023 A 
ENDBRANCH   3  16
BRANCH   3  22
ATOM     22  C   UNL     1       5.536  -6.065  -0.013  0.00  0.00    +0.197 C 
BRANCH  22  23
ATOM     23  C   UNL     1       5.328  -6.854  -1.280  0.00  0.00    -0.018 A 
ATOM     24  C   UNL     1       4.207  -6.630  -2.058  0.00  0.00    +0.009 A 
ATOM     25  C   UNL     1       4.016  -7.353  -3.220  0.00  0.00    +0.038 A 
ATOM     26  C   UNL     1       4.947  -8.302  -3.606  0.00  0.00    +0.123 A 
ATOM     27  C   UNL     1       6.069  -8.526  -2.826  0.00  0.00    +0.038 A 
ATOM     28  C   UNL     1       6.261  -7.798  -1.667  0.00  0.00    +0.009 A 
ATOM     29  F   UNL     1       4.761  -9.009  -4.741  0.00  0.00    -0.205 F 
ENDBRANCH  22  23
BRANCH  22  30
ATOM     30  C   UNL     1       4.568  -6.541   1.039  0.00  0.00    +0.239 C 
ATOM     31  O   UNL     1       3.694  -5.800   1.438  0.00  0.00    -0.273 OA
ATOM     32  N   UNL     1       4.673  -7.789   1.537  0.00  0.00    -0.311 N 
ATOM     33  H   UNL     1       5.410  -8.358   1.267  0.00  0.00    +0.149 HD
BRANCH  32  34
ATOM     34  C   UNL     1       3.673  -8.285   2.486  0.00  0.00    +0.073 C 
ATOM     35  C   UNL     1       3.984  -7.747   3.883  0.00  0.00    +0.022 C 
ATOM     36  C   UNL     1       2.940  -8.266   4.874  0.00  0.00    +0.002 C 
ATOM     37  C   UNL     1       2.974  -9.795   4.897  0.00  0.00    +0.000 C 
ATOM     38  C   UNL     1       2.663 -10.333   3.499  0.00  0.00    +0.002 C 
ATOM     39  C   UNL     1       3.707  -9.815   2.509  0.00  0.00    +0.022 C 
ENDBRANCH  32  34
ENDBRANCH  22  30
ENDBRANCH   3  22
TORSDOF 7
