REMARK  Name = ZINC08964758
REMARK  10 active torsions:
REMARK  status: ('A' for Active; 'I' for Inactive)
REMARK    1  A    between atoms: C_1  and  N_2
REMARK    2  A    between atoms: C_4  and  C_11
REMARK    3  A    between atoms: C_12  and  C_13
REMARK    4  A    between atoms: C_12  and  N_28
REMARK    5  A    between atoms: N_15  and  C_16
REMARK    6  A    between atoms: C_16  and  C_17
REMARK    7  A    between atoms: C_17  and  C_18
REMARK    8  A    between atoms: C_29  and  C_31
REMARK    9  A    between atoms: C_34  and  O_37
REMARK   10  A    between atoms: O_37  and  C_38
REMARK                            x       y       z     vdW  Elec       q    Type
REMARK                         _______ _______ _______ _____ _____    ______ ____
ROOT
ATOM      1  C   UNL     1       1.256  -4.741  -0.283  0.00  0.00    +0.038 C 
ATOM      2  C   UNL     1       2.473  -4.153  -0.158  0.00  0.00    +0.097 C 
ENDROOT
BRANCH   1   6
ATOM      3  C   UNL     1       2.538  -9.519  -0.988  0.00  0.00    +0.149 C 
ATOM      4  N   UNL     1       1.715  -8.313  -0.866  0.00  0.00    -0.349 N 
ATOM      5  C   UNL     1       2.194  -7.071  -0.593  0.00  0.00    +0.094 A 
ATOM      6  C   UNL     1       1.162  -6.179  -0.549  0.00  0.00    +0.002 A 
ATOM      7  C   UNL     1      -0.068  -6.949  -0.815  0.00  0.00    +0.007 A 
ATOM      8  C   UNL     1       0.343  -8.278  -1.011  0.00  0.00    +0.049 A 
ATOM      9  C   UNL     1      -0.610  -9.252  -1.288  0.00  0.00    +0.026 A 
ATOM     10  C   UNL     1      -1.941  -8.908  -1.374  0.00  0.00    +0.002 A 
ATOM     11  C   UNL     1      -2.345  -7.594  -1.186  0.00  0.00    +0.001 A 
ATOM     12  C   UNL     1      -1.416  -6.614  -0.910  0.00  0.00    +0.010 A 
ENDBRANCH   1   6
BRANCH   2  13
ATOM     13  C   UNL     1       3.686  -4.972  -0.154  0.00  0.00    +0.258 C 
ATOM     14  O   UNL     1       4.297  -5.161  -1.190  0.00  0.00    -0.269 OA
ATOM     15  N   UNL     1       4.126  -5.518   0.997  0.00  0.00    -0.310 N 
ATOM     16  H   UNL     1       3.600  -5.431   1.808  0.00  0.00    +0.149 HD
BRANCH  15  17
ATOM     17  C   UNL     1       5.398  -6.243   1.025  0.00  0.00    +0.109 C 
BRANCH  17  18
ATOM     18  C   UNL     1       5.602  -6.863   2.408  0.00  0.00    +0.056 C 
BRANCH  18  19
ATOM     19  C   UNL     1       6.964  -7.505   2.475  0.00  0.00    -0.021 A 
ATOM     20  C   UNL     1       7.250  -8.797   2.253  0.00  0.00    +0.087 A 
ATOM     21  N   UNL     1       8.593  -9.011   2.402  0.00  0.00    -0.360 N 
ATOM     22  H   UNL     1       9.038  -9.866   2.290  0.00  0.00    +0.165 HD
ATOM     23  C   UNL     1       9.220  -7.832   2.742  0.00  0.00    +0.047 A 
ATOM     24  C   UNL     1       8.227  -6.837   2.803  0.00  0.00    +0.003 A 
ATOM     25  C   UNL     1       8.575  -5.525   3.128  0.00  0.00    +0.010 A 
ATOM     26  C   UNL     1       9.880  -5.214   3.387  0.00  0.00    +0.001 A 
ATOM     27  C   UNL     1      10.863  -6.191   3.328  0.00  0.00    +0.002 A 
ATOM     28  C   UNL     1      10.542  -7.493   3.009  0.00  0.00    +0.026 A 
ENDBRANCH  18  19
ENDBRANCH  17  18
ENDBRANCH  15  17
ENDBRANCH   2  13
BRANCH   2  29
ATOM     29  N   UNL     1       2.568  -2.759  -0.034  0.00  0.00    -0.277 N 
ATOM     30  C   UNL     1       3.777  -2.165  -0.010  0.00  0.00    +0.248 C 
ATOM     31  O   UNL     1       4.787  -2.843   0.003  0.00  0.00    -0.270 OA
ATOM     32  H   UNL     1       1.763  -2.222   0.035  0.00  0.00    +0.155 HD
BRANCH  30  33
ATOM     33  C   UNL     1       3.877  -0.693   0.000  0.00  0.00    +0.037 A 
ATOM     34  C   UNL     1       5.130  -0.076   0.025  0.00  0.00    +0.016 A 
ATOM     35  C   UNL     1       5.219   1.298   0.034  0.00  0.00    +0.046 A 
ATOM     36  C   UNL     1       4.064   2.071   0.019  0.00  0.00    +0.120 A 
ATOM     37  C   UNL     1       2.815   1.461  -0.005  0.00  0.00    +0.046 A 
ATOM     38  C   UNL     1       2.718   0.088  -0.015  0.00  0.00    +0.016 A 
BRANCH  36  39
ATOM     39  O   UNL     1       4.155   3.425   0.029  0.00  0.00    -0.495 OA
ATOM     40  C   UNL     1       2.929   4.159   0.012  0.00  0.00    +0.277 C 
ENDBRANCH  36  39
ENDBRANCH  30  33
ENDBRANCH   2  29
TORSDOF 8
