REMARK  Name = ZINC44585446
REMARK  8 active torsions:
REMARK  status: ('A' for Active; 'I' for Inactive)
REMARK    1  A    between atoms: C_1  and  O_2
REMARK    2  A    between atoms: O_2  and  C_3
REMARK    3  A    between atoms: C_3  and  C_4
REMARK    4  A    between atoms: C_4  and  N_5
REMARK    5  A    between atoms: C_6  and  C_23
REMARK    6  A    between atoms: C_9  and  C_16
REMARK    7  A    between atoms: C_30  and  O_33
REMARK    8  A    between atoms: O_33  and  C_34
REMARK                            x       y       z     vdW  Elec       q    Type
REMARK                         _______ _______ _______ _____ _____    ______ ____
ROOT
ATOM      1  N   UNL     1      -0.843  -2.382  -1.125  0.00  0.00    -0.283 N 
ATOM      2  C   UNL     1      -1.754  -2.582   0.008  0.00  0.00    +0.143 C 
ATOM      3  C   UNL     1      -3.020  -3.160  -0.564  0.00  0.00    +0.035 A 
ATOM      4  C   UNL     1      -4.276  -3.623  -0.335  0.00  0.00    +0.072 A 
ATOM      5  N   UNL     1      -4.784  -3.993  -1.547  0.00  0.00    -0.276 N 
ATOM      6  H   UNL     1      -5.670  -4.361  -1.690  0.00  0.00    +0.189 HD
ATOM      7  N   UNL     1      -3.915  -3.780  -2.470  0.00  0.00    -0.168 NA
ATOM      8  C   UNL     1      -2.812  -3.274  -1.957  0.00  0.00    +0.153 A 
ATOM      9  C   UNL     1      -1.456  -2.776  -2.254  0.00  0.00    +0.268 C 
ATOM     10  O   UNL     1      -0.962  -2.730  -3.364  0.00  0.00    -0.268 OA
ENDROOT
BRANCH   2  11
ATOM     11  C   UNL     1      -1.146  -3.542   0.998  0.00  0.00    +0.003 A 
ATOM     12  C   UNL     1      -1.105  -3.394   2.332  0.00  0.00    +0.089 A 
ATOM     13  N   UNL     1      -0.475  -4.466   2.901  0.00  0.00    -0.360 N 
ATOM     14  H   UNL     1      -0.326  -4.584   3.852  0.00  0.00    +0.165 HD
ATOM     15  C   UNL     1      -0.085  -5.354   1.921  0.00  0.00    +0.047 A 
ATOM     16  C   UNL     1      -0.493  -4.816   0.688  0.00  0.00    +0.008 A 
ATOM     17  C   UNL     1      -0.234  -5.509  -0.496  0.00  0.00    +0.056 A 
ATOM     18  C   UNL     1       0.421  -6.723  -0.447  0.00  0.00    +0.121 A 
ATOM     19  C   UNL     1       0.822  -7.255   0.776  0.00  0.00    +0.047 A 
ATOM     20  C   UNL     1       0.578  -6.577   1.950  0.00  0.00    +0.030 A 
BRANCH  18  21
ATOM     21  O   UNL     1       0.676  -7.403  -1.597  0.00  0.00    -0.495 OA
ATOM     22  C   UNL     1       1.358  -8.653  -1.474  0.00  0.00    +0.277 C 
ENDBRANCH  18  21
ENDBRANCH   2  11
BRANCH   4  23
ATOM     23  C   UNL     1      -4.961  -3.709   0.975  0.00  0.00    +0.000 A 
ATOM     24  C   UNL     1      -4.929  -2.626   1.854  0.00  0.00    +0.011 A 
ATOM     25  C   UNL     1      -5.569  -2.712   3.073  0.00  0.00    +0.020 A 
ATOM     26  C   UNL     1      -6.242  -3.870   3.425  0.00  0.00    +0.041 A 
ATOM     27  C   UNL     1      -6.276  -4.948   2.556  0.00  0.00    +0.020 A 
ATOM     28  C   UNL     1      -5.645  -4.871   1.332  0.00  0.00    +0.011 A 
ATOM     29 CL   UNL     1      -7.044  -3.972   4.961  0.00  0.00    -0.084 Cl
ENDBRANCH   4  23
BRANCH   1  30
ATOM     30  C   UNL     1       0.514  -1.836  -1.040  0.00  0.00    +0.137 C 
BRANCH  30  31
ATOM     31  C   UNL     1       0.461  -0.314  -1.190  0.00  0.00    +0.178 C 
BRANCH  31  33
ATOM     32  C   UNL     1      -0.350   1.674  -0.125  0.00  0.00    +0.194 C 
ATOM     33  O   UNL     1      -0.244   0.249  -0.082  0.00  0.00    -0.381 OA
ENDBRANCH  31  33
ENDBRANCH  30  31
ENDBRANCH   1  30
TORSDOF 6
