REMARK  Name = ZINC09456898
REMARK  11 active torsions:
REMARK  status: ('A' for Active; 'I' for Inactive)
REMARK    1  A    between atoms: C_1  and  C_2
REMARK    2  A    between atoms: C_2  and  N_3
REMARK    3  A    between atoms: C_7  and  C_9
REMARK    4  A    between atoms: C_9  and  S_10
REMARK    5  A    between atoms: S_10  and  C_11
REMARK    6  A    between atoms: C_14  and  C_15
REMARK    7  A    between atoms: C_18  and  C_21
REMARK    8  A    between atoms: C_21  and  C_22
REMARK    9  A    between atoms: C_21  and  C_23
REMARK   10  A    between atoms: N_26  and  C_27
REMARK   11  A    between atoms: C_30  and  C_33
REMARK                            x       y       z     vdW  Elec       q    Type
REMARK                         _______ _______ _______ _____ _____    ______ ____
ROOT
ATOM      1  C   UNL     1       2.693  -3.030  -0.154  0.00  0.00    +0.169 C 
ATOM      2  N   UNL     1       3.805  -2.342  -0.154  0.00  0.00    -0.220 NA
ATOM      3  C   UNL     1       4.866  -3.200  -0.092  0.00  0.00    +0.129 C 
ATOM      4  C   UNL     1       6.190  -2.871  -0.070  0.00  0.00    +0.041 C 
ATOM      5  C   UNL     1       4.287  -4.558  -0.060  0.00  0.00    +0.275 C 
ATOM      6  O   UNL     1       4.888  -5.615  -0.007  0.00  0.00    -0.268 OA
ATOM      7  N   UNL     1       2.948  -4.379  -0.101  0.00  0.00    -0.214 N 
ENDROOT
BRANCH   7   8
ATOM      8  C   UNL     1       1.984  -5.397  -0.091  0.00  0.00    +0.044 A 
ATOM      9  C   UNL     1       1.119  -5.525   0.988  0.00  0.00    +0.024 A 
ATOM     10  C   UNL     1       0.167  -6.526   0.993  0.00  0.00    +0.005 A 
ATOM     11  C   UNL     1       0.081  -7.405  -0.071  0.00  0.00    -0.050 A 
ATOM     12  C   UNL     1       0.944  -7.283  -1.144  0.00  0.00    +0.005 A 
ATOM     13  C   UNL     1       1.895  -6.281  -1.157  0.00  0.00    +0.024 A 
ATOM     14  C   UNL     1      -0.956  -8.499  -0.060  0.00  0.00    +0.044 C 
ENDBRANCH   7   8
BRANCH   4  15
ATOM     15  C   UNL     1       6.595  -1.464   0.037  0.00  0.00    -0.023 A 
ATOM     16  C   UNL     1       5.632  -0.469   0.247  0.00  0.00    +0.008 A 
ATOM     17  C   UNL     1       6.021   0.850   0.352  0.00  0.00    +0.004 A 
ATOM     18  C   UNL     1       7.358   1.192   0.239  0.00  0.00    -0.045 A 
ATOM     19  C   UNL     1       8.316   0.215   0.025  0.00  0.00    +0.004 A 
ATOM     20  C   UNL     1       7.944  -1.109  -0.076  0.00  0.00    +0.008 A 
BRANCH  18  21
ATOM     21  C   UNL     1       7.773   2.636   0.349  0.00  0.00    +0.013 C 
ATOM     22  C   UNL     1       7.086   3.450  -0.750  0.00  0.00    +0.012 C 
ATOM     23  C   UNL     1       7.364   3.182   1.718  0.00  0.00    +0.012 C 
ENDBRANCH  18  21
ENDBRANCH   4  15
BRANCH   1  24
ATOM     24  S   UNL     1       1.081  -2.321  -0.222  0.00  0.00    -0.080 S 
BRANCH  24  25
ATOM     25  C   UNL     1       1.513  -0.564  -0.272  0.00  0.00    +0.173 C 
BRANCH  25  30
ATOM     26  N   UNL     1      -0.721   3.688  -0.484  0.00  0.00    -0.299 N 
ATOM     27  C   UNL     1      -0.797   2.343  -0.440  0.00  0.00    +0.306 C 
ATOM     28  O   UNL     1      -1.882   1.795  -0.454  0.00  0.00    -0.252 OA
ATOM     29  N   UNL     1       0.330   1.605  -0.378  0.00  0.00    -0.240 N 
ATOM     30  C   UNL     1       0.253   0.261  -0.334  0.00  0.00    +0.231 C 
ATOM     31  O   UNL     1      -0.829  -0.285  -0.343  0.00  0.00    -0.274 OA
ATOM     32  H   UNL     1       0.145   4.125  -0.472  0.00  0.00    +0.150 HD
ATOM     33  H   UNL     1       1.195   2.043  -0.371  0.00  0.00    +0.159 HD
BRANCH  26  35
ATOM     34  C   UNL     1      -1.581   5.975  -0.591  0.00  0.00    +0.024 C 
ATOM     35  C   UNL     1      -1.945   4.489  -0.551  0.00  0.00    +0.102 C 
ENDBRANCH  26  35
ENDBRANCH  25  30
ENDBRANCH  24  25
ENDBRANCH   1  24
TORSDOF 7
