REMARK  Name = ZINC38687493
REMARK  10 active torsions:
REMARK  status: ('A' for Active; 'I' for Inactive)
REMARK    1  A    between atoms: C_1  and  C_2
REMARK    2  A    between atoms: C_2  and  C_3
REMARK    3  A    between atoms: C_3  and  O_4
REMARK    4  A    between atoms: O_4  and  C_5
REMARK    5  A    between atoms: C_8  and  C_11
REMARK    6  A    between atoms: C_16  and  O_25
REMARK    7  A    between atoms: C_20  and  N_24
REMARK    8  A    between atoms: C_21  and  C_22
REMARK    9  A    between atoms: O_25  and  C_26
REMARK   10  A    between atoms: C_26  and  C_28
REMARK                            x       y       z     vdW  Elec       q    Type
REMARK                         _______ _______ _______ _____ _____    ______ ____
ROOT
ATOM      1  C   UNL     1      -6.361  -4.634   0.065  0.00  0.00    +0.098 C 
ATOM      2  C   UNL     1      -6.492  -5.475  -1.177  0.00  0.00    +0.008 A 
ATOM      3  C   UNL     1      -6.867  -4.878  -2.367  0.00  0.00    +0.012 A 
ATOM      4  C   UNL     1      -6.992  -5.633  -3.516  0.00  0.00    +0.047 A 
ATOM      5  C   UNL     1      -6.741  -6.998  -3.479  0.00  0.00    +0.135 A 
ATOM      6  C   UNL     1      -6.366  -7.599  -2.289  0.00  0.00    +0.093 A 
ATOM      7  C   UNL     1      -6.240  -6.837  -1.134  0.00  0.00    +0.138 A 
ATOM      8  O   UNL     1      -5.872  -7.441   0.023  0.00  0.00    -0.441 OA
ATOM      9  C   UNL     1      -6.113  -6.839   1.199  0.00  0.00    +0.199 C 
ATOM     10  C   UNL     1      -6.351  -5.511   1.285  0.00  0.00    +0.098 C 
ENDROOT
BRANCH   1  14
ATOM     11  C   UNL     1      -2.715  -2.410  -0.109  0.00  0.00    +0.121 A 
ATOM     12  C   UNL     1      -3.931  -1.747  -0.029  0.00  0.00    +0.046 A 
ATOM     13  C   UNL     1      -5.108  -2.468   0.027  0.00  0.00    +0.008 A 
ATOM     14  C   UNL     1      -5.075  -3.850   0.004  0.00  0.00    -0.034 A 
ATOM     15  C   UNL     1      -3.865  -4.514  -0.075  0.00  0.00    +0.008 A 
ATOM     16  C   UNL     1      -2.686  -3.797  -0.138  0.00  0.00    +0.046 A 
BRANCH  11  17
ATOM     17  O   UNL     1      -1.556  -1.703  -0.164  0.00  0.00    -0.492 OA
BRANCH  17  18
ATOM     18  C   UNL     1      -1.663  -0.279  -0.130  0.00  0.00    +0.229 C 
BRANCH  18  20
ATOM     19  C   UNL     1      -0.380   1.865  -0.165  0.00  0.00    +0.007 C 
ATOM     20  C   UNL     1      -0.265   0.339  -0.202  0.00  0.00    +0.038 C 
ENDBRANCH  18  20
ENDBRANCH  17  18
ENDBRANCH  11  17
ENDBRANCH   1  14
BRANCH   9  21
ATOM     21  N   UNL     1      -6.117  -7.593   2.345  0.00  0.00    -0.328 N 
ATOM     22  H   UNL     1      -5.948  -8.547   2.299  0.00  0.00    +0.145 HD
ATOM     23  H   UNL     1      -6.290  -7.173   3.202  0.00  0.00    +0.145 HD
ENDBRANCH   9  21
BRANCH  10  24
ATOM     24  C   UNL     1      -6.599  -4.930   2.570  0.00  0.00    +0.101 C 
ATOM     25  N   UNL     1      -6.796  -4.469   3.589  0.00  0.00    -0.191 NA
ENDBRANCH  10  24
BRANCH   5  26
ATOM     26  O   UNL     1      -6.864  -7.743  -4.609  0.00  0.00    -0.423 OA
BRANCH  26  27
ATOM     27  C   UNL     1      -7.877  -8.622  -4.677  0.00  0.00    +0.357 C 
ATOM     28  O   UNL     1      -8.705  -8.659  -3.798  0.00  0.00    -0.246 OA
BRANCH  27  29
ATOM     29  C   UNL     1      -7.982  -9.562  -5.850  0.00  0.00    +0.319 C 
ATOM     30  C   UNL     1      -8.247  -8.762  -7.133  0.00  0.00    +0.285 C 
ATOM     31  O   UNL     1      -8.355  -9.684  -8.223  0.00  0.00    -0.484 OA
ATOM     32  C   UNL     1      -9.133 -10.782  -8.020  0.00  0.00    +0.162 A 
ATOM     33  C   UNL     1      -9.574 -11.514  -9.112  0.00  0.00    +0.049 A 
ATOM     34  C   UNL     1     -10.363 -12.633  -8.922  0.00  0.00    +0.004 A 
ATOM     35  C   UNL     1     -10.714 -13.025  -7.644  0.00  0.00    +0.004 A 
ATOM     36  C   UNL     1     -10.280 -12.299  -6.552  0.00  0.00    +0.049 A 
ATOM     37  C   UNL     1      -9.489 -11.174  -6.735  0.00  0.00    +0.163 A 
ATOM     38  O   UNL     1      -9.075 -10.465  -5.650  0.00  0.00    -0.470 OA
ENDBRANCH  27  29
ENDBRANCH  26  27
ENDBRANCH   5  26
TORSDOF 9
