REMARK  Name = ZINC11665575
REMARK  6 active torsions:
REMARK  status: ('A' for Active; 'I' for Inactive)
REMARK    1  A    between atoms: C_1  and  C_2
REMARK    2  A    between atoms: C_5  and  S_8
REMARK    3  A    between atoms: S_8  and  N_11
REMARK    4  A    between atoms: N_11  and  C_12
REMARK    5  A    between atoms: C_15  and  C_18
REMARK    6  A    between atoms: C_24  and  C_27
REMARK                            x       y       z     vdW  Elec       q    Type
REMARK                         _______ _______ _______ _____ _____    ______ ____
ROOT
ATOM      1  C   UNL     1      -0.038   1.387  -0.014  0.00  0.00    +0.048 A 
ATOM      2  C   UNL     1      -1.262   2.045   0.044  0.00  0.00    +0.025 A 
ATOM      3  C   UNL     1      -1.306   3.422   0.034  0.00  0.00    +0.012 A 
ATOM      4  C   UNL     1      -0.123   4.156  -0.047  0.00  0.00    +0.002 A 
ATOM      5  C   UNL     1       1.103   3.494  -0.111  0.00  0.00    +0.012 A 
ATOM      6  C   UNL     1       1.143   2.117  -0.095  0.00  0.00    +0.025 A 
ENDROOT
BRANCH   4   7
ATOM      7  C   UNL     1      -0.169   5.638  -0.065  0.00  0.00    +0.092 A 
ATOM      8  C   UNL     1      -1.414   6.298  -0.005  0.00  0.00    +0.034 A 
ATOM      9  C   UNL     1      -1.466   7.657  -0.014  0.00  0.00    +0.052 A 
ATOM     10  C   UNL     1      -0.268   8.390  -0.097  0.00  0.00    +0.178 A 
ATOM     11  N   UNL     1       0.012   9.685  -0.132  0.00  0.00    -0.128 NA
ATOM     12  N   UNL     1       1.285   9.851  -0.210  0.00  0.00    -0.127 NA
ATOM     13  C   UNL     1       1.895   8.680  -0.231  0.00  0.00    +0.185 A 
ATOM     14  N   UNL     1       0.929   7.718  -0.159  0.00  0.00    -0.192 N 
ATOM     15  N   UNL     1       0.952   6.323  -0.141  0.00  0.00    -0.163 NA
BRANCH  13  16
ATOM     16  C   UNL     1       3.351   8.452  -0.314  0.00  0.00    +0.024 A 
ATOM     17  C   UNL     1       3.903   7.201  -0.012  0.00  0.00    +0.031 A 
ATOM     18  C   UNL     1       5.268   7.032  -0.108  0.00  0.00    +0.111 A 
ATOM     19  N   UNL     1       6.051   8.031  -0.469  0.00  0.00    -0.263 NA
ATOM     20  C   UNL     1       5.574   9.227  -0.757  0.00  0.00    +0.111 A 
ATOM     21  C   UNL     1       4.221   9.484  -0.693  0.00  0.00    +0.031 A 
ENDBRANCH  13  16
ENDBRANCH   4   7
BRANCH   1  22
ATOM     22  N   UNL     1       0.005  -0.007   0.002  0.00  0.00    -0.216 N 
ATOM     23  H   UNL     1       0.563  -0.483  -0.633  0.00  0.00    +0.174 HD
BRANCH  22  24
ATOM     24  S   UNL     1      -0.898  -0.850   1.105  0.00  0.00    +0.072 S 
ATOM     25  O   UNL     1      -2.231  -0.372   0.989  0.00  0.00    -0.150 OA
ATOM     26  O   UNL     1      -0.563  -2.222   0.940  0.00  0.00    -0.150 OA
BRANCH  24  31
ATOM     27  C   UNL     1       1.037   0.749   6.591  0.00  0.00    +0.044 C 
ATOM     28  C   UNL     1       0.553   0.349   5.221  0.00  0.00    -0.050 A 
ATOM     29  C   UNL     1      -0.538   0.986   4.660  0.00  0.00    +0.005 A 
ATOM     30  C   UNL     1      -0.982   0.619   3.404  0.00  0.00    +0.029 A 
ATOM     31  C   UNL     1      -0.333  -0.383   2.707  0.00  0.00    +0.109 A 
ATOM     32  C   UNL     1       0.756  -1.023   3.270  0.00  0.00    +0.029 A 
ATOM     33  C   UNL     1       1.202  -0.653   4.525  0.00  0.00    +0.005 A 
ENDBRANCH  24  31
ENDBRANCH  22  24
ENDBRANCH   1  22
TORSDOF 5
