REMARK  Name = ZINC27020278
REMARK  5 active torsions:
REMARK  status: ('A' for Active; 'I' for Inactive)
REMARK    1  A    between atoms: C_10  and  C_24
REMARK    2  A    between atoms: C_13  and  C_15
REMARK    3  A    between atoms: C_16  and  C_17
REMARK    4  A    between atoms: C_24  and  C_25
REMARK    5  A    between atoms: N_27  and  C_28
REMARK                            x       y       z     vdW  Elec       q    Type
REMARK                         _______ _______ _______ _____ _____    ______ ____
ROOT
ATOM      1  C   UNL     1      -0.614   0.402  -0.278  0.00  0.00    +0.002 A 
ATOM      2  C   UNL     1       0.462  -0.461  -0.176  0.00  0.00    +0.002 A 
ATOM      3  C   UNL     1       1.750   0.039  -0.095  0.00  0.00    +0.025 A 
ATOM      4  C   UNL     1       1.957   1.407  -0.115  0.00  0.00    +0.059 A 
ATOM      5  C   UNL     1       0.872   2.280  -0.214  0.00  0.00    +0.055 A 
ATOM      6  C   UNL     1      -0.414   1.770  -0.297  0.00  0.00    +0.025 A 
ATOM      7  N   UNL     1       1.096   3.661  -0.221  0.00  0.00    -0.282 N 
ATOM      8  C   UNL     1       2.332   4.157  -0.421  0.00  0.00    +0.239 C 
ATOM      9  O   UNL     1       2.511   5.355  -0.379  0.00  0.00    -0.273 OA
ATOM     10  C   UNL     1       3.495   3.239  -0.696  0.00  0.00    +0.176 C 
ATOM     11  N   UNL     1       3.250   1.945  -0.041  0.00  0.00    -0.254 N 
ATOM     12  C   UNL     1       4.237   1.296   0.608  0.00  0.00    +0.244 C 
ATOM     13  O   UNL     1       4.011   0.228   1.147  0.00  0.00    -0.270 OA
ATOM     14  H   UNL     1       0.257   4.355  -0.062  0.00  0.00    +0.155 HD
ENDROOT
BRANCH  12  15
ATOM     15  C   UNL     1       5.580   1.875   0.666  0.00  0.00    +0.068 C 
ATOM     16  C   UNL     1       6.594   1.174   1.212  0.00  0.00    +0.013 C 
BRANCH  16  17
ATOM     17  C   UNL     1       7.944   1.757   1.270  0.00  0.00    -0.025 A 
ATOM     18  C   UNL     1       8.180   3.035   0.754  0.00  0.00    +0.009 A 
ATOM     19  C   UNL     1       9.446   3.577   0.817  0.00  0.00    +0.020 A 
ATOM     20  C   UNL     1      10.485   2.854   1.379  0.00  0.00    +0.041 A 
ATOM     21  C   UNL     1      10.260   1.585   1.887  0.00  0.00    +0.020 A 
ATOM     22  C   UNL     1       8.998   1.033   1.836  0.00  0.00    +0.009 A 
ATOM     23 CL   UNL     1      12.078   3.542   1.447  0.00  0.00    -0.084 Cl
ENDBRANCH  16  17
ENDBRANCH  12  15
BRANCH  10  24
ATOM     24  C   UNL     1       3.638   3.030  -2.205  0.00  0.00    +0.128 C 
BRANCH  24  25
ATOM     25  C   UNL     1       4.893   2.246  -2.487  0.00  0.00    +0.219 C 
ATOM     26  O   UNL     1       5.684   2.025  -1.594  0.00  0.00    -0.275 OA
ATOM     27  N   UNL     1       5.137   1.789  -3.731  0.00  0.00    -0.285 N 
ATOM     28  H   UNL     1       4.466   2.063  -4.559  0.00  0.00    +0.155 HD
BRANCH  27  29
ATOM     29  C   UNL     1       6.244   0.967  -3.971  0.00  0.00    +0.035 A 
ATOM     30  C   UNL     1       6.915   1.040  -5.184  0.00  0.00    +0.025 A 
ATOM     31  C   UNL     1       8.010   0.231  -5.417  0.00  0.00    +0.023 A 
ATOM     32  C   UNL     1       8.433  -0.660  -4.446  0.00  0.00    +0.059 A 
ATOM     33  C   UNL     1       7.763  -0.739  -3.237  0.00  0.00    +0.061 A 
ATOM     34  C   UNL     1       6.669   0.073  -2.998  0.00  0.00    +0.044 A 
ATOM     35 CL   UNL     1       8.295  -1.858  -2.021  0.00  0.00    -0.082 Cl
ATOM     36 CL   UNL     1       9.806  -1.680  -4.744  0.00  0.00    -0.082 Cl
ENDBRANCH  27  29
ENDBRANCH  24  25
ENDBRANCH  10  24
TORSDOF 5
