REMARK  Name = ZINC02414407
REMARK  6 active torsions:
REMARK  status: ('A' for Active; 'I' for Inactive)
REMARK    1  A    between atoms: C_4  and  C_7
REMARK    2  A    between atoms: C_7  and  N_8
REMARK    3  A    between atoms: C_19  and  C_35
REMARK    4  A    between atoms: N_21  and  C_29
REMARK    5  A    between atoms: C_24  and  N_28
REMARK    6  A    between atoms: C_25  and  C_26
REMARK                            x       y       z     vdW  Elec       q    Type
REMARK                         _______ _______ _______ _____ _____    ______ ____
ROOT
ATOM      1  N   UNL     1       2.520   4.574   0.044  0.00  0.00    -0.265 N 
ATOM      2  C   UNL     1       1.562   3.602  -0.184  0.00  0.00    +0.041 A 
ATOM      3  C   UNL     1       1.721   2.227  -0.366  0.00  0.00    +0.024 A 
ATOM      4  C   UNL     1       0.574   1.479  -0.579  0.00  0.00    +0.002 A 
ATOM      5  C   UNL     1      -0.678   2.057  -0.617  0.00  0.00    +0.000 A 
ATOM      6  C   UNL     1      -0.851   3.424  -0.431  0.00  0.00    +0.007 A 
ATOM      7  C   UNL     1       0.285   4.175  -0.219  0.00  0.00    -0.001 A 
ATOM      8  C   UNL     1       0.479   5.640   0.007  0.00  0.00    +0.145 C 
ATOM      9  C   UNL     1       1.975   5.803   0.168  0.00  0.00    +0.241 C 
ATOM     10  O   UNL     1       2.570   6.840   0.370  0.00  0.00    -0.274 OA
ATOM     11  C   UNL     1      -0.233   6.103   1.246  0.00  0.00    +0.067 A 
ATOM     12  C   UNL     1       0.036   5.821   2.589  0.00  0.00    +0.102 A 
ATOM     13  N   UNL     1      -0.859   6.452   3.326  0.00  0.00    -0.163 NA
ATOM     14  N   UNL     1      -1.722   7.154   2.469  0.00  0.00    -0.199 N 
ATOM     15  C   UNL     1      -1.322   6.928   1.198  0.00  0.00    +0.231 A 
ATOM     16  O   UNL     1      -1.838   7.388   0.031  0.00  0.00    -0.423 OA
ATOM     17  C   UNL     1      -1.100   7.240  -1.088  0.00  0.00    +0.201 C 
ATOM     18  C   UNL     1      -0.009   6.443  -1.167  0.00  0.00    +0.110 C 
ENDROOT
BRANCH  14  19
ATOM     19  C   UNL     1      -2.807   7.948   2.862  0.00  0.00    +0.069 A 
ATOM     20  C   UNL     1      -3.122   9.097   2.150  0.00  0.00    +0.028 A 
ATOM     21  C   UNL     1      -4.196   9.875   2.537  0.00  0.00    +0.002 A 
ATOM     22  C   UNL     1      -4.950   9.516   3.639  0.00  0.00    +0.000 A 
ATOM     23  C   UNL     1      -4.635   8.375   4.354  0.00  0.00    +0.002 A 
ATOM     24  C   UNL     1      -3.566   7.590   3.969  0.00  0.00    +0.028 A 
ENDBRANCH  14  19
BRANCH  12  25
ATOM     25  C   UNL     1       1.134   4.961   3.097  0.00  0.00    +0.003 A 
ATOM     26  C   UNL     1       1.319   3.683   2.576  0.00  0.00    +0.010 A 
ATOM     27  C   UNL     1       2.345   2.890   3.047  0.00  0.00    +0.001 A 
ATOM     28  C   UNL     1       3.183   3.358   4.044  0.00  0.00    +0.000 A 
ATOM     29  C   UNL     1       2.999   4.625   4.569  0.00  0.00    +0.001 A 
ATOM     30  C   UNL     1       1.980   5.428   4.101  0.00  0.00    +0.010 A 
ENDBRANCH  12  25
BRANCH  17  31
ATOM     31  N   UNL     1      -1.477   7.936  -2.209  0.00  0.00    -0.328 N 
ATOM     32  H   UNL     1      -2.255   8.515  -2.182  0.00  0.00    +0.145 HD
ATOM     33  H   UNL     1      -0.966   7.849  -3.029  0.00  0.00    +0.145 HD
ENDBRANCH  17  31
BRANCH  18  34
ATOM     34  C   UNL     1       0.702   6.361  -2.408  0.00  0.00    +0.102 C 
ATOM     35  N   UNL     1       1.267   6.297  -3.391  0.00  0.00    -0.191 NA
ENDBRANCH  18  34
BRANCH   1  36
ATOM     36  C   UNL     1       3.957   4.303   0.138  0.00  0.00    +0.148 C 
BRANCH  36  40
ATOM     37  C   UNL     1       5.721   4.605  -3.740  0.00  0.00    +0.000 A 
ATOM     38  C   UNL     1       5.643   5.721  -2.928  0.00  0.00    +0.000 A 
ATOM     39  C   UNL     1       5.072   5.623  -1.672  0.00  0.00    +0.005 A 
ATOM     40  C   UNL     1       4.579   4.410  -1.230  0.00  0.00    -0.030 A 
ATOM     41  C   UNL     1       4.662   3.293  -2.041  0.00  0.00    +0.005 A 
ATOM     42  C   UNL     1       5.229   3.392  -3.298  0.00  0.00    +0.000 A 
ENDBRANCH  36  40
ENDBRANCH   1  36
TORSDOF 6
