REMARK  Name = ZINC43794355
REMARK  5 active torsions:
REMARK  status: ('A' for Active; 'I' for Inactive)
REMARK    1  A    between atoms: C_1  and  C_2
REMARK    2  A    between atoms: C_5  and  O_26
REMARK    3  A    between atoms: C_17  and  C_25
REMARK    4  A    between atoms: C_22  and  C_23
REMARK    5  A    between atoms: C_22  and  O_24
REMARK                            x       y       z     vdW  Elec       q    Type
REMARK                         _______ _______ _______ _____ _____    ______ ____
ROOT
ATOM      1  C   UNL     1      -0.019   1.526   0.010  0.00  0.00    +0.016 C 
ATOM      2  C   UNL     1       0.002  -0.004   0.002  0.00  0.00    -0.008 C 
ATOM      3  C   UNL     1       0.759  -0.463  -1.247  0.00  0.00    +0.014 C 
ATOM      4  C   UNL     1       2.211   0.013  -1.165  0.00  0.00    +0.032 C 
ATOM      5  C   UNL     1       2.898  -0.632   0.040  0.00  0.00    +0.119 C 
ATOM      6  C   UNL     1       2.217  -0.160   1.328  0.00  0.00    +0.062 C 
ATOM      7  C   UNL     1       0.733  -0.469   1.227  0.00  0.00    -0.065 C 
ATOM      8  C   UNL     1       0.171  -1.120   2.203  0.00  0.00    -0.027 C 
ATOM      9  C   UNL     1      -1.283  -1.491   2.208  0.00  0.00    +0.031 C 
ATOM     10  C   UNL     1      -2.062  -0.492   1.345  0.00  0.00    +0.000 C 
ATOM     11  C   UNL     1      -1.434  -0.497  -0.066  0.00  0.00    +0.003 C 
ATOM     12  C   UNL     1      -2.228   0.361  -1.046  0.00  0.00    +0.005 C 
ATOM     13  C   UNL     1      -3.708  -0.049  -1.093  0.00  0.00    +0.010 C 
ATOM     14  C   UNL     1      -4.249   0.069   0.320  0.00  0.00    -0.000 C 
ATOM     15  C   UNL     1      -3.506  -0.944   1.224  0.00  0.00    +0.001 C 
ATOM     16  C   UNL     1      -4.321  -0.926   2.522  0.00  0.00    +0.007 C 
ATOM     17  C   UNL     1      -5.786  -0.846   2.012  0.00  0.00    +0.035 C 
ATOM     18  C   UNL     1      -5.717  -0.298   0.517  0.00  0.00    +0.069 C 
ATOM     19  C   UNL     1      -6.157  -1.311  -0.541  0.00  0.00    +0.042 C 
ATOM     20  C   UNL     1      -3.988   1.476   0.859  0.00  0.00    +0.014 C 
ENDROOT
BRANCH  18  21
ATOM     21  O   UNL     1      -6.533   0.874   0.452  0.00  0.00    -0.388 OA
ATOM     22  H   UNL     1      -7.477   0.703   0.571  0.00  0.00    +0.210 HD
ENDBRANCH  18  21
BRANCH   5  23
ATOM     23  O   UNL     1       2.797  -2.054  -0.059  0.00  0.00    -0.391 OA
ATOM     24  H   UNL     1       3.212  -2.530   0.673  0.00  0.00    +0.210 HD
ENDBRANCH   5  23
TORSDOF 2
