REMARK  Name = ZINC40730950
REMARK  4 active torsions:
REMARK  status: ('A' for Active; 'I' for Inactive)
REMARK    1  A    between atoms: C_1  and  C_2
REMARK    2  A    between atoms: C_10  and  N_24
REMARK    3  A    between atoms: C_11  and  N_15
REMARK    4  A    between atoms: N_15  and  C_16
REMARK                            x       y       z     vdW  Elec       q    Type
REMARK                         _______ _______ _______ _____ _____    ______ ____
ROOT
ATOM      1  C   UNL     1       3.566   0.592   0.733  0.00  0.00    +0.009 C 
ATOM      2  C   UNL     1       2.146   0.053   0.921  0.00  0.00    +0.003 C 
ATOM      3  C   UNL     1       1.299   0.409  -0.303  0.00  0.00    +0.006 C 
ATOM      4  C   UNL     1      -0.130  -0.101  -0.102  0.00  0.00    +0.019 C 
ATOM      5  C   UNL     1      -0.108  -1.626   0.044  0.00  0.00    +0.106 C 
ATOM      6  N   UNL     1       0.818  -1.984   1.127  0.00  0.00    -0.313 N 
ATOM      7  C   UNL     1       2.194  -1.470   1.080  0.00  0.00    +0.109 C 
ATOM      8  C   UNL     1       0.401  -2.793   2.177  0.00  0.00    +0.147 A 
ATOM      9  C   UNL     1       0.434  -4.184   2.057  0.00  0.00    +0.106 A 
ATOM     10  C   UNL     1       0.005  -4.949   3.142  0.00  0.00    +0.149 A 
ATOM     11  N   UNL     1      -0.418  -4.329   4.242  0.00  0.00    -0.219 NA
ATOM     12  C   UNL     1      -0.434  -3.014   4.314  0.00  0.00    +0.225 A 
ATOM     13  N   UNL     1      -0.032  -2.254   3.314  0.00  0.00    -0.219 NA
ENDROOT
BRANCH   9  14
ATOM     14  N   UNL     1       0.888  -4.795   0.878  0.00  0.00    -0.353 N 
ATOM     15  H   UNL     1       1.252  -4.254   0.159  0.00  0.00    +0.143 HD
ATOM     16  H   UNL     1       0.838  -5.759   0.781  0.00  0.00    +0.143 HD
ENDBRANCH   9  14
BRANCH  10  17
ATOM     17  N   UNL     1       0.017  -6.338   3.076  0.00  0.00    -0.297 N 
ATOM     18  H   UNL     1       0.406  -6.783   2.307  0.00  0.00    +0.154 HD
BRANCH  17  19
ATOM     19  C   UNL     1      -0.531  -7.093   4.117  0.00  0.00    +0.052 A 
ATOM     20  C   UNL     1      -1.508  -6.542   4.936  0.00  0.00    +0.044 A 
ATOM     21  C   UNL     1      -2.049  -7.291   5.965  0.00  0.00    +0.043 A 
ATOM     22  C   UNL     1      -1.617  -8.588   6.178  0.00  0.00    +0.021 A 
ATOM     23  C   UNL     1      -0.644  -9.140   5.365  0.00  0.00    +0.023 A 
ATOM     24  C   UNL     1      -0.104  -8.398   4.331  0.00  0.00    +0.062 A 
ATOM     25 CL   UNL     1       1.112  -9.093   3.306  0.00  0.00    -0.082 Cl
ATOM     26 CL   UNL     1      -3.270  -6.604   6.989  0.00  0.00    -0.083 Cl
ENDBRANCH  17  19
ENDBRANCH  10  17
TORSDOF 3
