REMARK  Name = ZINC12716472
REMARK  17 active torsions:
REMARK  status: ('A' for Active; 'I' for Inactive)
REMARK    1  A    between atoms: C_1  and  C_2
REMARK    2  A    between atoms: C_5  and  C_8
REMARK    3  A    between atoms: C_8  and  C_9
REMARK    4  A    between atoms: C_9  and  N_67
REMARK    5  A    between atoms: C_10  and  C_11
REMARK    6  A    between atoms: C_10  and  N_67
REMARK    7  A    between atoms: C_14  and  O_31
REMARK    8  A    between atoms: C_15  and  O_17
REMARK    9  A    between atoms: O_17  and  C_18
REMARK   10  A    between atoms: C_18  and  C_19
REMARK   11  A    between atoms: C_19  and  C_21
REMARK   12  A    between atoms: C_19  and  O_30
REMARK   13  A    between atoms: C_21  and  N_70
REMARK   14  A    between atoms: C_22  and  N_70
REMARK   15  A    between atoms: C_23  and  C_24
REMARK   16  A    between atoms: C_23  and  N_70
REMARK   17  A    between atoms: O_31  and  C_32
REMARK                            x       y       z     vdW  Elec       q    Type
REMARK                         _______ _______ _______ _____ _____    ______ ____
ROOT
ATOM      1  C   UNL     1       1.256  -6.184  -2.813  0.00  0.00    -0.061 A 
ATOM      2  C   UNL     1       2.463  -6.857  -2.816  0.00  0.00    +0.005 A 
ATOM      3  C   UNL     1       2.488  -8.239  -2.780  0.00  0.00    +0.049 A 
ATOM      4  C   UNL     1       1.300  -8.953  -2.753  0.00  0.00    +0.162 A 
ATOM      5  C   UNL     1       0.085  -8.275  -2.756  0.00  0.00    +0.162 A 
ATOM      6  C   UNL     1       0.067  -6.890  -2.787  0.00  0.00    +0.051 A 
ENDROOT
BRANCH   4   7
ATOM      7  O   UNL     1       1.322 -10.312  -2.724  0.00  0.00    -0.491 OA
ATOM      8  C   UNL     1       2.606 -10.940  -2.722  0.00  0.00    +0.277 C 
ENDBRANCH   4   7
BRANCH   1   9
ATOM      9  C   UNL     1       1.235  -4.678  -2.846  0.00  0.00    -0.047 C 
BRANCH   9  10
ATOM     10  N   UNL     1       1.242  -4.164  -1.464  0.00  0.00    +0.382 N 
ATOM     11  H   UNL     1       0.413  -4.513  -0.968  0.00  0.00    -0.085 HD
ATOM     12  H   UNL     1       2.089  -4.490  -0.985  0.00  0.00    -0.085 HD
BRANCH  10  13
ATOM     13  C   UNL     1       1.221  -2.689  -1.465  0.00  0.00    -0.077 C 
BRANCH  13  14
ATOM     14  C   UNL     1       1.229  -2.186  -0.021  0.00  0.00    +0.016 C 
BRANCH  14  19
ATOM     15  C   UNL     1       1.151   3.592   0.010  0.00  0.00    +0.044 C 
ATOM     16  C   UNL     1       1.171   2.086   0.002  0.00  0.00    -0.050 A 
ATOM     17  C   UNL     1      -0.017   1.378   0.010  0.00  0.00    +0.003 A 
ATOM     18  C   UNL     1       0.002  -0.004   0.002  0.00  0.00    +0.004 A 
ATOM     19  C   UNL     1       1.208  -0.679  -0.013  0.00  0.00    -0.049 A 
ATOM     20  C   UNL     1       2.396   0.029  -0.021  0.00  0.00    +0.004 A 
ATOM     21  C   UNL     1       2.377   1.411  -0.015  0.00  0.00    +0.003 A 
ENDBRANCH  14  19
ENDBRANCH  13  14
ENDBRANCH  10  13
ENDBRANCH   9  10
ENDBRANCH   1   9
BRANCH   5  22
ATOM     22  O   UNL     1      -1.083  -8.971  -2.730  0.00  0.00    -0.486 OA
BRANCH  22  23
ATOM     23  C   UNL     1      -2.292  -8.209  -2.736  0.00  0.00    +0.258 C 
BRANCH  23  24
ATOM     24  C   UNL     1      -3.493  -9.158  -2.704  0.00  0.00    +0.135 C 
BRANCH  24  25
ATOM     25  O   UNL     1      -3.502  -9.873  -1.467  0.00  0.00    -0.390 OA
ATOM     26  H   UNL     1      -3.565  -9.306  -0.685  0.00  0.00    +0.210 HD
ENDBRANCH  24  25
BRANCH  24  27
ATOM     27  C   UNL     1      -4.785  -8.349  -2.836  0.00  0.00    -0.044 C 
BRANCH  27  29
ATOM     28  C   UNL     1      -5.950 -10.133  -3.986  0.00  0.00    -0.096 C 
ATOM     29  N   UNL     1      -5.935  -9.276  -2.782  0.00  0.00    +0.382 N 
ATOM     30  H   UNL     1      -5.845  -9.871  -1.950  0.00  0.00    -0.082 HD
BRANCH  29  31
ATOM     31  C   UNL     1      -7.197  -8.511  -2.690  0.00  0.00    -0.043 C 
BRANCH  31  32
ATOM     32  C   UNL     1      -8.327  -9.469  -2.416  0.00  0.00    -0.064 A 
ATOM     33  C   UNL     1      -9.030 -10.028  -3.466  0.00  0.00    +0.002 A 
ATOM     34  C   UNL     1     -10.063 -10.911  -3.215  0.00  0.00    +0.000 A 
ATOM     35  C   UNL     1     -10.401 -11.227  -1.912  0.00  0.00    +0.000 A 
ATOM     36  C   UNL     1      -9.702 -10.664  -0.861  0.00  0.00    +0.000 A 
ATOM     37  C   UNL     1      -8.665  -9.785  -1.113  0.00  0.00    +0.002 A 
ENDBRANCH  31  32
ENDBRANCH  29  31
ENDBRANCH  27  29
ENDBRANCH  24  27
ENDBRANCH  23  24
ENDBRANCH  22  23
ENDBRANCH   5  22
TORSDOF 14
