REMARK  Name = ZINC64626457
REMARK  8 active torsions:
REMARK  status: ('A' for Active; 'I' for Inactive)
REMARK    1  A    between atoms: C_1  and  S_2
REMARK    2  A    between atoms: S_2  and  C_3
REMARK    3  A    between atoms: C_6  and  C_9
REMARK    4  A    between atoms: C_9  and  C_10
REMARK    5  A    between atoms: C_10  and  C_16
REMARK    6  A    between atoms: C_16  and  C_17
REMARK    7  A    between atoms: C_17  and  C_18
REMARK    8  A    between atoms: C_24  and  C_26
REMARK                            x       y       z     vdW  Elec       q    Type
REMARK                         _______ _______ _______ _____ _____    ______ ____
ROOT
ATOM      1  C   UNL     1     -10.077  -1.078  -0.809  0.00  0.00    +0.216 C 
ATOM      2  O   UNL     1     -10.483  -2.133  -1.249  0.00  0.00    -0.276 OA
ATOM      3  N   UNL     1     -10.948  -0.169  -0.327  0.00  0.00    -0.295 N 
ATOM      4  C   UNL     1     -10.593   1.149   0.229  0.00  0.00    +0.108 C 
ATOM      5  C   UNL     1     -11.771   1.514   1.167  0.00  0.00    +0.021 C 
ATOM      6  C   UNL     1     -12.983   0.950   0.379  0.00  0.00    +0.028 C 
ATOM      7  C   UNL     1     -12.409  -0.325  -0.275  0.00  0.00    +0.119 C 
ENDROOT
BRANCH   7   8
ATOM      8  C   UNL     1     -12.966  -0.483  -1.691  0.00  0.00    +0.195 C 
ATOM      9  N   UNL     1     -12.687   0.724  -2.480  0.00  0.00    -0.362 N 
ATOM     10  C   UNL     1     -13.830   1.225  -2.846  0.00  0.00    +0.060 A 
ATOM     11  C   UNL     1     -14.193   2.408  -3.639  0.00  0.00    +0.030 A 
ATOM     12  C   UNL     1     -15.493   2.686  -3.862  0.00  0.00    +0.040 A 
ATOM     13  C   UNL     1     -16.537   1.883  -3.362  0.00  0.00    +0.125 A 
ATOM     14  C   UNL     1     -16.312   0.774  -2.623  0.00  0.00    +0.065 A 
ATOM     15  C   UNL     1     -14.933   0.376  -2.318  0.00  0.00    +0.063 A 
ATOM     16  N   UNL     1     -14.427  -0.620  -1.646  0.00  0.00    -0.362 N 
ATOM     17  F   UNL     1     -17.813   2.234  -3.633  0.00  0.00    -0.205 F 
ATOM     18  H   UNL     1     -11.810   1.081  -2.690  0.00  0.00    +0.162 HD
ATOM     19  H   UNL     1     -14.924  -1.323  -1.197  0.00  0.00    +0.162 HD
ENDBRANCH   7   8
BRANCH   1  20
ATOM     20  C   UNL     1      -8.599  -0.785  -0.800  0.00  0.00    +0.098 C 
BRANCH  20  21
ATOM     21  C   UNL     1      -7.840  -1.971  -1.397  0.00  0.00    +0.035 C 
BRANCH  21  22
ATOM     22  C   UNL     1      -6.339  -1.673  -1.389  0.00  0.00    +0.039 C 
ATOM     23  C   UNL     1      -5.567  -2.787  -2.129  0.00  0.00    +0.035 C 
ATOM     24  C   UNL     1      -4.433  -1.986  -2.809  0.00  0.00    +0.098 C 
ATOM     25  C   UNL     1      -4.993  -0.587  -2.938  0.00  0.00    +0.214 C 
ATOM     26  O   UNL     1      -4.543   0.277  -3.661  0.00  0.00    -0.276 OA
ATOM     27  N   UNL     1      -6.062  -0.441  -2.137  0.00  0.00    -0.309 N 
ATOM     28  H   UNL     1      -6.583   0.373  -2.062  0.00  0.00    +0.149 HD
BRANCH  22  29
ATOM     29  C   UNL     1      -5.834  -1.544   0.050  0.00  0.00    +0.061 C 
BRANCH  29  33
ATOM     30  C   UNL     1      -1.702  -0.454   0.016  0.00  0.00    +0.008 A 
ATOM     31  C   UNL     1      -2.682   0.531   0.025  0.00  0.00    +0.015 A 
ATOM     32  C   UNL     1      -4.016   0.176   0.036  0.00  0.00    +0.005 A 
ATOM     33  C   UNL     1      -4.377  -1.159   0.038  0.00  0.00    -0.045 A 
ATOM     34  C   UNL     1      -3.404  -2.143   0.029  0.00  0.00    +0.005 A 
ATOM     35  C   UNL     1      -2.068  -1.794   0.012  0.00  0.00    +0.015 A 
BRANCH  30  37
ATOM     36  C   UNL     1      -0.022   1.810   0.012  0.00  0.00    +0.090 C 
ATOM     37  S   UNL     1       0.002  -0.004   0.002  0.00  0.00    -0.129 S 
ENDBRANCH  30  37
ENDBRANCH  29  33
ENDBRANCH  22  29
ENDBRANCH  21  22
ENDBRANCH  20  21
ENDBRANCH   1  20
TORSDOF 7
