REMARK  Name = ZINC41678523
REMARK  7 active torsions:
REMARK  status: ('A' for Active; 'I' for Inactive)
REMARK    1  A    between atoms: C_1  and  C_2
REMARK    2  A    between atoms: C_2  and  C_3
REMARK    3  A    between atoms: C_2  and  C_4
REMARK    4  A    between atoms: C_2  and  C_5
REMARK    5  A    between atoms: C_7  and  C_10
REMARK    6  A    between atoms: C_10  and  C_12
REMARK    7  A    between atoms: C_10  and  N_18
REMARK                            x       y       z     vdW  Elec       q    Type
REMARK                         _______ _______ _______ _____ _____    ______ ____
ROOT
ATOM      1  C   UNL     1       3.576  -0.751  -3.427  0.00  0.00    +0.035 C 
ENDROOT
BRANCH   1   2
ATOM      2  C   UNL     1       4.302  -2.061  -3.257  0.00  0.00    -0.016 A 
ATOM      3  C   UNL     1       5.288  -2.383  -2.384  0.00  0.00    +0.025 A 
ATOM      4  C   UNL     1       5.812  -3.663  -2.408  0.00  0.00    +0.025 A 
ATOM      5  C   UNL     1       5.325  -4.556  -3.304  0.00  0.00    +0.060 A 
ATOM      6  S   UNL     1       4.081  -3.592  -4.148  0.00  0.00    -0.102 S 
ATOM      7 BR   UNL     1       7.189  -4.158  -1.210  0.00  0.00    -0.050 Br
ENDBRANCH   1   2
BRANCH   1  10
ATOM      8  C   UNL     1       0.707  -0.490  -1.238  0.00  0.00    +0.233 A 
ATOM      9  N   UNL     1       1.943  -0.232  -1.565  0.00  0.00    -0.197 NA
ATOM     10  C   UNL     1       2.243  -0.821  -2.728  0.00  0.00    +0.162 A 
ATOM     11  N   UNL     1       1.196  -1.464  -3.157  0.00  0.00    -0.063 NA
ATOM     12  O   UNL     1       0.175  -1.266  -2.191  0.00  0.00    -0.338 OA
BRANCH   8  14
ATOM     13  C   UNL     1      -0.019   1.526   0.010  0.00  0.00    +0.020 C 
ATOM     14  C   UNL     1       0.002  -0.004   0.002  0.00  0.00    +0.041 C 
ATOM     15  C   UNL     1       0.742  -0.511   1.242  0.00  0.00    +0.020 C 
ATOM     16  C   UNL     1      -1.433  -0.534   0.013  0.00  0.00    +0.020 C 
ENDBRANCH   8  14
ENDBRANCH   1  10
BRANCH   1  17
ATOM     17  N   UNL     1       3.365  -0.490  -4.858  0.00  0.00    +0.388 N 
ATOM     18  H   UNL     1       2.880   0.386  -4.971  0.00  0.00    -0.089 HD
ATOM     19  H   UNL     1       4.258  -0.444  -5.326  0.00  0.00    -0.089 HD
ATOM     20  H   UNL     1       2.814  -1.235  -5.258  0.00  0.00    -0.089 HD
ENDBRANCH   1  17
TORSDOF 4
