REMARK  Name = ZINC21312570
REMARK  4 active torsions:
REMARK  status: ('A' for Active; 'I' for Inactive)
REMARK    1  A    between atoms: C_11  and  C_25
REMARK    2  A    between atoms: C_14  and  C_16
REMARK    3  A    between atoms: C_16  and  S_17
REMARK    4  A    between atoms: S_17  and  C_18
REMARK                            x       y       z     vdW  Elec       q    Type
REMARK                         _______ _______ _______ _____ _____    ______ ____
ROOT
ATOM      1  C   UNL     1       1.188   6.069   0.007  0.00  0.00    +0.002 A 
ATOM      2  C   UNL     1       0.804   5.382   1.145  0.00  0.00    +0.002 A 
ATOM      3  C   UNL     1       0.780   3.999   1.149  0.00  0.00    +0.025 A 
ATOM      4  C   UNL     1       1.139   3.300   0.009  0.00  0.00    +0.058 A 
ATOM      5  C   UNL     1       1.507   3.994  -1.145  0.00  0.00    +0.055 A 
ATOM      6  C   UNL     1       1.540   5.378  -1.138  0.00  0.00    +0.025 A 
ATOM      7  N   UNL     1       1.805   3.275  -2.308  0.00  0.00    -0.284 N 
ATOM      8  C   UNL     1       2.659   2.229  -2.267  0.00  0.00    +0.219 C 
ATOM      9  O   UNL     1       2.844   1.563  -3.264  0.00  0.00    -0.275 OA
ATOM     10  C   UNL     1       3.383   1.885  -0.992  0.00  0.00    +0.128 C 
ATOM     11  C   UNL     1       2.429   1.197  -0.009  0.00  0.00    +0.194 C 
ATOM     12  N   UNL     1       1.143   1.898   0.001  0.00  0.00    -0.257 N 
ATOM     13  C   UNL     1      -0.014   1.209   0.009  0.00  0.00    +0.231 C 
ATOM     14  O   UNL     1       0.002  -0.004   0.002  0.00  0.00    -0.274 OA
ATOM     15  H   UNL     1       1.343   3.560  -3.264  0.00  0.00    +0.155 HD
ENDROOT
BRANCH  11  16
ATOM     16  C   UNL     1       3.033   1.224   1.397  0.00  0.00    +0.409 C 
ATOM     17  F   UNL     1       2.163   0.591   2.291  0.00  0.00    -0.169 F 
ATOM     18  F   UNL     1       4.261   0.554   1.389  0.00  0.00    -0.169 F 
ATOM     19  F   UNL     1       3.228   2.550   1.796  0.00  0.00    -0.169 F 
ENDBRANCH  11  16
BRANCH  13  20
ATOM     20  C   UNL     1      -1.330   1.944   0.019  0.00  0.00    +0.170 C 
BRANCH  20  21
ATOM     21  S   UNL     1      -2.692   0.747   0.019  0.00  0.00    -0.116 S 
BRANCH  21  22
ATOM     22  C   UNL     1      -4.141   1.750   0.031  0.00  0.00    +0.008 A 
ATOM     23  C   UNL     1      -4.029   3.135   0.044  0.00  0.00    +0.016 A 
ATOM     24  C   UNL     1      -5.166   3.918   0.048  0.00  0.00    +0.021 A 
ATOM     25  C   UNL     1      -6.417   3.325   0.051  0.00  0.00    +0.041 A 
ATOM     26  C   UNL     1      -6.531   1.946   0.044  0.00  0.00    +0.021 A 
ATOM     27  C   UNL     1      -5.398   1.157   0.034  0.00  0.00    +0.016 A 
ATOM     28 CL   UNL     1      -7.844   4.313   0.063  0.00  0.00    -0.084 Cl
ENDBRANCH  21  22
ENDBRANCH  20  21
ENDBRANCH  13  20
TORSDOF 4
