REMARK  Name = ZINC66680189
REMARK  8 active torsions:
REMARK  status: ('A' for Active; 'I' for Inactive)
REMARK    1  A    between atoms: C_1  and  C_2
REMARK    2  A    between atoms: C_5  and  C_9
REMARK    3  A    between atoms: C_6  and  C_8
REMARK    4  A    between atoms: C_9  and  C_10
REMARK    5  A    between atoms: C_10  and  C_12
REMARK    6  A    between atoms: C_10  and  N_13
REMARK    7  A    between atoms: N_16  and  C_17
REMARK    8  A    between atoms: N_26  and  C_27
REMARK                            x       y       z     vdW  Elec       q    Type
REMARK                         _______ _______ _______ _____ _____    ______ ____
ROOT
ATOM      1  N   UNL     1      -2.143  -4.415  -1.073  0.00  0.00    -0.296 N 
ATOM      2  C   UNL     1      -3.484  -4.313  -0.998  0.00  0.00    +0.304 C 
ATOM      3  O   UNL     1      -4.053  -4.542   0.052  0.00  0.00    -0.253 OA
ATOM      4  N   UNL     1      -4.196  -3.958  -2.086  0.00  0.00    -0.269 N 
ATOM      5  H   UNL     1      -1.689  -4.232  -1.911  0.00  0.00    +0.151 HD
ATOM      6  H   UNL     1      -3.738  -3.711  -2.905  0.00  0.00    +0.156 HD
ENDROOT
BRANCH   4   7
ATOM      7  C   UNL     1      -5.596  -3.946  -2.035  0.00  0.00    +0.038 A 
ATOM      8  C   UNL     1      -6.244  -3.569  -0.864  0.00  0.00    +0.025 A 
ATOM      9  C   UNL     1      -7.623  -3.556  -0.809  0.00  0.00    +0.031 A 
ATOM     10  C   UNL     1      -8.363  -3.920  -1.923  0.00  0.00    +0.090 A 
ATOM     11  C   UNL     1      -7.717  -4.298  -3.100  0.00  0.00    +0.159 A 
ATOM     12  C   UNL     1      -6.332  -4.305  -3.154  0.00  0.00    +0.072 A 
ATOM     13  O   UNL     1      -8.677  -4.596  -4.009  0.00  0.00    -0.407 OA
ATOM     14  C   UNL     1      -9.885  -4.420  -3.450  0.00  0.00    +0.421 A 
ATOM     15  O   UNL     1     -10.950  -4.605  -4.006  0.00  0.00    -0.223 OA
ATOM     16  N   UNL     1      -9.733  -4.006  -2.176  0.00  0.00    -0.277 N 
ATOM     17  C   UNL     1     -10.810  -3.704  -1.230  0.00  0.00    +0.156 C 
ENDBRANCH   4   7
BRANCH   1  18
ATOM     18  C   UNL     1      -1.369  -4.801   0.110  0.00  0.00    +0.076 C 
ATOM     19  C   UNL     1      -1.332  -6.326   0.219  0.00  0.00    +0.028 C 
BRANCH  18  20
ATOM     20  C   UNL     1       0.058  -4.263  -0.016  0.00  0.00    +0.057 C 
BRANCH  20  25
ATOM     21  C   UNL     1      -0.051   1.514   0.045  0.00  0.00    +0.044 C 
ATOM     22  C   UNL     1      -0.022   0.007   0.029  0.00  0.00    -0.050 A 
ATOM     23  C   UNL     1      -0.013  -0.671  -1.175  0.00  0.00    +0.003 A 
ATOM     24  C   UNL     1       0.013  -2.053  -1.190  0.00  0.00    +0.004 A 
ATOM     25  C   UNL     1       0.030  -2.757   0.000  0.00  0.00    -0.043 A 
ATOM     26  C   UNL     1       0.022  -2.078   1.204  0.00  0.00    -0.047 A 
ATOM     27  C   UNL     1      -0.000  -0.696   1.219  0.00  0.00    +0.007 A 
ATOM     28  C   UNL     1       0.040  -2.845   2.501  0.00  0.00    +0.044 C 
ENDBRANCH  20  25
ENDBRANCH  18  20
ENDBRANCH   1  18
TORSDOF 4
