REMARK  Name = ZINC38984563
REMARK  9 active torsions:
REMARK  status: ('A' for Active; 'I' for Inactive)
REMARK    1  A    between atoms: C_1  and  C_2
REMARK    2  A    between atoms: C_2  and  C_3
REMARK    3  A    between atoms: C_3  and  C_4
REMARK    4  A    between atoms: C_4  and  C_5
REMARK    5  A    between atoms: C_5  and  C_6
REMARK    6  A    between atoms: C_6  and  N_7
REMARK    7  A    between atoms: N_7  and  C_8
REMARK    8  A    between atoms: N_11  and  S_12
REMARK    9  A    between atoms: S_12  and  C_15
REMARK                            x       y       z     vdW  Elec       q    Type
REMARK                         _______ _______ _______ _____ _____    ______ ____
ROOT
ATOM      1  C   UNL     1      -4.225  -6.100   0.010  0.00  0.00    +0.217 C 
ATOM      2  C   UNL     1      -5.164  -6.555   1.104  0.00  0.00    +0.167 C 
ATOM      3  N   UNL     1      -4.962  -6.198   2.338  0.00  0.00    -0.112 NA
ATOM      4  N   UNL     1      -6.210  -7.333   0.782  0.00  0.00    -0.338 N 
ATOM      5  C   UNL     1      -6.436  -7.708  -0.459  0.00  0.00    +0.064 A 
ATOM      6  C   UNL     1      -7.551  -8.530  -0.762  0.00  0.00    +0.028 A 
ATOM      7  C   UNL     1      -7.787  -8.919  -2.034  0.00  0.00    +0.002 A 
ATOM      8  C   UNL     1      -6.965  -8.541  -3.109  0.00  0.00    +0.002 A 
ATOM      9  C   UNL     1      -5.877  -7.760  -2.931  0.00  0.00    +0.027 A 
ATOM     10  C   UNL     1      -5.550  -7.295  -1.575  0.00  0.00    +0.060 A 
ATOM     11  N   UNL     1      -4.510  -6.538  -1.366  0.00  0.00    -0.362 N 
ATOM     12  H   UNL     1      -3.936  -6.271  -2.100  0.00  0.00    +0.162 HD
ATOM     13  H   UNL     1      -6.814  -7.626   1.483  0.00  0.00    +0.167 HD
ENDROOT
BRANCH   3  14
ATOM     14  S   UNL     1      -5.998  -6.703   3.526  0.00  0.00    +0.102 S 
ATOM     15  O   UNL     1      -7.250  -6.084   3.264  0.00  0.00    -0.146 OA
ATOM     16  O   UNL     1      -5.850  -8.113   3.622  0.00  0.00    -0.146 OA
BRANCH  14  17
ATOM     17  C   UNL     1      -5.413  -6.032   5.047  0.00  0.00    +0.141 A 
ATOM     18  C   UNL     1      -6.165  -5.129   5.720  0.00  0.00    +0.031 A 
ATOM     19  C   UNL     1      -5.734  -4.577   6.927  0.00  0.00    +0.004 A 
ATOM     20  C   UNL     1      -4.546  -4.920   7.477  0.00  0.00    +0.031 A 
ATOM     21  C   UNL     1      -3.704  -5.862   6.826  0.00  0.00    +0.102 A 
ATOM     22  C   UNL     1      -4.157  -6.443   5.567  0.00  0.00    +0.127 A 
ATOM     23  N   UNL     1      -3.290  -7.316   5.051  0.00  0.00    -0.189 NA
ATOM     24  S   UNL     1      -2.058  -7.367   6.084  0.00  0.00    +0.117 S 
ATOM     25  N   UNL     1      -2.511  -6.315   7.214  0.00  0.00    -0.191 NA
ENDBRANCH  14  17
ENDBRANCH   3  14
BRANCH   1  26
ATOM     26  N   UNL     1      -4.205  -4.631   0.017  0.00  0.00    -0.291 NA
ATOM     27  H   UNL     1      -4.719  -4.267   0.806  0.00  0.00    +0.124 HD
BRANCH  26  28
ATOM     28  C   UNL     1      -2.827  -4.123   0.007  0.00  0.00    +0.083 C 
BRANCH  28  29
ATOM     29  C   UNL     1      -2.848  -2.593   0.015  0.00  0.00    +0.015 C 
BRANCH  29  30
ATOM     30  C   UNL     1      -1.413  -2.063   0.004  0.00  0.00    +0.001 C 
BRANCH  30  31
ATOM     31  C   UNL     1      -1.433  -0.534   0.013  0.00  0.00    -0.000 C 
BRANCH  31  33
ATOM     32  C   UNL     1      -0.019   1.526   0.010  0.00  0.00    +0.004 C 
ATOM     33  C   UNL     1       0.002  -0.004   0.002  0.00  0.00    -0.003 C 
ENDBRANCH  31  33
ENDBRANCH  30  31
ENDBRANCH  29  30
ENDBRANCH  28  29
ENDBRANCH  26  28
ENDBRANCH   1  26
TORSDOF 8
