REMARK  Name = ZINC13372139
REMARK  11 active torsions:
REMARK  status: ('A' for Active; 'I' for Inactive)
REMARK    1  A    between atoms: C_1  and  C_2
REMARK    2  A    between atoms: C_2  and  C_3
REMARK    3  A    between atoms: C_3  and  C_4
REMARK    4  A    between atoms: N_6  and  C_24
REMARK    5  A    between atoms: C_10  and  N_11
REMARK    6  A    between atoms: N_11  and  C_12
REMARK    7  A    between atoms: C_12  and  C_13
REMARK    8  A    between atoms: C_13  and  C_14
REMARK    9  A    between atoms: C_17  and  S_20
REMARK   10  A    between atoms: S_20  and  N_23
REMARK   11  A    between atoms: C_27  and  N_30
REMARK                            x       y       z     vdW  Elec       q    Type
REMARK                         _______ _______ _______ _____ _____    ______ ____
ROOT
ATOM      1  C   UNL     1       0.762  -2.018   1.233  0.00  0.00    +0.073 C 
ATOM      2  N   UNL     1       0.246  -2.787   0.324  0.00  0.00    -0.176 NA
ATOM      3  N   UNL     1       0.444  -4.134   0.627  0.00  0.00    -0.156 N 
ATOM      4  C   UNL     1       1.122  -4.253   1.786  0.00  0.00    +0.273 C 
ATOM      5  O   UNL     1       1.460  -5.289   2.335  0.00  0.00    -0.268 OA
ATOM      6  C   UNL     1       1.377  -2.884   2.250  0.00  0.00    +0.075 C 
ATOM      7  C   UNL     1       2.048  -2.494   3.397  0.00  0.00    +0.082 C 
ENDROOT
BRANCH   3   8
ATOM      8  C   UNL     1       0.003  -5.206  -0.159  0.00  0.00    +0.060 A 
ATOM      9  C   UNL     1       0.252  -6.511   0.242  0.00  0.00    +0.028 A 
ATOM     10  C   UNL     1      -0.184  -7.566  -0.535  0.00  0.00    +0.034 A 
ATOM     11  C   UNL     1      -0.868  -7.324  -1.712  0.00  0.00    +0.126 A 
ATOM     12  C   UNL     1      -1.117  -6.024  -2.115  0.00  0.00    +0.034 A 
ATOM     13  C   UNL     1      -0.689  -4.965  -1.339  0.00  0.00    +0.028 A 
BRANCH  11  14
ATOM     14  N   UNL     1      -1.334  -8.457  -2.542  0.00  0.00    +0.056 N 
ATOM     15  O   UNL     1      -1.117  -9.593  -2.191  0.00  0.00    -0.126 OA
ATOM     16  O   UNL     1      -1.932  -8.246  -3.572  0.00  0.00    -0.126 OA
ENDBRANCH  11  14
ENDBRANCH   3   8
BRANCH   7  17
ATOM     17  N   UNL     1       2.556  -3.424   4.231  0.00  0.00    -0.349 N 
ATOM     18  H   UNL     1       2.451  -4.366   4.027  0.00  0.00    +0.146 HD
BRANCH  17  19
ATOM     19  C   UNL     1       3.265  -3.011   5.444  0.00  0.00    +0.105 C 
BRANCH  19  20
ATOM     20  C   UNL     1       3.736  -4.251   6.207  0.00  0.00    +0.054 C 
BRANCH  20  21
ATOM     21  C   UNL     1       4.466  -3.825   7.455  0.00  0.00    -0.046 A 
ATOM     22  C   UNL     1       5.830  -3.608   7.417  0.00  0.00    +0.005 A 
ATOM     23  C   UNL     1       6.500  -3.218   8.562  0.00  0.00    +0.029 A 
ATOM     24  C   UNL     1       5.805  -3.045   9.744  0.00  0.00    +0.105 A 
ATOM     25  C   UNL     1       4.440  -3.262   9.782  0.00  0.00    +0.029 A 
ATOM     26  C   UNL     1       3.770  -3.647   8.636  0.00  0.00    +0.005 A 
BRANCH  24  27
ATOM     27  S   UNL     1       6.659  -2.550  11.204  0.00  0.00    +0.056 S 
ATOM     28  O   UNL     1       5.871  -2.986  12.303  0.00  0.00    -0.153 OA
ATOM     29  O   UNL     1       8.014  -2.941  11.035  0.00  0.00    -0.153 OA
BRANCH  27  30
ATOM     30  N   UNL     1       6.646  -0.894  11.240  0.00  0.00    -0.204 NA
ATOM     31  H   UNL     1       6.651  -0.427  12.091  0.00  0.00    +0.144 HD
ATOM     32  H   UNL     1       6.632  -0.391  10.411  0.00  0.00    +0.144 HD
ENDBRANCH  27  30
ENDBRANCH  24  27
ENDBRANCH  20  21
ENDBRANCH  19  20
ENDBRANCH  17  19
ENDBRANCH   7  17
BRANCH   1  33
ATOM     33  C   UNL     1       0.742  -0.511   1.242  0.00  0.00    +0.057 C 
BRANCH  33  35
ATOM     34  C   UNL     1      -0.019   1.526   0.010  0.00  0.00    +0.004 C 
ATOM     35  C   UNL     1       0.002  -0.004   0.002  0.00  0.00    +0.003 C 
ENDBRANCH  33  35
ENDBRANCH   1  33
TORSDOF 10
