REMARK  Name = ZINC66634484
REMARK  5 active torsions:
REMARK  status: ('A' for Active; 'I' for Inactive)
REMARK    1  A    between atoms: C_1  and  C_2
REMARK    2  A    between atoms: C_2  and  C_4
REMARK    3  A    between atoms: C_2  and  N_15
REMARK    4  A    between atoms: C_4  and  C_5
REMARK    5  A    between atoms: C_16  and  C_18
REMARK                            x       y       z     vdW  Elec       q    Type
REMARK                         _______ _______ _______ _____ _____    ______ ____
ROOT
ATOM      1  C   UNL     1      -0.019   1.526   0.010  0.00  0.00    +0.028 C 
ATOM      2  C   UNL     1       0.002  -0.004   0.002  0.00  0.00    +0.079 C 
ENDROOT
BRANCH   2   3
ATOM      3  N   UNL     1      -1.372  -0.511   0.012  0.00  0.00    -0.312 N 
ATOM      4  C   UNL     1      -2.051  -0.643  -1.145  0.00  0.00    +0.216 C 
ATOM      5  O   UNL     1      -1.524  -0.341  -2.194  0.00  0.00    -0.276 OA
ATOM      6  H   UNL     1      -1.794  -0.752   0.852  0.00  0.00    +0.149 HD
BRANCH   4   7
ATOM      7  C   UNL     1      -3.465  -1.164  -1.134  0.00  0.00    +0.075 C 
ATOM      8  C   UNL     1      -3.485  -2.571  -0.532  0.00  0.00    +0.013 C 
ATOM      9  C   UNL     1      -4.920  -3.100  -0.521  0.00  0.00    +0.001 C 
ATOM     10  C   UNL     1      -5.456  -3.151  -1.953  0.00  0.00    +0.000 C 
ATOM     11  C   UNL     1      -5.436  -1.745  -2.555  0.00  0.00    +0.001 C 
ATOM     12  C   UNL     1      -4.000  -1.215  -2.566  0.00  0.00    +0.013 C 
ENDBRANCH   4   7
ENDBRANCH   2   3
BRANCH   2  13
ATOM     13  C   UNL     1       0.742  -0.511   1.242  0.00  0.00    +0.118 C 
BRANCH  13  14
ATOM     14  C   UNL     1       0.870  -2.011   1.172  0.00  0.00    +0.217 C 
ATOM     15  O   UNL     1       0.414  -2.615   0.224  0.00  0.00    -0.276 OA
ATOM     16  N   UNL     1       1.491  -2.681   2.163  0.00  0.00    -0.299 N 
ATOM     17  C   UNL     1       2.025  -1.926   3.295  0.00  0.00    +0.117 C 
ATOM     18  C   UNL     1       3.550  -2.075   3.337  0.00  0.00    +0.114 C 
ATOM     19  C   UNL     1       3.887  -3.405   3.973  0.00  0.00    +0.215 C 
ATOM     20  O   UNL     1       4.369  -3.435   5.085  0.00  0.00    -0.276 OA
ATOM     21  N   UNL     1       3.658  -4.547   3.318  0.00  0.00    -0.314 N 
ATOM     22  C   UNL     1       3.081  -4.532   1.966  0.00  0.00    +0.123 C 
ATOM     23  C   UNL     1       1.599  -4.135   2.067  0.00  0.00    +0.126 C 
ATOM     24  H   UNL     1       3.875  -5.394   3.738  0.00  0.00    +0.149 HD
ENDBRANCH  13  14
ENDBRANCH   2  13
TORSDOF 4
