REMARK  Name = ZINC01593098
REMARK  4 active torsions:
REMARK  status: ('A' for Active; 'I' for Inactive)
REMARK    1  A    between atoms: C_1  and  N_2
REMARK    2  A    between atoms: N_5  and  C_6
REMARK    3  A    between atoms: C_6  and  C_7
REMARK    4  A    between atoms: N_22  and  C_25
REMARK                            x       y       z     vdW  Elec       q    Type
REMARK                         _______ _______ _______ _____ _____    ______ ____
ROOT
ATOM      1  C   UNL     1       2.571   3.198   9.117  0.00  0.00    +0.129 C 
ATOM      2  N   UNL     1       1.164   3.304   8.722  0.00  0.00    -0.302 N 
ATOM      3  C   UNL     1       0.804   3.084   7.442  0.00  0.00    +0.308 C 
ATOM      4  O   UNL     1       1.631   2.705   6.635  0.00  0.00    -0.252 OA
ATOM      5  N   UNL     1      -0.471   3.284   7.056  0.00  0.00    -0.234 N 
ATOM      6  C   UNL     1      -0.867   2.951   5.767  0.00  0.00    +0.171 A 
ATOM      7  N   UNL     1      -0.185   2.344   4.826  0.00  0.00    -0.217 NA
ATOM      8  C   UNL     1      -0.708   2.084   3.608  0.00  0.00    +0.161 A 
ATOM      9  C   UNL     1      -2.027   2.501   3.402  0.00  0.00    +0.116 A 
ATOM     10  S   UNL     1      -2.438   3.239   4.964  0.00  0.00    -0.034 S 
ATOM     11  N   UNL     1      -2.672   2.300   2.220  0.00  0.00    -0.300 N 
ATOM     12  H   UNL     1      -3.588   2.603   2.114  0.00  0.00    +0.171 HD
ATOM     13  C   UNL     1      -2.046   1.688   1.194  0.00  0.00    +0.330 A 
ATOM     14  O   UNL     1      -2.637   1.522   0.145  0.00  0.00    -0.246 OA
ATOM     15  N   UNL     1      -0.781   1.254   1.316  0.00  0.00    -0.262 N 
ATOM     16  C   UNL     1      -0.077   1.415   2.450  0.00  0.00    +0.283 A 
ATOM     17  O   UNL     1       1.071   1.012   2.523  0.00  0.00    -0.265 OA
ATOM     18  C   UNL     1      -0.146   0.589   0.175  0.00  0.00    +0.157 C 
ATOM     19  H   UNL     1       0.491   3.533   9.382  0.00  0.00    +0.150 HD
ENDROOT
BRANCH   5  20
ATOM     20  C   UNL     1      -1.440   3.853   7.996  0.00  0.00    +0.120 C 
BRANCH  20  21
ATOM     21  C   UNL     1      -2.121   2.724   8.772  0.00  0.00    +0.007 C 
ATOM     22  C   UNL     1      -2.946   1.869   7.809  0.00  0.00    +0.005 C 
ATOM     23  C   UNL     1      -3.627   0.739   8.585  0.00  0.00    +0.000 C 
ATOM     24  C   UNL     1      -4.547   1.336   9.652  0.00  0.00    +0.000 C 
ATOM     25  C   UNL     1      -3.722   2.192  10.615  0.00  0.00    +0.000 C 
ATOM     26  C   UNL     1      -3.041   3.321   9.839  0.00  0.00    +0.005 C 
ENDBRANCH  20  21
ENDBRANCH   5  20
TORSDOF 2
