REMARK  Name = ZINC12795175
REMARK  5 active torsions:
REMARK  status: ('A' for Active; 'I' for Inactive)
REMARK    1  A    between atoms: C_1  and  C_2
REMARK    2  A    between atoms: C_4  and  C_23
REMARK    3  A    between atoms: C_6  and  S_11
REMARK    4  A    between atoms: C_7  and  C_8
REMARK    5  A    between atoms: S_11  and  C_12
REMARK                            x       y       z     vdW  Elec       q    Type
REMARK                         _______ _______ _______ _____ _____    ______ ____
ROOT
ATOM      1  C   UNL     1      -2.525   1.009   0.018  0.00  0.00    +0.044 C 
ATOM      2  C   UNL     1      -1.217   1.756   0.014  0.00  0.00    -0.034 A 
ATOM      3  C   UNL     1      -0.012   1.076  -0.001  0.00  0.00    +0.027 A 
ATOM      4  C   UNL     1       1.174   1.789  -0.010  0.00  0.00    +0.040 A 
ATOM      5  N   UNL     1       1.179   3.107  -0.000  0.00  0.00    -0.245 NA
ATOM      6  C   UNL     1       0.055   3.809   0.019  0.00  0.00    +0.114 A 
ATOM      7  C   UNL     1      -1.190   3.155   0.030  0.00  0.00    +0.071 A 
ATOM      8  C   UNL     1       2.484   1.045  -0.032  0.00  0.00    +0.065 C 
ENDROOT
BRANCH   7   9
ATOM      9  C   UNL     1      -2.444   3.929   0.051  0.00  0.00    +0.244 C 
ATOM     10  O   UNL     1      -2.975   4.256  -0.993  0.00  0.00    -0.270 OA
ATOM     11  N   UNL     1      -3.003   4.275   1.228  0.00  0.00    -0.325 N 
ATOM     12  H   UNL     1      -2.580   4.014   2.061  0.00  0.00    +0.145 HD
ATOM     13  H   UNL     1      -3.828   4.785   1.242  0.00  0.00    +0.145 HD
ENDBRANCH   7   9
BRANCH   6  14
ATOM     14  S   UNL     1       0.121   5.570   0.031  0.00  0.00    -0.069 S 
BRANCH  14  15
ATOM     15  C   UNL     1       1.861   5.810   0.167  0.00  0.00    +0.018 A 
ATOM     16  C   UNL     1       2.467   5.804   1.417  0.00  0.00    +0.019 A 
ATOM     17  C   UNL     1       3.833   5.987   1.527  0.00  0.00    +0.050 A 
ATOM     18  C   UNL     1       4.595   6.187   0.388  0.00  0.00    +0.162 A 
ATOM     19  C   UNL     1       3.992   6.199  -0.862  0.00  0.00    +0.163 A 
ATOM     20  C   UNL     1       2.625   6.011  -0.976  0.00  0.00    +0.064 A 
ATOM     21  O   UNL     1       4.754   6.396  -1.976  0.00  0.00    -0.488 OA
ATOM     22  C   UNL     1       5.323   7.699  -2.123  0.00  0.00    +0.232 C 
ATOM     23  C   UNL     1       6.627   7.808  -1.348  0.00  0.00    +0.082 C 
ATOM     24  C   UNL     1       6.421   7.678   0.153  0.00  0.00    +0.232 C 
ATOM     25  O   UNL     1       5.944   6.373   0.487  0.00  0.00    -0.488 OA
ENDBRANCH  14  15
ENDBRANCH   6  14
TORSDOF 3
