REMARK  Name = ZINC39012193
REMARK  6 active torsions:
REMARK  status: ('A' for Active; 'I' for Inactive)
REMARK    1  A    between atoms: C_1  and  C_2
REMARK    2  A    between atoms: C_6  and  C_9
REMARK    3  A    between atoms: C_7  and  O_8
REMARK    4  A    between atoms: N_10  and  N_11
REMARK    5  A    between atoms: C_12  and  C_14
REMARK    6  A    between atoms: C_17  and  C_20
REMARK                            x       y       z     vdW  Elec       q    Type
REMARK                         _______ _______ _______ _____ _____    ______ ____
ROOT
ATOM      1  C   UNL     1       0.052  -2.856   2.453  0.00  0.00    +0.142 C 
ATOM      2  N   UNL     1       0.049  -2.221   3.584  0.00  0.00    -0.188 NA
ENDROOT
BRANCH   1   8
ATOM      3  C   UNL     1      -0.018   1.503   0.010  0.00  0.00    +0.047 C 
ATOM      4  C   UNL     1       0.002  -0.004   0.002  0.00  0.00    -0.007 A 
ATOM      5  C   UNL     1       0.006  -0.688  -1.200  0.00  0.00    +0.022 A 
ATOM      6  C   UNL     1       0.024  -2.072  -1.218  0.00  0.00    +0.019 A 
ATOM      7  C   UNL     1       0.039  -2.783  -0.035  0.00  0.00    +0.028 A 
ATOM      8  C   UNL     1       0.036  -2.103   1.185  0.00  0.00    +0.037 A 
ATOM      9  C   UNL     1       0.023  -0.702   1.198  0.00  0.00    +0.128 A 
ATOM     10 BR   UNL     1       0.027  -2.993  -2.869  0.00  0.00    -0.050 Br
BRANCH   9  11
ATOM     11  O   UNL     1       0.025  -0.031   2.379  0.00  0.00    -0.506 OA
ATOM     12  H   UNL     1      -0.858   0.152   2.729  0.00  0.00    +0.292 HD
ENDBRANCH   9  11
ENDBRANCH   1   8
BRANCH   2  13
ATOM     13  N   UNL     1       0.064  -2.936   4.789  0.00  0.00    -0.205 N 
ATOM     14  C   UNL     1       0.061  -2.276   5.965  0.00  0.00    +0.262 C 
ATOM     15  O   UNL     1       0.045  -1.063   5.979  0.00  0.00    -0.271 OA
ATOM     16  H   UNL     1       0.076  -3.906   4.777  0.00  0.00    +0.177 HD
BRANCH  14  17
ATOM     17  C   UNL     1       0.077  -3.046   7.260  0.00  0.00    +0.240 C 
ATOM     18  C   UNL     1      -1.323  -3.499   7.633  0.00  0.00    +0.035 C 
ATOM     19  C   UNL     1      -1.558  -2.892   8.798  0.00  0.00    +0.059 C 
ATOM     20  N   UNL     1      -0.497  -2.142   9.171  0.00  0.00    -0.159 NA
ATOM     21  N   UNL     1       0.455  -2.169   8.382  0.00  0.00    -0.170 NA
ATOM     22  C   UNL     1      -2.833  -3.024   9.590  0.00  0.00    +0.067 C 
ENDBRANCH  14  17
ENDBRANCH   2  13
TORSDOF 4
