REMARK  Name = ZINC14086795
REMARK  13 active torsions:
REMARK  status: ('A' for Active; 'I' for Inactive)
REMARK    1  A    between atoms: C_1  and  C_2
REMARK    2  A    between atoms: C_2  and  N_3
REMARK    3  A    between atoms: N_3  and  C_4
REMARK    4  A    between atoms: N_3  and  S_6
REMARK    5  A    between atoms: C_4  and  C_5
REMARK    6  A    between atoms: S_6  and  C_9
REMARK    7  A    between atoms: C_12  and  C_15
REMARK    8  A    between atoms: C_15  and  C_17
REMARK    9  A    between atoms: C_15  and  N_18
REMARK   10  A    between atoms: N_18  and  C_19
REMARK   11  A    between atoms: C_19  and  C_20
REMARK   12  A    between atoms: N_22  and  C_23
REMARK   13  A    between atoms: N_22  and  C_31
REMARK                            x       y       z     vdW  Elec       q    Type
REMARK                         _______ _______ _______ _____ _____    ______ ____
ROOT
ATOM      1  N   UNL     1      -6.010   3.784   4.232  0.00  0.00    +0.389 N 
ATOM      2  H   UNL     1      -6.453   3.393   3.414  0.00  0.00    -0.084 HD
ATOM      3  H   UNL     1      -5.982   3.090   4.963  0.00  0.00    -0.084 HD
ENDROOT
BRANCH   1   4
ATOM      4  C   UNL     1      -4.641   4.199   3.897  0.00  0.00    -0.043 C 
ATOM      5  C   UNL     1      -4.676   5.157   2.705  0.00  0.00    -0.009 C 
BRANCH   4   9
ATOM      6  C   UNL     1      -2.319   0.757   2.891  0.00  0.00    +0.105 A 
ATOM      7  C   UNL     1      -1.760   1.772   3.645  0.00  0.00    +0.029 A 
ATOM      8  C   UNL     1      -2.512   2.885   3.970  0.00  0.00    +0.004 A 
ATOM      9  C   UNL     1      -3.822   2.985   3.541  0.00  0.00    -0.062 A 
ATOM     10  C   UNL     1      -4.381   1.971   2.786  0.00  0.00    +0.004 A 
ATOM     11  C   UNL     1      -3.628   0.859   2.457  0.00  0.00    +0.029 A 
BRANCH   6  12
ATOM     12  S   UNL     1      -1.362  -0.663   2.476  0.00  0.00    +0.061 S 
ATOM     13  O   UNL     1      -2.283  -1.714   2.220  0.00  0.00    -0.153 OA
ATOM     14  O   UNL     1      -0.342  -0.767   3.461  0.00  0.00    -0.153 OA
BRANCH  12  15
ATOM     15  N   UNL     1      -0.602  -0.339   1.041  0.00  0.00    -0.177 NA
BRANCH  15  17
ATOM     16  C   UNL     1       0.571   1.801   0.880  0.00  0.00    +0.022 C 
ATOM     17  C   UNL     1       0.723   0.287   1.038  0.00  0.00    +0.106 C 
ENDBRANCH  15  17
BRANCH  15  18
ATOM     18  C   UNL     1      -1.255  -0.678  -0.226  0.00  0.00    +0.106 C 
ATOM     19  C   UNL     1      -0.770  -2.050  -0.699  0.00  0.00    +0.022 C 
ENDBRANCH  15  18
ENDBRANCH  12  15
ENDBRANCH   6  12
ENDBRANCH   4   9
ENDBRANCH   1   4
BRANCH   1  20
ATOM     20  C   UNL     1      -6.776   4.950   4.693  0.00  0.00    +0.016 C 
BRANCH  20  21
ATOM     21  C   UNL     1      -8.180   4.525   5.037  0.00  0.00    +0.199 C 
ATOM     22  O   UNL     1      -8.537   3.386   4.826  0.00  0.00    -0.278 OA
ATOM     23  N   UNL     1      -9.039   5.411   5.579  0.00  0.00    -0.295 N 
BRANCH  23  24
ATOM     24  C   UNL     1     -10.365   4.971   6.018  0.00  0.00    +0.099 C 
ATOM     25  C   UNL     1     -11.161   4.460   4.806  0.00  0.00    +0.046 C 
ATOM     26  C   UNL     1     -12.422   3.718   5.333  0.00  0.00    +0.168 C 
ATOM     27  S   UNL     1     -11.705   2.810   6.767  0.00  0.00    -0.029 S 
ATOM     28  O   UNL     1     -11.297   1.518   6.338  0.00  0.00    -0.174 OA
ATOM     29  O   UNL     1     -12.582   2.934   7.878  0.00  0.00    -0.174 OA
ATOM     30  C   UNL     1     -10.211   3.840   7.063  0.00  0.00    +0.188 C 
ENDBRANCH  23  24
BRANCH  23  31
ATOM     31  C   UNL     1      -8.645   6.815   5.728  0.00  0.00    +0.076 C 
ATOM     32  C   UNL     1      -9.568   7.715   4.881  0.00  0.00    +0.022 C 
ATOM     33  C   UNL     1     -10.652   8.194   5.878  0.00  0.00    +0.002 C 
ATOM     34  C   UNL     1      -9.844   8.413   7.182  0.00  0.00    +0.002 C 
ATOM     35  C   UNL     1      -8.821   7.258   7.191  0.00  0.00    +0.022 C 
ENDBRANCH  23  31
ENDBRANCH  20  21
ENDBRANCH   1  20
TORSDOF 10
