REMARK  Name = ZINC15958218
REMARK  4 active torsions:
REMARK  status: ('A' for Active; 'I' for Inactive)
REMARK    1  A    between atoms: C_12  and  C_15
REMARK    2  A    between atoms: C_15  and  C_16
REMARK    3  A    between atoms: C_19  and  O_22
REMARK    4  A    between atoms: N_25  and  C_28
REMARK                            x       y       z     vdW  Elec       q    Type
REMARK                         _______ _______ _______ _____ _____    ______ ____
ROOT
ATOM      1  C   UNL     1      -0.017   1.379   0.010  0.00  0.00    +0.000 A 
ATOM      2  C   UNL     1       1.173   2.084   0.002  0.00  0.00    +0.002 A 
ATOM      3  C   UNL     1       2.379   1.414  -0.013  0.00  0.00    +0.023 A 
ATOM      4  C   UNL     1       2.407   0.022  -0.021  0.00  0.00    +0.039 A 
ATOM      5  C   UNL     1       1.203  -0.677  -0.013  0.00  0.00    +0.003 A 
ATOM      6  C   UNL     1       0.002  -0.004   0.002  0.00  0.00    +0.008 A 
ATOM      7  C   UNL     1       1.574  -2.133  -0.021  0.00  0.00    +0.136 C 
ATOM      8  C   UNL     1       0.991  -2.858  -1.239  0.00  0.00    +0.122 C 
ATOM      9  C   UNL     1      -0.288  -3.561  -0.704  0.00  0.00    +0.107 C 
ATOM     10  C   UNL     1      -0.352  -3.179   0.790  0.00  0.00    +0.072 C 
ATOM     11  N   UNL     1       1.039  -2.833   1.162  0.00  0.00    -0.295 NA
ATOM     12  C   UNL     1      -1.404  -2.872  -1.456  0.00  0.00    +0.227 C 
ATOM     13  O   UNL     1      -2.584  -3.121  -1.341  0.00  0.00    -0.275 OA
ATOM     14  N   UNL     1      -0.886  -1.944  -2.269  0.00  0.00    -0.238 N 
ATOM     15  C   UNL     1       0.463  -1.849  -2.233  0.00  0.00    +0.228 C 
ATOM     16  O   UNL     1       1.142  -1.084  -2.883  0.00  0.00    -0.275 OA
ATOM     17  C   UNL     1       3.078  -2.154  -0.036  0.00  0.00    +0.243 C 
ATOM     18  O   UNL     1       3.788  -3.137  -0.047  0.00  0.00    -0.273 OA
ATOM     19  N   UNL     1       3.482  -0.869  -0.037  0.00  0.00    -0.283 N 
ATOM     20  H   UNL     1       1.569  -3.670   1.357  0.00  0.00    +0.124 HD
ATOM     21  H   UNL     1       4.413  -0.595  -0.047  0.00  0.00    +0.155 HD
ENDROOT
BRANCH  14  22
ATOM     22  C   UNL     1      -1.712  -1.099  -3.135  0.00  0.00    +0.084 C 
ATOM     23  C   UNL     1      -2.633  -0.230  -2.255  0.00  0.00    +0.023 C 
ATOM     24  C   UNL     1      -3.087   0.955  -3.063  0.00  0.00    +0.002 C 
ATOM     25  C   UNL     1      -4.445   0.716  -3.749  0.00  0.00    +0.000 C 
ATOM     26  C   UNL     1      -4.569  -0.696  -4.353  0.00  0.00    +0.000 C 
ATOM     27  C   UNL     1      -3.309  -1.138  -5.047  0.00  0.00    +0.002 C 
ATOM     28  C   UNL     1      -2.459  -1.950  -4.049  0.00  0.00    +0.023 C 
ENDBRANCH  14  22
BRANCH  10  29
ATOM     29  C   UNL     1      -0.867  -4.357   1.619  0.00  0.00    +0.054 C 
BRANCH  29  30
ATOM     30  C   UNL     1      -1.039  -3.925   3.053  0.00  0.00    -0.046 A 
ATOM     31  C   UNL     1       0.012  -4.051   3.942  0.00  0.00    +0.007 A 
ATOM     32  C   UNL     1      -0.143  -3.657   5.257  0.00  0.00    +0.045 A 
ATOM     33  C   UNL     1      -1.354  -3.134   5.685  0.00  0.00    +0.117 A 
ATOM     34  C   UNL     1      -2.407  -3.008   4.791  0.00  0.00    +0.045 A 
ATOM     35  C   UNL     1      -2.246  -3.399   3.475  0.00  0.00    +0.007 A 
BRANCH  33  36
ATOM     36  O   UNL     1      -1.509  -2.745   6.978  0.00  0.00    -0.507 OA
ATOM     37  H   UNL     1      -1.278  -1.821   7.141  0.00  0.00    +0.292 HD
ENDBRANCH  33  36
ENDBRANCH  29  30
ENDBRANCH  10  29
TORSDOF 4
