REMARK  Name = ZINC40047332
REMARK  16 active torsions:
REMARK  status: ('A' for Active; 'I' for Inactive)
REMARK    1  A    between atoms: C_1  and  C_2
REMARK    2  A    between atoms: C_2  and  C_3
REMARK    3  A    between atoms: C_3  and  C_4
REMARK    4  A    between atoms: C_4  and  O_5
REMARK    5  A    between atoms: O_5  and  C_6
REMARK    6  A    between atoms: C_9  and  C_15
REMARK    7  A    between atoms: C_11  and  O_12
REMARK    8  A    between atoms: O_12  and  C_13
REMARK    9  A    between atoms: C_13  and  C_14
REMARK   10  A    between atoms: C_17  and  C_27
REMARK   11  A    between atoms: N_21  and  C_22
REMARK   12  A    between atoms: C_22  and  C_23
REMARK   13  A    between atoms: C_23  and  C_24
REMARK   14  A    between atoms: C_24  and  O_25
REMARK   15  A    between atoms: C_27  and  C_29
REMARK   16  A    between atoms: C_32  and  C_35
REMARK                            x       y       z     vdW  Elec       q    Type
REMARK                         _______ _______ _______ _____ _____    ______ ____
ROOT
ATOM      1  C   UNL     1       1.592  -8.262  -2.781  0.00  0.00    +0.145 C 
ATOM      2  C   UNL     1       2.499  -9.090  -1.900  0.00  0.00    +0.076 C 
ATOM      3  C   UNL     1       1.697  -9.859  -1.127  0.00  0.00    +0.249 C 
ATOM      4  C   UNL     1       0.285  -9.575  -1.460  0.00  0.00    +0.288 C 
ATOM      5  O   UNL     1      -0.675 -10.105  -0.937  0.00  0.00    -0.266 OA
ATOM      6  N   UNL     1       0.219  -8.641  -2.428  0.00  0.00    -0.283 N 
ATOM      7  O   UNL     1       2.120 -10.746  -0.198  0.00  0.00    -0.282 OA
ENDROOT
BRANCH   1  11
ATOM      8  C   UNL     1       2.206  -4.099  -2.020  0.00  0.00    +0.162 A 
ATOM      9  C   UNL     1       1.573  -4.893  -1.077  0.00  0.00    +0.050 A 
ATOM     10  C   UNL     1       1.375  -6.238  -1.326  0.00  0.00    +0.009 A 
ATOM     11  C   UNL     1       1.809  -6.795  -2.515  0.00  0.00    -0.019 A 
ATOM     12  C   UNL     1       2.443  -6.009  -3.459  0.00  0.00    +0.055 A 
ATOM     13  C   UNL     1       2.638  -4.659  -3.218  0.00  0.00    +0.162 A 
BRANCH   8  14
ATOM     14  O   UNL     1       2.401  -2.775  -1.776  0.00  0.00    -0.488 OA
BRANCH  14  15
ATOM     15  C   UNL     1       1.931  -2.270  -0.525  0.00  0.00    +0.229 C 
BRANCH  15  16
ATOM     16  C   UNL     1       2.237  -0.774  -0.432  0.00  0.00    +0.041 C 
BRANCH  16  18
ATOM     17  C   UNL     1       2.040   1.264   1.001  0.00  0.00    +0.004 C 
ATOM     18  C   UNL     1       1.734  -0.233   0.908  0.00  0.00    -0.000 C 
ENDBRANCH  16  18
ENDBRANCH  15  16
ENDBRANCH  14  15
ENDBRANCH   8  14
BRANCH  13  19
ATOM     19  O   UNL     1       3.256  -3.883  -4.149  0.00  0.00    -0.489 OA
BRANCH  19  20
ATOM     20  C   UNL     1       3.579  -4.500  -5.397  0.00  0.00    +0.226 C 
ATOM     21  C   UNL     1       4.270  -3.481  -6.306  0.00  0.00    +0.048 C 
ENDBRANCH  19  20
ENDBRANCH  13  19
ENDBRANCH   1  11
BRANCH   2  22
ATOM     22  C   UNL     1       3.964  -9.065  -1.886  0.00  0.00    +0.195 C 
ATOM     23  O   UNL     1       4.557  -8.698  -0.889  0.00  0.00    -0.287 OA
BRANCH  22  24
ATOM     24  C   UNL     1       4.723  -9.486  -3.084  0.00  0.00    +0.022 A 
ATOM     25  C   UNL     1       4.051 -10.013  -4.189  0.00  0.00    +0.012 A 
ATOM     26  C   UNL     1       4.765 -10.404  -5.303  0.00  0.00    +0.004 A 
ATOM     27  C   UNL     1       6.143 -10.274  -5.327  0.00  0.00    -0.050 A 
ATOM     28  C   UNL     1       6.814  -9.753  -4.235  0.00  0.00    +0.004 A 
ATOM     29  C   UNL     1       6.112  -9.353  -3.116  0.00  0.00    +0.012 A 
ATOM     30  C   UNL     1       6.915 -10.704  -6.547  0.00  0.00    +0.044 C 
ENDBRANCH  22  24
ENDBRANCH   2  22
BRANCH   6  31
ATOM     31  C   UNL     1      -1.005  -8.099  -3.023  0.00  0.00    +0.111 C 
BRANCH  31  32
ATOM     32  C   UNL     1      -1.403  -8.947  -4.233  0.00  0.00    +0.047 C 
BRANCH  32  33
ATOM     33  C   UNL     1      -2.681  -8.381  -4.855  0.00  0.00    +0.157 C 
BRANCH  33  34
ATOM     34  O   UNL     1      -3.052  -9.173  -5.985  0.00  0.00    -0.395 OA
ATOM     35  H   UNL     1      -3.856  -8.871  -6.429  0.00  0.00    +0.209 HD
ENDBRANCH  33  34
ENDBRANCH  32  33
ENDBRANCH  31  32
ENDBRANCH   6  31
TORSDOF 13
