REMARK  Name = ZINC13501211
REMARK  8 active torsions:
REMARK  status: ('A' for Active; 'I' for Inactive)
REMARK    1  A    between atoms: C_1  and  C_2
REMARK    2  A    between atoms: C_2  and  C_3
REMARK    3  A    between atoms: C_3  and  C_5
REMARK    4  A    between atoms: C_3  and  N_72
REMARK    5  A    between atoms: N_9  and  C_10
REMARK    6  A    between atoms: C_16  and  C_17
REMARK    7  A    between atoms: C_16  and  N_72
REMARK    8  A    between atoms: C_32  and  N_72
REMARK                            x       y       z     vdW  Elec       q    Type
REMARK                         _______ _______ _______ _____ _____    ______ ____
ROOT
ATOM      1  N   UNL     1       0.849   3.956  -0.793  0.00  0.00    +0.391 N 
ATOM      2  H   UNL     1       0.554   3.481  -1.654  0.00  0.00    -0.080 HD
ENDROOT
BRANCH   1   3
ATOM      3  C   UNL     1      -0.327   4.134   0.084  0.00  0.00    -0.067 C 
ATOM      4  C   UNL     1       0.103   4.643   1.461  0.00  0.00    -0.015 C 
ATOM      5  C   UNL     1      -1.131   4.815   2.350  0.00  0.00    -0.002 C 
ATOM      6  C   UNL     1      -1.840   3.467   2.503  0.00  0.00    -0.000 C 
ATOM      7  C   UNL     1      -2.270   2.958   1.126  0.00  0.00    -0.002 C 
ATOM      8  C   UNL     1      -1.036   2.786   0.238  0.00  0.00    -0.015 C 
ENDBRANCH   1   3
BRANCH   1   9
ATOM      9  C   UNL     1       1.866   3.128  -0.112  0.00  0.00    +0.003 C 
BRANCH   9  10
ATOM     10  C   UNL     1       2.592   3.937   0.932  0.00  0.00    +0.138 A 
ATOM     11  N   UNL     1       3.051   5.157   0.797  0.00  0.00    -0.115 NA
ATOM     12  N   UNL     1       3.606   5.499   1.909  0.00  0.00    -0.023 NA
ATOM     13  N   UNL     1       3.514   4.528   2.749  0.00  0.00    -0.044 NA
ATOM     14  N   UNL     1       2.895   3.546   2.184  0.00  0.00    -0.228 N 
BRANCH  14  15
ATOM     15  C   UNL     1       2.581   2.251   2.791  0.00  0.00    +0.111 C 
ATOM     16  C   UNL     1       1.697   2.465   4.021  0.00  0.00    +0.027 C 
ATOM     17  C   UNL     1       1.369   1.111   4.655  0.00  0.00    +0.002 C 
ATOM     18  C   UNL     1       2.667   0.417   5.075  0.00  0.00    +0.000 C 
ATOM     19  C   UNL     1       3.551   0.203   3.845  0.00  0.00    +0.002 C 
ATOM     20  C   UNL     1       3.878   1.556   3.211  0.00  0.00    +0.027 C 
ENDBRANCH  14  15
ENDBRANCH   9  10
BRANCH   9  22
ATOM     21  C   UNL     1       2.155   1.695  -2.138  0.00  0.00    +0.002 C 
ATOM     22  C   UNL     1       2.867   2.624  -1.154  0.00  0.00    -0.011 C 
ENDBRANCH   9  22
ENDBRANCH   1   9
BRANCH   1  23
ATOM     23  C   UNL     1       1.421   5.273  -1.143  0.00  0.00    -0.036 C 
BRANCH  23  24
ATOM     24  C   UNL     1       0.521   5.939  -2.152  0.00  0.00    +0.001 A 
ATOM     25  C   UNL     1      -0.403   6.843  -1.740  0.00  0.00    +0.017 A 
ATOM     26  C   UNL     1      -1.258   7.477  -2.743  0.00  0.00    +0.002 A 
ATOM     27  C   UNL     1      -2.226   8.420  -2.376  0.00  0.00    +0.059 A 
ATOM     28  C   UNL     1      -3.018   8.997  -3.343  0.00  0.00    +0.167 A 
ATOM     29  C   UNL     1      -2.859   8.644  -4.689  0.00  0.00    +0.168 A 
ATOM     30  C   UNL     1      -1.907   7.712  -5.060  0.00  0.00    +0.075 A 
ATOM     31  C   UNL     1      -1.101   7.121  -4.097  0.00  0.00    +0.053 A 
ATOM     32  N   UNL     1      -0.145   6.189  -4.449  0.00  0.00    -0.322 N 
ATOM     33  H   UNL     1      -0.038   5.944  -5.381  0.00  0.00    +0.169 HD
ATOM     34  C   UNL     1       0.638   5.616  -3.519  0.00  0.00    +0.251 A 
ATOM     35  O   UNL     1       1.471   4.796  -3.866  0.00  0.00    -0.268 OA
ATOM     36  O   UNL     1      -3.757   9.354  -5.432  0.00  0.00    -0.453 OA
ATOM     37  C   UNL     1      -4.183  10.440  -4.588  0.00  0.00    +0.466 C 
ATOM     38  O   UNL     1      -4.016   9.926  -3.254  0.00  0.00    -0.453 OA
ENDBRANCH  23  24
ENDBRANCH   1  23
TORSDOF 7
