REMARK  Name = ZINC23362329
REMARK  11 active torsions:
REMARK  status: ('A' for Active; 'I' for Inactive)
REMARK    1  A    between atoms: C_1  and  C_2
REMARK    2  A    between atoms: C_2  and  C_3
REMARK    3  A    between atoms: C_2  and  N_4
REMARK    4  A    between atoms: C_5  and  C_7
REMARK    5  A    between atoms: C_10  and  N_22
REMARK    6  A    between atoms: N_13  and  C_14
REMARK    7  A    between atoms: C_14  and  C_15
REMARK    8  A    between atoms: N_22  and  C_23
REMARK    9  A    between atoms: C_23  and  C_24
REMARK   10  A    between atoms: C_28  and  O_30
REMARK   11  A    between atoms: O_30  and  C_31
REMARK                            x       y       z     vdW  Elec       q    Type
REMARK                         _______ _______ _______ _____ _____    ______ ____
ROOT
ATOM      1  C   UNL     1       0.832  -1.007   3.862  0.00  0.00    +0.021 C 
ATOM      2  C   UNL     1       1.324  -2.433   3.551  0.00  0.00    +0.010 C 
ATOM      3  C   UNL     1       0.688  -3.325   4.641  0.00  0.00    +0.036 C 
ATOM      4  C   UNL     1       0.376  -2.318   5.776  0.00  0.00    -0.059 C 
ATOM      5  N   UNL     1      -0.054  -1.097   5.043  0.00  0.00    +0.391 N 
ATOM      6  H   UNL     1      -1.015  -1.188   4.750  0.00  0.00    -0.080 HD
ENDROOT
BRANCH   1   8
ATOM      7  N   UNL     1       0.679  -0.302   1.496  0.00  0.00    -0.314 N 
ATOM      8  C   UNL     1       0.065  -0.461   2.685  0.00  0.00    +0.200 C 
ATOM      9  O   UNL     1      -1.104  -0.164   2.808  0.00  0.00    -0.278 OA
ATOM     10  H   UNL     1       1.614  -0.539   1.397  0.00  0.00    +0.149 HD
BRANCH   7  12
ATOM     11  C   UNL     1      -0.051   1.758   0.398  0.00  0.00    +0.027 C 
ATOM     12  C   UNL     1      -0.067   0.229   0.352  0.00  0.00    +0.067 C 
ATOM     13  C   UNL     1       0.585  -0.248  -0.948  0.00  0.00    +0.027 C 
ENDBRANCH   7  12
ENDBRANCH   1   8
BRANCH   3  14
ATOM     14  N   UNL     1       1.640  -4.348   5.096  0.00  0.00    -0.311 NA
ATOM     15  H   UNL     1       2.577  -3.977   5.137  0.00  0.00    +0.122 HD
BRANCH  14  16
ATOM     16  C   UNL     1       1.583  -5.539   4.239  0.00  0.00    +0.116 C 
BRANCH  16  17
ATOM     17  C   UNL     1       2.570  -6.564   4.735  0.00  0.00    -0.030 A 
ATOM     18  C   UNL     1       3.868  -6.560   4.258  0.00  0.00    +0.005 A 
ATOM     19  C   UNL     1       4.777  -7.498   4.711  0.00  0.00    +0.004 A 
ATOM     20  C   UNL     1       4.390  -8.442   5.643  0.00  0.00    +0.046 A 
ATOM     21  C   UNL     1       3.088  -8.448   6.123  0.00  0.00    +0.129 A 
ATOM     22  C   UNL     1       2.180  -7.502   5.670  0.00  0.00    +0.051 A 
BRANCH  21  23
ATOM     23  O   UNL     1       2.705  -9.376   7.039  0.00  0.00    -0.456 OA
BRANCH  23  24
ATOM     24  C   UNL     1       1.802 -10.316   6.656  0.00  0.00    +0.128 A 
ATOM     25  C   UNL     1       1.399 -10.392   5.330  0.00  0.00    +0.046 A 
ATOM     26  C   UNL     1       0.480 -11.349   4.943  0.00  0.00    +0.004 A 
ATOM     27  C   UNL     1      -0.037 -12.229   5.875  0.00  0.00    +0.000 A 
ATOM     28  C   UNL     1       0.363 -12.155   7.197  0.00  0.00    +0.004 A 
ATOM     29  C   UNL     1       1.286 -11.204   7.588  0.00  0.00    +0.046 A 
ENDBRANCH  23  24
ENDBRANCH  21  23
ENDBRANCH  16  17
ENDBRANCH  14  16
ENDBRANCH   3  14
BRANCH   5  30
ATOM     30  C   UNL     1       0.109   0.092   5.890  0.00  0.00    -0.042 C 
BRANCH  30  31
ATOM     31  C   UNL     1      -0.886   0.044   7.020  0.00  0.00    -0.063 A 
ATOM     32  C   UNL     1      -2.139   0.606   6.863  0.00  0.00    +0.002 A 
ATOM     33  C   UNL     1      -3.053   0.562   7.899  0.00  0.00    +0.002 A 
ATOM     34  C   UNL     1      -2.713  -0.044   9.095  0.00  0.00    +0.020 A 
ATOM     35  C   UNL     1      -1.459  -0.607   9.253  0.00  0.00    +0.041 A 
ATOM     36  C   UNL     1      -0.548  -0.568   8.213  0.00  0.00    +0.021 A 
ATOM     37 CL   UNL     1      -1.032  -1.368  10.754  0.00  0.00    -0.084 Cl
ENDBRANCH  30  31
ENDBRANCH   5  30
TORSDOF 9
