REMARK  Name = ZINC01888891
REMARK  9 active torsions:
REMARK  status: ('A' for Active; 'I' for Inactive)
REMARK    1  A    between atoms: C_1  and  C_2
REMARK    2  A    between atoms: C_2  and  C_3
REMARK    3  A    between atoms: C_3  and  C_4
REMARK    4  A    between atoms: C_4  and  C_5
REMARK    5  A    between atoms: C_5  and  C_6
REMARK    6  A    between atoms: C_6  and  N_7
REMARK    7  A    between atoms: N_18  and  C_21
REMARK    8  A    between atoms: C_21  and  C_22
REMARK    9  A    between atoms: N_24  and  C_25
REMARK                            x       y       z     vdW  Elec       q    Type
REMARK                         _______ _______ _______ _____ _____    ______ ____
ROOT
ATOM      1  N   UNL     1      -1.102   2.535  -0.005  0.00  0.00    -0.255 N 
ATOM      2  C   UNL     1      -0.963   3.850   0.010  0.00  0.00    +0.259 C 
ATOM      3  O   UNL     1      -1.922   4.597   0.018  0.00  0.00    -0.269 OA
ATOM      4  C   UNL     1       0.434   4.365   0.010  0.00  0.00    +0.089 C 
ATOM      5  C   UNL     1       0.892   5.668   0.019  0.00  0.00    +0.065 C 
ATOM      6  C   UNL     1       2.297   6.128   0.023  0.00  0.00    +0.010 A 
ATOM      7  C   UNL     1       3.518   5.460   0.021  0.00  0.00    +0.010 A 
ATOM      8  C   UNL     1       4.694   6.183   0.027  0.00  0.00    +0.001 A 
ATOM      9  C   UNL     1       4.657   7.568   0.036  0.00  0.00    +0.002 A 
ATOM     10  C   UNL     1       3.450   8.240   0.030  0.00  0.00    +0.024 A 
ATOM     11  C   UNL     1       2.256   7.530   0.029  0.00  0.00    +0.045 A 
ATOM     12  N   UNL     1       0.930   7.950   0.037  0.00  0.00    -0.258 N 
ATOM     13  C   UNL     1       0.085   6.905   0.031  0.00  0.00    +0.253 C 
ATOM     14  O   UNL     1      -1.130   6.968   0.035  0.00  0.00    -0.270 OA
ATOM     15  S   UNL     1       1.354   2.833  -0.004  0.00  0.00    -0.060 S 
ATOM     16  C   UNL     1      -0.035   1.711  -0.008  0.00  0.00    +0.121 C 
ATOM     17  S   UNL     1      -0.016  -0.000  -0.021  0.00  0.00    -0.027 S 
ENDROOT
BRANCH   1  18
ATOM     18  C   UNL     1      -2.449   1.959  -0.013  0.00  0.00    +0.115 C 
BRANCH  18  19
ATOM     19  C   UNL     1      -2.922   1.748   1.427  0.00  0.00    +0.019 C 
BRANCH  19  20
ATOM     20  C   UNL     1      -4.329   1.147   1.418  0.00  0.00    +0.002 C 
BRANCH  20  21
ATOM     21  C   UNL     1      -4.802   0.936   2.858  0.00  0.00    -0.000 C 
BRANCH  21  23
ATOM     22  C   UNL     1      -6.682   0.124   4.289  0.00  0.00    +0.004 C 
ATOM     23  C   UNL     1      -6.209   0.335   2.849  0.00  0.00    -0.003 C 
ENDBRANCH  21  23
ENDBRANCH  20  21
ENDBRANCH  19  20
ENDBRANCH  18  19
ENDBRANCH   1  18
BRANCH  12  24
ATOM     24  C   UNL     1       0.509   9.353   0.049  0.00  0.00    +0.210 C 
BRANCH  24  25
ATOM     25  C   UNL     1       0.369   9.823   1.474  0.00  0.00    +0.235 C 
ATOM     26  O   UNL     1       0.599   9.060   2.389  0.00  0.00    -0.274 OA
ATOM     27  N   UNL     1      -0.011  11.090   1.732  0.00  0.00    -0.284 N 
ATOM     28  H   UNL     1      -0.145  11.803   0.905  0.00  0.00    +0.155 HD
BRANCH  27  29
ATOM     29  C   UNL     1      -0.235  11.499   3.052  0.00  0.00    +0.034 A 
ATOM     30  C   UNL     1      -1.234  12.420   3.334  0.00  0.00    +0.025 A 
ATOM     31  C   UNL     1      -1.457  12.818   4.638  0.00  0.00    +0.022 A 
ATOM     32  C   UNL     1      -0.677  12.308   5.661  0.00  0.00    +0.041 A 
ATOM     33  C   UNL     1       0.323  11.393   5.382  0.00  0.00    +0.022 A 
ATOM     34  C   UNL     1       0.546  10.988   4.080  0.00  0.00    +0.025 A 
ATOM     35 CL   UNL     1      -0.954  12.815   7.298  0.00  0.00    -0.084 Cl
ENDBRANCH  27  29
ENDBRANCH  24  25
ENDBRANCH  12  24
TORSDOF 8
