REMARK  Name = ZINC47877745
REMARK  7 active torsions:
REMARK  status: ('A' for Active; 'I' for Inactive)
REMARK    1  A    between atoms: C_4  and  O_23
REMARK    2  A    between atoms: C_5  and  N_7
REMARK    3  A    between atoms: N_10  and  C_11
REMARK    4  A    between atoms: C_16  and  C_19
REMARK    5  A    between atoms: O_23  and  C_24
REMARK    6  A    between atoms: C_24  and  C_25
REMARK    7  A    between atoms: C_25  and  C_26
REMARK                            x       y       z     vdW  Elec       q    Type
REMARK                         _______ _______ _______ _____ _____    ______ ____
ROOT
ATOM      1  N   UNL     1       1.234  -2.082  -0.022  0.00  0.00    -0.266 N 
ATOM      2  C   UNL     1       0.083  -2.775   0.087  0.00  0.00    +0.304 C 
ATOM      3  O   UNL     1      -0.981  -2.187   0.101  0.00  0.00    -0.252 OA
ATOM      4  N   UNL     1       0.111  -4.119   0.180  0.00  0.00    -0.296 N 
ATOM      5  H   UNL     1       2.077  -2.554  -0.116  0.00  0.00    +0.156 HD
ATOM      6  H   UNL     1       0.960  -4.588   0.169  0.00  0.00    +0.151 HD
ENDROOT
BRANCH   1  11
ATOM      7  C   UNL     1       0.154   1.372   0.642  0.00  0.00    +0.002 A 
ATOM      8  C   UNL     1       1.173   2.088   0.043  0.00  0.00    +0.004 A 
ATOM      9  C   UNL     1       2.215   1.427  -0.580  0.00  0.00    +0.047 A 
ATOM     10  C   UNL     1       2.240   0.042  -0.604  0.00  0.00    +0.142 A 
ATOM     11  C   UNL     1       1.214  -0.681  -0.000  0.00  0.00    +0.077 A 
ATOM     12  C   UNL     1       0.172  -0.010   0.623  0.00  0.00    +0.027 A 
BRANCH  10  13
ATOM     13  O   UNL     1       3.264  -0.611  -1.216  0.00  0.00    -0.490 OA
BRANCH  13  14
ATOM     14  C   UNL     1       4.281   0.196  -1.815  0.00  0.00    +0.238 C 
BRANCH  14  15
ATOM     15  C   UNL     1       5.340  -0.708  -2.450  0.00  0.00    +0.136 C 
BRANCH  15  16
ATOM     16  C   UNL     1       6.413   0.142  -3.081  0.00  0.00    +0.214 C 
ATOM     17  O   UNL     1       6.338   1.351  -3.028  0.00  0.00    -0.276 OA
ATOM     18  N   UNL     1       7.456  -0.442  -3.704  0.00  0.00    -0.329 N 
ATOM     19  H   UNL     1       7.516  -1.409  -3.746  0.00  0.00    +0.145 HD
ATOM     20  H   UNL     1       8.146   0.106  -4.110  0.00  0.00    +0.145 HD
ENDBRANCH  15  16
ENDBRANCH  14  15
ENDBRANCH  13  14
ENDBRANCH  10  13
ENDBRANCH   1  11
BRANCH   4  21
ATOM     21  C   UNL     1      -1.140  -4.871   0.298  0.00  0.00    +0.075 C 
ATOM     22  C   UNL     1      -1.716  -5.127  -1.096  0.00  0.00    +0.022 C 
ATOM     23  C   UNL     1      -0.712  -5.933  -1.922  0.00  0.00    +0.002 C 
ATOM     24  C   UNL     1      -0.439  -7.270  -1.230  0.00  0.00    +0.012 C 
ATOM     25  C   UNL     1       0.136  -7.015   0.164  0.00  0.00    +0.095 C 
ATOM     26  C   UNL     1      -0.867  -6.209   0.990  0.00  0.00    +0.034 C 
BRANCH  25  27
ATOM     27  C   UNL     1       0.409  -8.352   0.856  0.00  0.00    +0.393 C 
ATOM     28  F   UNL     1       1.327  -9.090   0.101  0.00  0.00    -0.170 F 
ATOM     29  F   UNL     1       0.935  -8.119   2.131  0.00  0.00    -0.170 F 
ATOM     30  F   UNL     1      -0.786  -9.071   0.969  0.00  0.00    -0.170 F 
ENDBRANCH  25  27
ENDBRANCH   4  21
TORSDOF 7
