REMARK  Name = ZINC05024702
REMARK  6 active torsions:
REMARK  status: ('A' for Active; 'I' for Inactive)
REMARK    1  A    between atoms: C_1  and  C_2
REMARK    2  A    between atoms: C_2  and  C_10
REMARK    3  A    between atoms: C_3  and  C_4
REMARK    4  A    between atoms: N_14  and  N_18
REMARK    5  A    between atoms: C_19  and  C_21
REMARK    6  A    between atoms: C_26  and  O_27
REMARK                            x       y       z     vdW  Elec       q    Type
REMARK                         _______ _______ _______ _____ _____    ______ ____
ROOT
ATOM      1  C   UNL     1      -2.451   1.076  -0.095  0.00  0.00    +0.023 C 
ATOM      2  C   UNL     1      -3.583   1.769  -0.409  0.00  0.00    +0.078 C 
ATOM      3  C   UNL     1      -4.976   1.296  -0.519  0.00  0.00    +0.275 C 
ATOM      4  O   UNL     1      -5.272   0.132  -0.320  0.00  0.00    -0.267 OA
ATOM      5  N   UNL     1      -5.886   2.199  -0.840  0.00  0.00    -0.169 N 
ATOM      6  C   UNL     1      -5.552   3.486  -1.066  0.00  0.00    +0.138 C 
ATOM      7  S   UNL     1      -6.575   4.791  -1.495  0.00  0.00    -0.026 S 
ATOM      8  S   UNL     1      -3.785   3.500  -0.808  0.00  0.00    -0.060 S 
ENDROOT
BRANCH   5   9
ATOM      9  N   UNL     1      -7.227   1.809  -0.955  0.00  0.00    -0.222 N 
ATOM     10  C   UNL     1      -7.787   1.672  -2.173  0.00  0.00    +0.264 C 
ATOM     11  O   UNL     1      -7.129   1.886  -3.172  0.00  0.00    -0.269 OA
ATOM     12  H   UNL     1      -7.752   1.639  -0.157  0.00  0.00    +0.174 HD
BRANCH  10  13
ATOM     13  C   UNL     1      -9.199   1.261  -2.293  0.00  0.00    +0.079 A 
ATOM     14  C   UNL     1      -9.959   1.014  -1.147  0.00  0.00    +0.017 A 
ATOM     15  C   UNL     1     -11.277   0.631  -1.266  0.00  0.00    +0.001 A 
ATOM     16  C   UNL     1     -11.854   0.490  -2.518  0.00  0.00    +0.004 A 
ATOM     17  C   UNL     1     -11.114   0.730  -3.659  0.00  0.00    +0.046 A 
ATOM     18  C   UNL     1      -9.787   1.122  -3.557  0.00  0.00    +0.129 A 
BRANCH  18  19
ATOM     19  O   UNL     1      -9.061   1.365  -4.677  0.00  0.00    -0.506 OA
ATOM     20  H   UNL     1      -8.602   0.588  -5.024  0.00  0.00    +0.292 HD
ENDBRANCH  18  19
ENDBRANCH  10  13
ENDBRANCH   5   9
BRANCH   1  22
ATOM     21  C   UNL     1      -1.212   3.269   0.088  0.00  0.00    +0.044 C 
ATOM     22  C   UNL     1      -1.237   1.762   0.104  0.00  0.00    -0.049 C 
ATOM     23  C   UNL     1      -0.092   1.068   0.308  0.00  0.00    +0.011 C 
BRANCH  23  24
ATOM     24  C   UNL     1       1.198   1.773   0.346  0.00  0.00    -0.025 A 
ATOM     25  C   UNL     1       1.438   2.849  -0.515  0.00  0.00    +0.008 A 
ATOM     26  C   UNL     1       2.648   3.507  -0.469  0.00  0.00    +0.001 A 
ATOM     27  C   UNL     1       3.629   3.099   0.418  0.00  0.00    +0.000 A 
ATOM     28  C   UNL     1       3.401   2.033   1.270  0.00  0.00    +0.001 A 
ATOM     29  C   UNL     1       2.194   1.367   1.241  0.00  0.00    +0.008 A 
ENDBRANCH  23  24
ENDBRANCH   1  22
TORSDOF 5
