REMARK  Name = ZINC20579080
REMARK  7 active torsions:
REMARK  status: ('A' for Active; 'I' for Inactive)
REMARK    1  A    between atoms: C_1  and  C_2
REMARK    2  A    between atoms: N_5  and  C_8
REMARK    3  A    between atoms: C_6  and  N_7
REMARK    4  A    between atoms: C_14  and  C_16
REMARK    5  A    between atoms: C_16  and  C_17
REMARK    6  A    between atoms: C_16  and  C_18
REMARK    7  A    between atoms: C_16  and  C_19
REMARK                            x       y       z     vdW  Elec       q    Type
REMARK                         _______ _______ _______ _____ _____    ______ ____
ROOT
ATOM      1  C   UNL     1       0.702   0.876  -0.524  0.00  0.00    +0.113 C 
ATOM      2  C   UNL     1       1.178  -0.578  -0.513  0.00  0.00    +0.027 C 
ATOM      3  C   UNL     1       2.291  -0.757  -1.548  0.00  0.00    +0.002 C 
ATOM      4  C   UNL     1       3.462   0.166  -1.203  0.00  0.00    +0.000 C 
ATOM      5  C   UNL     1       2.986   1.619  -1.213  0.00  0.00    +0.006 C 
ATOM      6  C   UNL     1       1.873   1.799  -0.178  0.00  0.00    +0.019 C 
ENDROOT
BRANCH   1  11
ATOM      7  C   UNL     1      -2.386   2.091  -4.291  0.00  0.00    +0.049 C 
ATOM      8  C   UNL     1      -1.150   1.743  -3.503  0.00  0.00    +0.008 A 
ATOM      9  C   UNL     1       0.147   1.635  -4.011  0.00  0.00    +0.139 A 
ATOM     10  N   UNL     1       0.950   1.319  -3.027  0.00  0.00    -0.177 NA
ATOM     11  N   UNL     1       0.190   1.214  -1.854  0.00  0.00    -0.247 N 
ATOM     12  C   UNL     1      -1.099   1.472  -2.169  0.00  0.00    +0.118 A 
BRANCH  12  13
ATOM     13  N   UNL     1      -2.178   1.467  -1.289  0.00  0.00    -0.343 N 
ATOM     14  H   UNL     1      -2.019   1.232  -0.226  0.00  0.00    +0.144 HD
ATOM     15  H   UNL     1      -3.189   1.696  -1.657  0.00  0.00    +0.144 HD
ENDBRANCH  12  13
ENDBRANCH   1  11
BRANCH   6  16
ATOM     16  C   UNL     1       1.397   3.253  -0.189  0.00  0.00    -0.033 C 
ATOM     17  C   UNL     1       0.176   3.396   0.722  0.00  0.00    +0.011 C 
ATOM     18  C   UNL     1       2.519   4.161   0.317  0.00  0.00    +0.011 C 
ATOM     19  C   UNL     1       1.019   3.656  -1.615  0.00  0.00    +0.011 C 
ENDBRANCH   6  16
TORSDOF 3
