REMARK  Name = ZINC03661032
REMARK  7 active torsions:
REMARK  status: ('A' for Active; 'I' for Inactive)
REMARK    1  A    between atoms: C_1  and  N_2
REMARK    2  A    between atoms: C_3  and  C_27
REMARK    3  A    between atoms: C_5  and  C_15
REMARK    4  A    between atoms: C_30  and  O_35
REMARK    5  A    between atoms: C_31  and  O_33
REMARK    6  A    between atoms: O_33  and  C_34
REMARK    7  A    between atoms: O_35  and  C_36
REMARK                            x       y       z     vdW  Elec       q    Type
REMARK                         _______ _______ _______ _____ _____    ______ ____
ROOT
ATOM      1  C   UNL     1      -0.018   1.461   0.010  0.00  0.00    +0.133 C 
ATOM      2  N   UNL     1       0.002  -0.004   0.002  0.00  0.00    -0.292 N 
ATOM      3  C   UNL     1      -1.260  -0.740   0.004  0.00  0.00    +0.122 C 
ATOM      4  C   UNL     1      -1.179  -1.962   0.916  0.00  0.00    +0.131 C 
ATOM      5  C   UNL     1       0.049  -2.770   0.591  0.00  0.00    -0.021 A 
ATOM      6  C   UNL     1       0.041  -4.143   0.716  0.00  0.00    +0.005 A 
ATOM      7  C   UNL     1       1.182  -4.870   0.427  0.00  0.00    +0.000 A 
ATOM      8  C   UNL     1       2.336  -4.228   0.013  0.00  0.00    +0.001 A 
ATOM      9  C   UNL     1       2.356  -2.854  -0.121  0.00  0.00    +0.013 A 
ATOM     10  C   UNL     1       1.206  -2.119   0.162  0.00  0.00    +0.041 A 
ATOM     11  C   UNL     1       1.183  -0.651  -0.013  0.00  0.00    +0.247 C 
ATOM     12  O   UNL     1       2.219  -0.033  -0.164  0.00  0.00    -0.270 OA
ENDROOT
BRANCH   4  13
ATOM     13  C   UNL     1      -1.111  -1.510   2.352  0.00  0.00    +0.228 C 
ATOM     14  O   UNL     1      -1.126  -0.326   2.616  0.00  0.00    -0.275 OA
ATOM     15  N   UNL     1      -1.033  -2.420   3.342  0.00  0.00    -0.264 N 
ATOM     16  C   UNL     1      -0.971  -2.005   4.662  0.00  0.00    +0.165 A 
ATOM     17  N   UNL     1      -0.980  -0.783   5.142  0.00  0.00    -0.225 NA
ATOM     18  C   UNL     1      -0.913  -0.522   6.465  0.00  0.00    +0.080 A 
ATOM     19  C   UNL     1      -0.914   0.738   7.108  0.00  0.00    +0.029 A 
ATOM     20  C   UNL     1      -0.838   0.827   8.474  0.00  0.00    +0.002 A 
ATOM     21  C   UNL     1      -0.759  -0.306   9.271  0.00  0.00    +0.001 A 
ATOM     22  C   UNL     1      -0.756  -1.554   8.676  0.00  0.00    +0.017 A 
ATOM     23  C   UNL     1      -0.831  -1.653   7.309  0.00  0.00    +0.041 A 
ATOM     24  S   UNL     1      -0.864  -2.996   6.146  0.00  0.00    -0.052 S 
ATOM     25  H   UNL     1      -1.022  -3.367   3.131  0.00  0.00    +0.157 HD
ENDBRANCH   4  13
BRANCH   3  26
ATOM     26  C   UNL     1      -1.572  -1.192  -1.399  0.00  0.00    -0.022 A 
ATOM     27  C   UNL     1      -0.560  -1.666  -2.213  0.00  0.00    +0.009 A 
ATOM     28  C   UNL     1      -0.841  -2.081  -3.501  0.00  0.00    +0.050 A 
ATOM     29  C   UNL     1      -2.140  -2.023  -3.980  0.00  0.00    +0.162 A 
ATOM     30  C   UNL     1      -3.159  -1.546  -3.161  0.00  0.00    +0.162 A 
ATOM     31  C   UNL     1      -2.871  -1.136  -1.869  0.00  0.00    +0.055 A 
BRANCH  30  32
ATOM     32  O   UNL     1      -4.436  -1.487  -3.626  0.00  0.00    -0.491 OA
ATOM     33  C   UNL     1      -5.430  -0.987  -2.730  0.00  0.00    +0.277 C 
ENDBRANCH  30  32
BRANCH  29  34
ATOM     34  O   UNL     1      -2.418  -2.430  -5.247  0.00  0.00    -0.491 OA
ATOM     35  C   UNL     1      -1.322  -2.908  -6.030  0.00  0.00    +0.277 C 
ENDBRANCH  29  34
ENDBRANCH   3  26
TORSDOF 4
