REMARK  Name = ZINC57782477
REMARK  7 active torsions:
REMARK  status: ('A' for Active; 'I' for Inactive)
REMARK    1  A    between atoms: C_1  and  C_2
REMARK    2  A    between atoms: C_5  and  C_7
REMARK    3  A    between atoms: C_16  and  C_18
REMARK    4  A    between atoms: C_18  and  S_19
REMARK    5  A    between atoms: S_19  and  C_20
REMARK    6  A    between atoms: C_22  and  C_27
REMARK    7  A    between atoms: C_24  and  N_26
REMARK                            x       y       z     vdW  Elec       q    Type
REMARK                         _______ _______ _______ _____ _____    ______ ____
ROOT
ATOM      1  C   UNL     1       1.040  -4.033  -0.026  0.00  0.00    +0.010 A 
ATOM      2  C   UNL     1       0.587  -4.954   0.861  0.00  0.00    +0.057 A 
ATOM      3  S   UNL     1       1.512  -6.420   0.444  0.00  0.00    -0.076 S 
ATOM      4  C   UNL     1       2.475  -5.771  -0.897  0.00  0.00    +0.116 A 
ATOM      5  C   UNL     1       2.055  -4.435  -0.995  0.00  0.00    +0.080 A 
ATOM      6  C   UNL     1       2.682  -3.661  -2.022  0.00  0.00    +0.260 A 
ATOM      7  O   UNL     1       2.385  -2.489  -2.182  0.00  0.00    -0.267 OA
ATOM      8  N   UNL     1       3.603  -4.246  -2.809  0.00  0.00    -0.310 N 
ATOM      9  H   UNL     1       4.032  -3.727  -3.507  0.00  0.00    +0.170 HD
ATOM     10  C   UNL     1       3.946  -5.550  -2.644  0.00  0.00    +0.121 A 
ATOM     11  N   UNL     1       3.398  -6.279  -1.710  0.00  0.00    -0.226 NA
ENDROOT
BRANCH   1  16
ATOM     12  C   UNL     1      -0.018   1.503   0.010  0.00  0.00    +0.051 C 
ATOM     13  C   UNL     1       0.002  -0.004   0.002  0.00  0.00    -0.013 A 
ATOM     14  C   UNL     1      -1.042  -0.871   0.002  0.00  0.00    +0.011 A 
ATOM     15  C   UNL     1      -0.789  -2.227  -0.007  0.00  0.00    +0.016 A 
ATOM     16  C   UNL     1       0.512  -2.653  -0.016  0.00  0.00    +0.021 A 
ATOM     17  S   UNL     1       1.406  -1.107  -0.018  0.00  0.00    -0.093 S 
ENDBRANCH   1  16
BRANCH  10  18
ATOM     18  C   UNL     1       4.984  -6.163  -3.549  0.00  0.00    +0.151 C 
BRANCH  18  19
ATOM     19  S   UNL     1       5.232  -7.901  -3.094  0.00  0.00    -0.078 S 
BRANCH  19  20
ATOM     20  C   UNL     1       6.456  -8.468  -4.227  0.00  0.00    +0.191 A 
ATOM     21  N   UNL     1       6.864  -9.728  -4.162  0.00  0.00    -0.227 NA
ATOM     22  C   UNL     1       7.782 -10.190  -4.997  0.00  0.00    +0.044 A 
ATOM     23  C   UNL     1       8.320  -9.343  -5.947  0.00  0.00    +0.066 A 
ATOM     24  C   UNL     1       7.872  -8.022  -5.992  0.00  0.00    +0.121 A 
ATOM     25  N   UNL     1       6.943  -7.626  -5.127  0.00  0.00    -0.207 NA
ATOM     26  C   UNL     1       8.237 -11.624  -4.911  0.00  0.00    +0.066 C 
BRANCH  24  27
ATOM     27  N   UNL     1       8.383  -7.137  -6.928  0.00  0.00    -0.343 N 
ATOM     28  H   UNL     1       9.058  -7.435  -7.558  0.00  0.00    +0.144 HD
ATOM     29  H   UNL     1       8.066  -6.221  -6.953  0.00  0.00    +0.144 HD
ENDBRANCH  24  27
ENDBRANCH  19  20
ENDBRANCH  18  19
ENDBRANCH  10  18
TORSDOF 5
