REMARK  Name = ZINC64870807
REMARK  10 active torsions:
REMARK  status: ('A' for Active; 'I' for Inactive)
REMARK    1  A    between atoms: C_1  and  C_2
REMARK    2  A    between atoms: C_2  and  C_3
REMARK    3  A    between atoms: C_2  and  O_4
REMARK    4  A    between atoms: O_4  and  C_5
REMARK    5  A    between atoms: C_8  and  C_11
REMARK    6  A    between atoms: C_14  and  C_18
REMARK    7  A    between atoms: N_28  and  C_31
REMARK    8  A    between atoms: C_31  and  C_32
REMARK    9  A    between atoms: C_32  and  C_33
REMARK   10  A    between atoms: C_33  and  C_34
REMARK                            x       y       z     vdW  Elec       q    Type
REMARK                         _______ _______ _______ _____ _____    ______ ____
ROOT
ATOM      1  C   UNL     1      -3.748  -8.647  -0.900  0.00  0.00    -0.000 A 
ATOM      2  C   UNL     1      -4.627  -8.710  -1.971  0.00  0.00    +0.008 A 
ATOM      3  C   UNL     1      -5.542  -9.737  -2.064  0.00  0.00    +0.016 A 
ATOM      4  C   UNL     1      -5.579 -10.715  -1.073  0.00  0.00    +0.063 A 
ATOM      5  C   UNL     1      -4.688 -10.651   0.013  0.00  0.00    +0.056 A 
ATOM      6  C   UNL     1      -3.771  -9.614   0.086  0.00  0.00    +0.034 A 
ATOM      7  N   UNL     1      -4.747 -11.639   0.985  0.00  0.00    -0.307 N 
ATOM      8  H   UNL     1      -4.139 -11.607   1.739  0.00  0.00    +0.170 HD
ATOM      9  C   UNL     1      -5.640 -12.639   0.891  0.00  0.00    +0.330 A 
ATOM     10  O   UNL     1      -5.660 -13.485   1.764  0.00  0.00    -0.246 OA
ATOM     11  N   UNL     1      -6.511 -12.744  -0.125  0.00  0.00    -0.261 N 
ATOM     12  C   UNL     1      -6.536 -11.835  -1.123  0.00  0.00    +0.264 A 
ATOM     13  O   UNL     1      -7.328 -11.937  -2.040  0.00  0.00    -0.267 OA
ENDROOT
BRANCH   1  16
ATOM     14  C   UNL     1      -2.167  -5.641  -2.132  0.00  0.00    +0.180 C 
ATOM     15  N   UNL     1      -3.304  -6.300  -1.454  0.00  0.00    -0.265 NA
ATOM     16  C   UNL     1      -2.755  -7.517  -0.815  0.00  0.00    +0.242 C 
ATOM     17  O   UNL     1      -1.567  -7.830  -1.577  0.00  0.00    -0.274 OA
ATOM     18  N   UNL     1      -0.987  -6.499  -1.872  0.00  0.00    -0.177 NA
ATOM     19  H   UNL     1      -3.719  -5.687  -0.768  0.00  0.00    +0.127 HD
ATOM     20  H   UNL     1      -0.383  -6.538  -2.680  0.00  0.00    +0.156 HD
BRANCH  14  24
ATOM     21  C   UNL     1      -1.538  -1.739  -0.505  0.00  0.00    +0.121 A 
ATOM     22  C   UNL     1      -0.465  -2.468  -0.997  0.00  0.00    +0.046 A 
ATOM     23  C   UNL     1      -0.671  -3.729  -1.522  0.00  0.00    +0.010 A 
ATOM     24  C   UNL     1      -1.945  -4.265  -1.558  0.00  0.00    -0.014 A 
ATOM     25  C   UNL     1      -3.017  -3.540  -1.070  0.00  0.00    +0.010 A 
ATOM     26  C   UNL     1      -2.815  -2.281  -0.538  0.00  0.00    +0.046 A 
BRANCH  21  27
ATOM     27  O   UNL     1      -1.339  -0.499   0.012  0.00  0.00    -0.489 OA
BRANCH  27  29
ATOM     28  C   UNL     1      -1.982   1.168   1.640  0.00  0.00    +0.051 C 
ATOM     29  C   UNL     1      -2.466   0.143   0.612  0.00  0.00    +0.167 C 
ATOM     30  C   UNL     1      -3.283   0.853  -0.469  0.00  0.00    +0.051 C 
ENDBRANCH  27  29
ENDBRANCH  21  27
ENDBRANCH  14  24
ENDBRANCH   1  16
BRANCH  11  31
ATOM     31  C   UNL     1      -7.452 -13.867  -0.152  0.00  0.00    +0.130 C 
BRANCH  31  32
ATOM     32  C   UNL     1      -8.737 -13.472   0.579  0.00  0.00    +0.026 C 
BRANCH  32  33
ATOM     33  C   UNL     1      -9.720 -14.645   0.551  0.00  0.00    +0.037 C 
BRANCH  33  34
ATOM     34  C   UNL     1     -10.986 -14.256   1.270  0.00  0.00    -0.047 A 
ATOM     35  C   UNL     1     -11.105 -14.482   2.629  0.00  0.00    +0.003 A 
ATOM     36  C   UNL     1     -12.267 -14.125   3.289  0.00  0.00    +0.000 A 
ATOM     37  C   UNL     1     -13.308 -13.543   2.591  0.00  0.00    +0.000 A 
ATOM     38  C   UNL     1     -13.188 -13.317   1.232  0.00  0.00    +0.000 A 
ATOM     39  C   UNL     1     -12.025 -13.669   0.573  0.00  0.00    +0.003 A 
ENDBRANCH  33  34
ENDBRANCH  32  33
ENDBRANCH  31  32
ENDBRANCH  11  31
TORSDOF 8
