REMARK  Name = ZINC04784833
REMARK  7 active torsions:
REMARK  status: ('A' for Active; 'I' for Inactive)
REMARK    1  A    between atoms: C_1  and  C_2
REMARK    2  A    between atoms: C_2  and  C_27
REMARK    3  A    between atoms: C_3  and  N_16
REMARK    4  A    between atoms: N_5  and  N_9
REMARK    5  A    between atoms: N_9  and  C_10
REMARK    6  A    between atoms: N_16  and  O_26
REMARK    7  A    between atoms: N_19  and  C_20
REMARK                            x       y       z     vdW  Elec       q    Type
REMARK                         _______ _______ _______ _____ _____    ______ ____
ROOT
ATOM      1  C   UNL     1      -3.962  -2.373  -2.221  0.00  0.00    +0.026 C 
ATOM      2  C   UNL     1      -2.988  -2.674  -1.081  0.00  0.00    +0.056 C 
ATOM      3  C   UNL     1      -1.748  -1.759  -1.152  0.00  0.00    +0.228 C 
ATOM      4  N   UNL     1      -1.603  -0.904   0.003  0.00  0.00    -0.216 N 
ATOM      5  C   UNL     1      -2.489  -0.950   1.009  0.00  0.00    +0.128 C 
ATOM      6  S   UNL     1      -2.469  -0.021   2.446  0.00  0.00    -0.026 S 
ATOM      7  S   UNL     1      -3.691  -2.177   0.538  0.00  0.00    -0.091 S 
ATOM      8  C   UNL     1      -2.585  -4.150  -1.078  0.00  0.00    +0.026 C 
ENDROOT
BRANCH   3   9
ATOM      9  N   UNL     1      -1.850  -0.920  -2.349  0.00  0.00    -0.144 N 
ATOM     10  C   UNL     1      -0.963  -1.067  -3.352  0.00  0.00    +0.327 C 
ATOM     11  O   UNL     1      -0.021  -1.826  -3.225  0.00  0.00    -0.250 OA
ATOM     12  N   UNL     1      -1.119  -0.373  -4.497  0.00  0.00    -0.295 N 
ATOM     13  H   UNL     1      -1.825   0.288  -4.571  0.00  0.00    +0.151 HD
BRANCH  12  14
ATOM     14  C   UNL     1      -0.221  -0.615  -5.628  0.00  0.00    +0.074 C 
ATOM     15  C   UNL     1       1.067   0.189  -5.439  0.00  0.00    +0.022 C 
ATOM     16  C   UNL     1       2.005  -0.064  -6.621  0.00  0.00    +0.002 C 
ATOM     17  C   UNL     1       1.320   0.370  -7.918  0.00  0.00    +0.000 C 
ATOM     18  C   UNL     1       0.032  -0.433  -8.107  0.00  0.00    +0.002 C 
ATOM     19  C   UNL     1      -0.906  -0.180  -6.926  0.00  0.00    +0.022 C 
ENDBRANCH  12  14
BRANCH   9  20
ATOM     20  O   UNL     1      -2.881   0.045  -2.451  0.00  0.00    -0.289 OA
ATOM     21  H   UNL     1      -2.914   0.496  -3.306  0.00  0.00    +0.242 HD
ENDBRANCH   9  20
ENDBRANCH   3   9
BRANCH   4  22
ATOM     22  N   UNL     1      -0.520  -0.018   0.076  0.00  0.00    -0.261 N 
ATOM     23  H   UNL     1       0.371  -0.356   0.254  0.00  0.00    +0.170 HD
BRANCH  22  24
ATOM     24  C   UNL     1      -0.724   1.351  -0.107  0.00  0.00    +0.045 A 
ATOM     25  C   UNL     1      -1.995   1.833  -0.395  0.00  0.00    +0.024 A 
ATOM     26  C   UNL     1      -2.194   3.189  -0.571  0.00  0.00    +0.002 A 
ATOM     27  C   UNL     1      -1.129   4.064  -0.470  0.00  0.00    +0.000 A 
ATOM     28  C   UNL     1       0.139   3.587  -0.188  0.00  0.00    +0.002 A 
ATOM     29  C   UNL     1       0.344   2.234  -0.006  0.00  0.00    +0.024 A 
ENDBRANCH  22  24
ENDBRANCH   4  22
TORSDOF 5
