REMARK  Name = ZINC20191170
REMARK  10 active torsions:
REMARK  status: ('A' for Active; 'I' for Inactive)
REMARK    1  A    between atoms: C_1  and  O_2
REMARK    2  A    between atoms: O_2  and  C_3
REMARK    3  A    between atoms: C_5  and  C_10
REMARK    4  A    between atoms: C_8  and  O_9
REMARK    5  A    between atoms: C_12  and  C_36
REMARK    6  A    between atoms: C_13  and  S_22
REMARK    7  A    between atoms: S_22  and  C_23
REMARK    8  A    between atoms: C_23  and  C_24
REMARK    9  A    between atoms: N_26  and  C_27
REMARK   10  A    between atoms: C_32  and  N_33
REMARK                            x       y       z     vdW  Elec       q    Type
REMARK                         _______ _______ _______ _____ _____    ______ ____
ROOT
ATOM      1  C   UNL     1      -4.917   0.325   0.012  0.00  0.00    +0.097 C 
ATOM      2  C   UNL     1      -5.646   0.006   1.304  0.00  0.00    +0.073 C 
ATOM      3  C   UNL     1      -6.927  -0.509   1.198  0.00  0.00    +0.112 C 
ATOM      4  N   UNL     1      -7.515  -0.722   0.019  0.00  0.00    -0.244 NA
ATOM      5  C   UNL     1      -6.982  -0.484  -1.153  0.00  0.00    +0.050 C 
ATOM      6  C   UNL     1      -5.684   0.038  -1.265  0.00  0.00    +0.029 C 
ATOM      7  C   UNL     1      -5.118   0.286  -2.457  0.00  0.00    +0.162 C 
ATOM      8  C   UNL     1      -5.852   0.014  -3.743  0.00  0.00    +0.080 C 
ATOM      9  C   UNL     1      -6.829  -1.147  -3.532  0.00  0.00    +0.014 C 
ATOM     10  C   UNL     1      -7.781  -0.781  -2.400  0.00  0.00    +0.056 C 
ATOM     11  O   UNL     1      -3.868   0.788  -2.504  0.00  0.00    -0.292 OA
ENDROOT
BRANCH   1  14
ATOM     12  C   UNL     1      -1.243  -0.556  -0.054  0.00  0.00    +0.162 A 
ATOM     13  C   UNL     1      -2.419   0.177  -0.027  0.00  0.00    +0.054 A 
ATOM     14  C   UNL     1      -3.639  -0.473  -0.017  0.00  0.00    -0.031 A 
ATOM     15  C   UNL     1      -3.689  -1.855  -0.034  0.00  0.00    +0.008 A 
ATOM     16  C   UNL     1      -2.520  -2.592  -0.060  0.00  0.00    +0.049 A 
ATOM     17  C   UNL     1      -1.294  -1.946  -0.076  0.00  0.00    +0.158 A 
BRANCH  12  19
ATOM     18  C   UNL     1      -0.067   1.511  -0.040  0.00  0.00    +0.277 C 
ATOM     19  O   UNL     1      -0.043   0.083  -0.064  0.00  0.00    -0.491 OA
ENDBRANCH  12  19
BRANCH  17  20
ATOM     20  O   UNL     1      -0.143  -2.670  -0.108  0.00  0.00    -0.503 OA
ATOM     21  H   UNL     1       0.205  -2.893   0.766  0.00  0.00    +0.292 HD
ENDBRANCH  17  20
ENDBRANCH   1  14
BRANCH   2  22
ATOM     22  C   UNL     1      -5.035   0.227   2.580  0.00  0.00    +0.098 C 
ATOM     23  N   UNL     1      -4.550   0.402   3.592  0.00  0.00    -0.191 NA
ENDBRANCH   2  22
BRANCH   3  24
ATOM     24  S   UNL     1      -7.812  -0.895   2.672  0.00  0.00    -0.096 S 
BRANCH  24  25
ATOM     25  C   UNL     1      -9.405  -1.526   2.075  0.00  0.00    +0.172 C 
BRANCH  25  26
ATOM     26  C   UNL     1     -10.271  -1.898   3.251  0.00  0.00    +0.227 C 
ATOM     27  O   UNL     1      -9.854  -1.753   4.380  0.00  0.00    -0.275 OA
ATOM     28  N   UNL     1     -11.508  -2.393   3.047  0.00  0.00    -0.283 N 
ATOM     29  H   UNL     1     -11.866  -2.448   2.147  0.00  0.00    +0.155 HD
BRANCH  28  30
ATOM     30  C   UNL     1     -12.276  -2.826   4.133  0.00  0.00    +0.064 A 
ATOM     31  C   UNL     1     -12.194  -2.164   5.351  0.00  0.00    +0.025 A 
ATOM     32  C   UNL     1     -12.953  -2.595   6.422  0.00  0.00    +0.002 A 
ATOM     33  C   UNL     1     -13.794  -3.684   6.282  0.00  0.00    +0.002 A 
ATOM     34  C   UNL     1     -13.877  -4.345   5.070  0.00  0.00    +0.034 A 
ATOM     35  C   UNL     1     -13.125  -3.916   3.994  0.00  0.00    +0.147 A 
BRANCH  35  36
ATOM     36  N   UNL     1     -13.220  -4.620   2.696  0.00  0.00    +0.058 N 
ATOM     37  O   UNL     1     -14.029  -5.506   2.546  0.00  0.00    -0.126 OA
ATOM     38  O   UNL     1     -12.488  -4.310   1.785  0.00  0.00    -0.126 OA
ENDBRANCH  35  36
ENDBRANCH  28  30
ENDBRANCH  25  26
ENDBRANCH  24  25
ENDBRANCH   3  24
TORSDOF 9
