REMARK  Name = ZINC45953654
REMARK  4 active torsions:
REMARK  status: ('A' for Active; 'I' for Inactive)
REMARK    1  A    between atoms: C_3  and  N_17
REMARK    2  A    between atoms: C_5  and  N_7
REMARK    3  A    between atoms: C_9  and  C_14
REMARK    4  A    between atoms: C_19  and  C_24
REMARK                            x       y       z     vdW  Elec       q    Type
REMARK                         _______ _______ _______ _____ _____    ______ ____
ROOT
ATOM      1  C   UNL     1      -0.096   1.207   0.045  0.00  0.00    +0.004 A 
ATOM      2  C   UNL     1       0.981   2.071   0.007  0.00  0.00    +0.023 A 
ATOM      3  C   UNL     1       2.275   1.568  -0.044  0.00  0.00    +0.038 A 
ATOM      4  C   UNL     1       2.485   0.197  -0.057  0.00  0.00    +0.047 A 
ATOM      5  C   UNL     1       1.401  -0.668  -0.018  0.00  0.00    +0.038 A 
ATOM      6  C   UNL     1       0.110  -0.160   0.033  0.00  0.00    +0.023 A 
ENDROOT
BRANCH   5   7
ATOM      7  N   UNL     1       1.609  -2.052  -0.031  0.00  0.00    -0.271 N 
ATOM      8  C   UNL     1       2.927  -2.692   0.044  0.00  0.00    +0.129 C 
ATOM      9  C   UNL     1       2.650  -4.162   0.434  0.00  0.00    +0.128 C 
ATOM     10  C   UNL     1       1.210  -4.361  -0.093  0.00  0.00    +0.112 C 
ATOM     11  C   UNL     1       0.626  -2.966  -0.109  0.00  0.00    +0.221 C 
ATOM     12  O   UNL     1      -0.557  -2.709  -0.184  0.00  0.00    -0.275 OA
BRANCH   9  13
ATOM     13  C   UNL     1       3.612  -5.093  -0.257  0.00  0.00    +0.361 C 
ATOM     14  O   UNL     1       4.078  -6.045   0.346  0.00  0.00    -0.246 OA
ATOM     15  O   UNL     1       3.924  -4.895  -1.419  0.00  0.00    -0.246 OA
ENDBRANCH   9  13
ENDBRANCH   5   7
BRANCH   3  16
ATOM     16  N   UNL     1       3.365   2.444  -0.084  0.00  0.00    -0.271 N 
ATOM     17  C   UNL     1       4.770   2.022  -0.025  0.00  0.00    +0.129 C 
ATOM     18  C   UNL     1       5.586   3.232  -0.531  0.00  0.00    +0.128 C 
ATOM     19  C   UNL     1       4.637   4.409  -0.206  0.00  0.00    +0.112 C 
ATOM     20  C   UNL     1       3.262   3.780  -0.185  0.00  0.00    +0.221 C 
ATOM     21  O   UNL     1       2.217   4.393  -0.249  0.00  0.00    -0.275 OA
BRANCH  18  22
ATOM     22  C   UNL     1       6.884   3.360   0.224  0.00  0.00    +0.361 C 
ATOM     23  O   UNL     1       7.905   3.667  -0.367  0.00  0.00    -0.246 OA
ATOM     24  O   UNL     1       6.913   3.157   1.426  0.00  0.00    -0.246 OA
ENDBRANCH  18  22
ENDBRANCH   3  16
TORSDOF 4
