REMARK  Name = ZINC12444773
REMARK  7 active torsions:
REMARK  status: ('A' for Active; 'I' for Inactive)
REMARK    1  A    between atoms: C_1  and  C_2
REMARK    2  A    between atoms: C_9  and  N_28
REMARK    3  A    between atoms: C_10  and  C_26
REMARK    4  A    between atoms: C_11  and  C_13
REMARK    5  A    between atoms: C_15  and  C_18
REMARK    6  A    between atoms: C_18  and  S_19
REMARK    7  A    between atoms: S_19  and  C_20
REMARK                            x       y       z     vdW  Elec       q    Type
REMARK                         _______ _______ _______ _____ _____    ______ ____
ROOT
ATOM      1  C   UNL     1       0.469  -2.254  -3.051  0.00  0.00    +0.065 C 
ATOM      2  C   UNL     1       1.857  -2.545  -2.541  0.00  0.00    +0.041 A 
ATOM      3  C   UNL     1       2.259  -2.485  -1.262  0.00  0.00    +0.049 A 
ATOM      4  C   UNL     1       3.627  -2.832  -1.216  0.00  0.00    +0.245 A 
ATOM      5  N   UNL     1       4.019  -3.087  -2.430  0.00  0.00    -0.135 NA
ATOM      6  N   UNL     1       2.922  -2.914  -3.289  0.00  0.00    -0.278 N 
ATOM      7  H   UNL     1       2.927  -3.041  -4.281  0.00  0.00    +0.189 HD
ATOM      8  O   UNL     1       4.324  -2.865  -0.048  0.00  0.00    -0.421 OA
ATOM      9  C   UNL     1       3.616  -2.823   1.098  0.00  0.00    +0.201 C 
ATOM     10  C   UNL     1       2.310  -2.494   1.179  0.00  0.00    +0.099 C 
ATOM     11  C   UNL     1       1.479  -2.126  -0.024  0.00  0.00    +0.108 C 
ENDROOT
BRANCH  11  12
ATOM     12  C   UNL     1       1.196  -0.645  -0.013  0.00  0.00    +0.003 A 
ATOM     13  C   UNL     1       0.002  -0.004   0.002  0.00  0.00    +0.016 A 
ATOM     14  C   UNL     1      -0.017   1.378   0.010  0.00  0.00    -0.030 A 
ATOM     15  C   UNL     1       1.160   2.051   0.002  0.00  0.00    +0.050 A 
ATOM     16  S   UNL     1       2.348   0.719  -0.017  0.00  0.00    -0.100 S 
BRANCH  14  17
ATOM     17  C   UNL     1      -1.325   2.125   0.020  0.00  0.00    +0.112 C 
BRANCH  17  18
ATOM     18  S   UNL     1      -1.842   2.416   1.734  0.00  0.00    -0.092 S 
BRANCH  18  19
ATOM     19  C   UNL     1      -3.366   3.286   1.578  0.00  0.00    +0.160 A 
ATOM     20  N   UNL     1      -4.010   3.656   0.488  0.00  0.00    -0.133 NA
ATOM     21  N   UNL     1      -5.202   4.335   0.594  0.00  0.00    -0.125 NA
ATOM     22  C   UNL     1      -5.695   4.613   1.784  0.00  0.00    +0.180 A 
ATOM     23  S   UNL     1      -4.457   3.897   2.854  0.00  0.00    -0.025 S 
ATOM     24  N   UNL     1      -6.868   5.281   2.118  0.00  0.00    -0.336 N 
ATOM     25  H   UNL     1      -7.451   5.615   1.419  0.00  0.00    +0.144 HD
ATOM     26  H   UNL     1      -7.103   5.412   3.050  0.00  0.00    +0.144 HD
ENDBRANCH  18  19
ENDBRANCH  17  18
ENDBRANCH  14  17
ENDBRANCH  11  12
BRANCH   9  27
ATOM     27  N   UNL     1       4.269  -3.135   2.264  0.00  0.00    -0.328 N 
ATOM     28  H   UNL     1       5.209  -3.376   2.244  0.00  0.00    +0.145 HD
ATOM     29  H   UNL     1       3.792  -3.115   3.108  0.00  0.00    +0.145 HD
ENDBRANCH   9  27
BRANCH  10  30
ATOM     30  C   UNL     1       1.684  -2.495   2.467  0.00  0.00    +0.101 C 
ATOM     31  N   UNL     1       1.188  -2.497   3.489  0.00  0.00    -0.191 NA
ENDBRANCH  10  30
TORSDOF 6
