REMARK  Name = ZINC09292257
REMARK  10 active torsions:
REMARK  status: ('A' for Active; 'I' for Inactive)
REMARK    1  A    between atoms: C_1  and  C_2
REMARK    2  A    between atoms: C_2  and  O_3
REMARK    3  A    between atoms: O_3  and  C_4
REMARK    4  A    between atoms: C_7  and  C_12
REMARK    5  A    between atoms: C_9  and  O_10
REMARK    6  A    between atoms: O_10  and  C_11
REMARK    7  A    between atoms: C_19  and  N_33
REMARK    8  A    between atoms: C_20  and  C_31
REMARK    9  A    between atoms: C_21  and  C_23
REMARK   10  A    between atoms: C_28  and  O_29
REMARK                            x       y       z     vdW  Elec       q    Type
REMARK                         _______ _______ _______ _____ _____    ______ ____
ROOT
ATOM      1  C   UNL     1      -1.918  -6.552   0.135  0.00  0.00    +0.074 A 
ATOM      2  C   UNL     1      -1.303  -7.216  -0.873  0.00  0.00    +0.054 A 
ATOM      3  C   UNL     1      -1.627  -8.582  -0.757  0.00  0.00    +0.245 A 
ATOM      4  N   UNL     1      -2.403  -8.733   0.278  0.00  0.00    -0.135 NA
ATOM      5  N   UNL     1      -2.605  -7.477   0.869  0.00  0.00    -0.273 N 
ATOM      6  H   UNL     1      -3.140  -7.296   1.658  0.00  0.00    +0.189 HD
ATOM      7  O   UNL     1      -1.157  -9.511  -1.634  0.00  0.00    -0.421 OA
ATOM      8  C   UNL     1      -0.595  -9.061  -2.774  0.00  0.00    +0.201 C 
ATOM      9  C   UNL     1      -0.233  -7.780  -2.994  0.00  0.00    +0.098 C 
ATOM     10  C   UNL     1      -0.414  -6.688  -1.970  0.00  0.00    +0.105 C 
ENDROOT
BRANCH  10  11
ATOM     11  C   UNL     1       0.925  -6.301  -1.397  0.00  0.00    +0.008 A 
ATOM     12  C   UNL     1       1.651  -7.215  -0.657  0.00  0.00    +0.028 A 
ATOM     13  C   UNL     1       2.880  -6.860  -0.131  0.00  0.00    +0.041 A 
ATOM     14  C   UNL     1       3.385  -5.589  -0.345  0.00  0.00    +0.023 A 
ATOM     15  C   UNL     1       2.663  -4.673  -1.085  0.00  0.00    +0.047 A 
ATOM     16  C   UNL     1       1.433  -5.029  -1.618  0.00  0.00    +0.121 A 
ATOM     17 CL   UNL     1       3.789  -8.009   0.799  0.00  0.00    -0.084 Cl
BRANCH  16  18
ATOM     18  O   UNL     1       0.723  -4.131  -2.351  0.00  0.00    -0.506 OA
ATOM     19  H   UNL     1       0.120  -3.585  -1.829  0.00  0.00    +0.292 HD
ENDBRANCH  16  18
ENDBRANCH  10  11
BRANCH   1  23
ATOM     20  C   UNL     1      -1.731  -2.368   0.878  0.00  0.00    +0.162 A 
ATOM     21  C   UNL     1      -1.991  -2.834  -0.402  0.00  0.00    +0.050 A 
ATOM     22  C   UNL     1      -2.052  -4.190  -0.646  0.00  0.00    +0.014 A 
ATOM     23  C   UNL     1      -1.852  -5.097   0.395  0.00  0.00    +0.004 A 
ATOM     24  C   UNL     1      -1.590  -4.628   1.683  0.00  0.00    +0.059 A 
ATOM     25  C   UNL     1      -1.525  -3.268   1.921  0.00  0.00    +0.162 A 
BRANCH  25  26
ATOM     26  O   UNL     1      -1.265  -2.808   3.174  0.00  0.00    -0.491 OA
ATOM     27  C   UNL     1      -1.064  -3.787   4.196  0.00  0.00    +0.277 C 
ENDBRANCH  25  26
BRANCH  20  28
ATOM     28  O   UNL     1      -1.672  -1.030   1.115  0.00  0.00    -0.489 OA
BRANCH  28  30
ATOM     29  C   UNL     1      -1.787   1.292   0.456  0.00  0.00    +0.048 C 
ATOM     30  C   UNL     1      -1.893  -0.164  -0.000  0.00  0.00    +0.226 C 
ENDBRANCH  28  30
ENDBRANCH  20  28
ENDBRANCH   1  23
BRANCH   8  31
ATOM     31  N   UNL     1      -0.377  -9.969  -3.780  0.00  0.00    -0.328 N 
ATOM     32  H   UNL     1      -0.625 -10.899  -3.657  0.00  0.00    +0.145 HD
ATOM     33  H   UNL     1       0.025  -9.681  -4.614  0.00  0.00    +0.145 HD
ENDBRANCH   8  31
BRANCH   9  34
ATOM     34  C   UNL     1       0.350  -7.442  -4.258  0.00  0.00    +0.101 C 
ATOM     35  N   UNL     1       0.813  -7.174  -5.260  0.00  0.00    -0.191 NA
ENDBRANCH   9  34
TORSDOF 8
