REMARK  Name = ZINC64479978
REMARK  4 active torsions:
REMARK  status: ('A' for Active; 'I' for Inactive)
REMARK    1  A    between atoms: C_1  and  C_2
REMARK    2  A    between atoms: C_2  and  N_3
REMARK    3  A    between atoms: N_31  and  C_32
REMARK    4  A    between atoms: C_32  and  C_33
REMARK                            x       y       z     vdW  Elec       q    Type
REMARK                         _______ _______ _______ _____ _____    ______ ____
ROOT
ATOM      1  N   UNL     1       0.667  -0.476  -1.216  0.00  0.00    -0.299 N 
ATOM      2  C   UNL     1       0.835  -1.797  -1.423  0.00  0.00    +0.303 C 
ATOM      3  O   UNL     1       0.503  -2.594  -0.567  0.00  0.00    -0.253 OA
ATOM      4  N   UNL     1       1.372  -2.234  -2.579  0.00  0.00    -0.265 N 
ATOM      5  C   UNL     1       1.912  -1.266  -3.541  0.00  0.00    +0.115 C 
ATOM      6  C   UNL     1       1.216  -1.451  -4.902  0.00  0.00    +0.052 C 
ATOM      7  C   UNL     1       1.193  -2.933  -5.182  0.00  0.00    -0.034 C 
ATOM      8  C   UNL     1       1.593  -3.636  -6.234  0.00  0.00    -0.001 A 
ATOM      9  C   UNL     1       2.100  -3.224  -7.553  0.00  0.00    +0.010 A 
ATOM     10  C   UNL     1       2.444  -4.228  -8.403  0.00  0.00    +0.001 A 
ATOM     11  C   UNL     1       2.336  -5.583  -8.077  0.00  0.00    +0.002 A 
ATOM     12  C   UNL     1       1.872  -6.052  -6.891  0.00  0.00    +0.026 A 
ATOM     13  C   UNL     1       1.471  -5.092  -5.917  0.00  0.00    +0.043 A 
ATOM     14  N   UNL     1       0.976  -5.258  -4.726  0.00  0.00    -0.375 N 
ATOM     15  C   UNL     1       0.665  -3.943  -4.167  0.00  0.00    +0.144 C 
ATOM     16  C   UNL     1       1.414  -3.672  -2.860  0.00  0.00    +0.167 C 
ATOM     17  C   UNL     1       2.822  -4.170  -2.922  0.00  0.00    +0.009 A 
ATOM     18  C   UNL     1       3.874  -3.841  -3.750  0.00  0.00    +0.008 A 
ATOM     19  C   UNL     1       5.077  -4.505  -3.538  0.00  0.00    +0.000 A 
ATOM     20  C   UNL     1       5.208  -5.451  -2.541  0.00  0.00    +0.002 A 
ATOM     21  C   UNL     1       4.156  -5.787  -1.704  0.00  0.00    +0.024 A 
ATOM     22  C   UNL     1       2.943  -5.127  -1.907  0.00  0.00    +0.051 A 
ATOM     23  N   UNL     1       1.742  -5.263  -1.227  0.00  0.00    -0.192 N 
ATOM     24  C   UNL     1       0.788  -4.445  -1.721  0.00  0.00    +0.258 C 
ATOM     25  O   UNL     1      -0.354  -4.349  -1.326  0.00  0.00    -0.272 OA
ATOM     26  C   UNL     1       1.551  -6.110  -0.197  0.00  0.00    +0.313 C 
ATOM     27  O   UNL     1       2.486  -6.745   0.250  0.00  0.00    -0.252 OA
ATOM     28  N   UNL     1       0.322  -6.253   0.338  0.00  0.00    -0.299 N 
ATOM     29  H   UNL     1       0.999   0.163  -1.866  0.00  0.00    +0.150 HD
ATOM     30  H   UNL     1      -0.409  -5.694   0.031  0.00  0.00    +0.150 HD
ATOM     31  H   UNL     1       0.835  -6.110  -4.284  0.00  0.00    +0.160 HD
ENDROOT
BRANCH   1  33
ATOM     32  C   UNL     1      -0.072   1.524  -0.018  0.00  0.00    +0.024 C 
ATOM     33  C   UNL     1      -0.015  -0.005  -0.008  0.00  0.00    +0.102 C 
ENDBRANCH   1  33
BRANCH  28  34
ATOM     34  C   UNL     1       0.090  -7.253   1.383  0.00  0.00    +0.102 C 
ATOM     35  C   UNL     1      -1.377  -7.210   1.814  0.00  0.00    +0.024 C 
ENDBRANCH  28  34
TORSDOF 2
