REMARK  Name = ZINC22057736
REMARK  4 active torsions:
REMARK  status: ('A' for Active; 'I' for Inactive)
REMARK    1  A    between atoms: C_6  and  C_7
REMARK    2  A    between atoms: N_14  and  C_17
REMARK    3  A    between atoms: C_17  and  C_18
REMARK    4  A    between atoms: N_20  and  C_21
REMARK                            x       y       z     vdW  Elec       q    Type
REMARK                         _______ _______ _______ _____ _____    ______ ____
ROOT
ATOM      1  C   UNL     1       3.072  -5.541  -1.826  0.00  0.00    +0.004 A 
ATOM      2  C   UNL     1       2.841  -6.833  -1.488  0.00  0.00    +0.056 A 
ATOM      3  S   UNL     1       2.766  -6.787   0.292  0.00  0.00    -0.076 S 
ATOM      4  C   UNL     1       3.044  -5.052   0.539  0.00  0.00    +0.116 A 
ATOM      5  C   UNL     1       3.189  -4.549  -0.764  0.00  0.00    +0.080 A 
ATOM      6  C   UNL     1       3.428  -3.141  -0.862  0.00  0.00    +0.263 A 
ATOM      7  O   UNL     1       3.567  -2.611  -1.952  0.00  0.00    -0.267 OA
ATOM      8  N   UNL     1       3.497  -2.411   0.266  0.00  0.00    -0.290 N 
ATOM      9  C   UNL     1       3.350  -2.985   1.488  0.00  0.00    +0.203 A 
ATOM     10  N   UNL     1       3.125  -4.266   1.609  0.00  0.00    -0.230 NA
ENDROOT
BRANCH   1  16
ATOM     11  C   UNL     1       2.466  -4.073  -3.748  0.00  0.00    +0.010 A 
ATOM     12  C   UNL     1       2.598  -3.704  -5.071  0.00  0.00    +0.020 A 
ATOM     13  C   UNL     1       3.453  -4.404  -5.905  0.00  0.00    +0.041 A 
ATOM     14  C   UNL     1       4.185  -5.472  -5.416  0.00  0.00    +0.020 A 
ATOM     15  C   UNL     1       4.065  -5.846  -4.093  0.00  0.00    +0.010 A 
ATOM     16  C   UNL     1       3.205  -5.145  -3.248  0.00  0.00    -0.016 A 
ATOM     17 CL   UNL     1       3.609  -3.939  -7.570  0.00  0.00    -0.084 Cl
ENDBRANCH   1  16
BRANCH   8  18
ATOM     18  C   UNL     1       3.741  -0.969   0.175  0.00  0.00    +0.222 C 
BRANCH  18  19
ATOM     19  C   UNL     1       2.425  -0.242   0.078  0.00  0.00    +0.237 C 
ATOM     20  O   UNL     1       1.385  -0.866   0.085  0.00  0.00    -0.274 OA
ATOM     21  N   UNL     1       2.403   1.102  -0.015  0.00  0.00    -0.283 N 
ATOM     22  H   UNL     1       3.345   1.662  -0.113  0.00  0.00    +0.155 HD
BRANCH  21  23
ATOM     23  C   UNL     1       1.181   1.787   0.011  0.00  0.00    +0.056 A 
ATOM     24  C   UNL     1       0.077   1.213   0.627  0.00  0.00    +0.074 A 
ATOM     25  C   UNL     1      -1.132   1.887   0.648  0.00  0.00    +0.168 A 
ATOM     26  C   UNL     1      -1.236   3.146   0.061  0.00  0.00    +0.168 A 
ATOM     27  C   UNL     1      -0.133   3.716  -0.553  0.00  0.00    +0.071 A 
ATOM     28  C   UNL     1       1.073   3.040  -0.578  0.00  0.00    +0.066 A 
ATOM     29 CL   UNL     1       2.454   3.757  -1.349  0.00  0.00    -0.082 Cl
ATOM     30  O   UNL     1      -2.516   3.597   0.221  0.00  0.00    -0.453 OA
ATOM     31  C   UNL     1      -3.081   2.788   1.269  0.00  0.00    +0.466 C 
ATOM     32  O   UNL     1      -2.344   1.554   1.183  0.00  0.00    -0.453 OA
ENDBRANCH  21  23
ENDBRANCH  18  19
ENDBRANCH   8  18
TORSDOF 4
