REMARK  Name = ZINC44737405
REMARK  6 active torsions:
REMARK  status: ('A' for Active; 'I' for Inactive)
REMARK    1  A    between atoms: C_1  and  C_2
REMARK    2  A    between atoms: C_9  and  C_11
REMARK    3  A    between atoms: C_11  and  C_13
REMARK    4  A    between atoms: C_11  and  N_14
REMARK    5  A    between atoms: C_15  and  C_17
REMARK    6  A    between atoms: C_28  and  C_30
REMARK                            x       y       z     vdW  Elec       q    Type
REMARK                         _______ _______ _______ _____ _____    ______ ____
ROOT
ATOM      1  C   UNL     1       1.860  -8.519   1.547  0.00  0.00    +0.100 C 
ATOM      2  C   UNL     1       2.826  -7.955   0.481  0.00  0.00    +0.121 C 
ATOM      3  N   UNL     1       4.179  -8.274   0.995  0.00  0.00    -0.296 N 
ATOM      4  C   UNL     1       4.042  -9.630   1.577  0.00  0.00    +0.115 C 
ATOM      5  C   UNL     1       2.660  -9.621   2.261  0.00  0.00    -0.004 C 
ATOM      6  C   UNL     1       1.974 -10.972   2.085  0.00  0.00    -0.010 C 
ATOM      7  C   UNL     1       2.756 -12.041   2.853  0.00  0.00    -0.082 C 
ATOM      8  N   UNL     1       2.814 -11.681   4.275  0.00  0.00    +0.379 N 
ATOM      9  C   UNL     1       3.557 -10.427   4.444  0.00  0.00    -0.082 C 
ATOM     10  C   UNL     1       2.809  -9.289   3.743  0.00  0.00    -0.010 C 
ATOM     11  C   UNL     1       5.284  -7.504   0.945  0.00  0.00    +0.249 C 
ATOM     12  O   UNL     1       6.349  -7.945   1.330  0.00  0.00    -0.270 OA
ATOM     13  H   UNL     1       1.876 -11.566   4.629  0.00  0.00    -0.086 HD
ATOM     14  H   UNL     1       3.276 -12.417   4.788  0.00  0.00    -0.086 HD
ENDROOT
BRANCH  11  15
ATOM     15  C   UNL     1       5.200  -6.125   0.423  0.00  0.00    +0.073 A 
ATOM     16  C   UNL     1       4.325  -5.822  -0.622  0.00  0.00    +0.036 A 
ATOM     17  C   UNL     1       4.251  -4.531  -1.104  0.00  0.00    +0.042 A 
ATOM     18  C   UNL     1       5.043  -3.536  -0.555  0.00  0.00    +0.023 A 
ATOM     19  C   UNL     1       5.913  -3.827   0.479  0.00  0.00    +0.040 A 
ATOM     20  C   UNL     1       5.993  -5.115   0.977  0.00  0.00    +0.136 A 
ATOM     21  F   UNL     1       6.839  -5.398   1.992  0.00  0.00    -0.205 F 
ATOM     22 CL   UNL     1       3.163  -4.154  -2.403  0.00  0.00    -0.084 Cl
ENDBRANCH  11  15
BRANCH   1  24
ATOM     23  N   UNL     1       0.280  -7.505   3.157  0.00  0.00    -0.305 N 
ATOM     24  C   UNL     1       1.467  -7.440   2.522  0.00  0.00    +0.219 C 
ATOM     25  O   UNL     1       2.218  -6.512   2.736  0.00  0.00    -0.275 OA
ATOM     26  H   UNL     1      -0.321  -8.247   2.987  0.00  0.00    +0.149 HD
BRANCH  23  27
ATOM     27  C   UNL     1      -0.103  -6.456   4.106  0.00  0.00    +0.136 C 
ATOM     28  C   UNL     1       0.486  -6.773   5.482  0.00  0.00    +0.036 C 
BRANCH  27  37
ATOM     29  C   UNL     1      -7.322  -4.869   4.965  0.00  0.00    +0.044 C 
ATOM     30  C   UNL     1      -6.040  -5.605   4.675  0.00  0.00    -0.048 A 
ATOM     31  C   UNL     1      -6.084  -6.933   4.274  0.00  0.00    +0.005 A 
ATOM     32  C   UNL     1      -4.933  -7.619   4.007  0.00  0.00    +0.030 A 
ATOM     33  C   UNL     1      -3.696  -6.980   4.135  0.00  0.00    +0.089 A 
ATOM     34  C   UNL     1      -3.652  -5.635   4.540  0.00  0.00    +0.067 A 
ATOM     35  C   UNL     1      -4.832  -4.954   4.803  0.00  0.00    +0.031 A 
ATOM     36  N   UNL     1      -2.315  -5.292   4.574  0.00  0.00    -0.340 N 
ATOM     37  C   UNL     1      -1.605  -6.391   4.204  0.00  0.00    +0.128 A 
ATOM     38  N   UNL     1      -2.412  -7.379   3.947  0.00  0.00    -0.231 NA
ATOM     39  H   UNL     1      -1.950  -4.426   4.817  0.00  0.00    +0.167 HD
ENDBRANCH  27  37
ENDBRANCH  23  27
ENDBRANCH   1  24
TORSDOF 4
