REMARK  Name = ZINC12498278
REMARK  11 active torsions:
REMARK  status: ('A' for Active; 'I' for Inactive)
REMARK    1  A    between atoms: C_1  and  C_2
REMARK    2  A    between atoms: C_2  and  C_4
REMARK    3  A    between atoms: C_8  and  N_10
REMARK    4  A    between atoms: C_15  and  C_32
REMARK    5  A    between atoms: C_17  and  C_22
REMARK    6  A    between atoms: C_17  and  C_28
REMARK    7  A    between atoms: C_28  and  O_30
REMARK    8  A    between atoms: O_30  and  C_31
REMARK    9  A    between atoms: C_35  and  N_38
REMARK   10  A    between atoms: N_38  and  C_39
REMARK   11  A    between atoms: N_38  and  C_40
REMARK                            x       y       z     vdW  Elec       q    Type
REMARK                         _______ _______ _______ _____ _____    ______ ____
ROOT
ATOM      1  N   UNL     1      -3.175  -0.165  -1.627  0.00  0.00    -0.210 N 
ATOM      2  C   UNL     1      -2.285  -0.519  -2.611  0.00  0.00    +0.229 C 
ATOM      3  O   UNL     1      -2.535  -0.998  -3.696  0.00  0.00    -0.275 OA
ATOM      4  C   UNL     1      -0.971  -0.192  -2.063  0.00  0.00    +0.078 C 
ATOM      5  C   UNL     1       0.393  -0.741  -2.270  0.00  0.00    -0.026 C 
ATOM      6  C   UNL     1       0.068  -0.010   0.015  0.00  0.00    +0.070 C 
ATOM      7  C   UNL     1      -1.221  -0.561  -0.547  0.00  0.00    +0.090 C 
ATOM      8  C   UNL     1      -2.565   0.046  -0.418  0.00  0.00    +0.229 C 
ATOM      9  O   UNL     1      -3.027   0.610   0.550  0.00  0.00    -0.275 OA
ATOM     10  N   UNL     1       1.076  -0.520  -0.963  0.00  0.00    +0.398 N 
ATOM     11  H   UNL     1       1.829   0.170  -1.077  0.00  0.00    -0.083 HD
ATOM     12  H   UNL     1       1.472  -1.405  -0.624  0.00  0.00    -0.083 HD
ENDROOT
BRANCH   1  17
ATOM     13  C   UNL     1      -6.466  -0.136  -3.296  0.00  0.00    +0.019 A 
ATOM     14  C   UNL     1      -7.293   0.229  -2.228  0.00  0.00    +0.011 A 
ATOM     15  C   UNL     1      -6.748   0.457  -0.982  0.00  0.00    +0.003 A 
ATOM     16  C   UNL     1      -5.386   0.321  -0.781  0.00  0.00    +0.024 A 
ATOM     17  C   UNL     1      -4.555  -0.035  -1.836  0.00  0.00    +0.045 A 
ATOM     18  C   UNL     1      -5.090  -0.267  -3.093  0.00  0.00    +0.035 A 
BRANCH  13  20
ATOM     19  C   UNL     1      -8.528  -0.239  -4.843  0.00  0.00    +0.091 C 
ATOM     20  C   UNL     1      -7.044  -0.381  -4.627  0.00  0.00    +0.160 C 
ATOM     21  O   UNL     1      -6.325  -0.698  -5.551  0.00  0.00    -0.292 OA
ENDBRANCH  13  20
ENDBRANCH   1  17
BRANCH   6  22
ATOM     22  C   UNL     1       0.046   1.497   0.026  0.00  0.00    -0.047 A 
ATOM     23  C   UNL     1       0.663   2.205  -0.989  0.00  0.00    +0.003 A 
ATOM     24  C   UNL     1       0.639   3.587  -0.981  0.00  0.00    +0.000 A 
ATOM     25  C   UNL     1       0.007   4.261   0.046  0.00  0.00    +0.000 A 
ATOM     26  C   UNL     1      -0.606   3.554   1.064  0.00  0.00    +0.000 A 
ATOM     27  C   UNL     1      -0.586   2.171   1.054  0.00  0.00    +0.003 A 
ENDBRANCH   6  22
BRANCH   5  28
ATOM     28  C   UNL     1       0.326  -2.212  -2.591  0.00  0.00    -0.060 A 
ATOM     29  C   UNL     1       0.166  -3.133  -1.572  0.00  0.00    +0.004 A 
ATOM     30  C   UNL     1       0.098  -4.481  -1.863  0.00  0.00    +0.023 A 
ATOM     31  C   UNL     1       0.202  -4.912  -3.179  0.00  0.00    +0.029 A 
ATOM     32  C   UNL     1       0.369  -3.985  -4.199  0.00  0.00    +0.023 A 
ATOM     33  C   UNL     1       0.430  -2.637  -3.902  0.00  0.00    +0.004 A 
BRANCH  31  34
ATOM     34  N   UNL     1       0.139  -6.276  -3.477  0.00  0.00    -0.336 N 
ATOM     35  C   UNL     1       0.381  -6.739  -4.845  0.00  0.00    +0.129 C 
ATOM     36  C   UNL     1      -0.169  -7.242  -2.420  0.00  0.00    +0.129 C 
ENDBRANCH  31  34
ENDBRANCH   5  28
BRANCH   6  37
ATOM     37  C   UNL     1       0.324  -0.550   1.398  0.00  0.00    +0.301 C 
ATOM     38  O   UNL     1      -0.604  -0.880   2.099  0.00  0.00    -0.252 OA
BRANCH  37  39
ATOM     39  O   UNL     1       1.582  -0.665   1.852  0.00  0.00    -0.469 OA
ATOM     40  C   UNL     1       1.753  -1.192   3.193  0.00  0.00    +0.280 C 
ENDBRANCH  37  39
ENDBRANCH   6  37
TORSDOF 7
