REMARK  Name = ZINC63681134
REMARK  8 active torsions:
REMARK  status: ('A' for Active; 'I' for Inactive)
REMARK    1  A    between atoms: C_1  and  C_2
REMARK    2  A    between atoms: C_2  and  O_3
REMARK    3  A    between atoms: O_3  and  C_4
REMARK    4  A    between atoms: C_7  and  N_10
REMARK    5  A    between atoms: C_12  and  N_17
REMARK    6  A    between atoms: N_20  and  C_21
REMARK    7  A    between atoms: C_21  and  C_22
REMARK    8  A    between atoms: C_22  and  C_23
REMARK                            x       y       z     vdW  Elec       q    Type
REMARK                         _______ _______ _______ _____ _____    ______ ____
ROOT
ATOM      1  N   UNL     1       3.363  -8.156  -2.113  0.00  0.00    -0.295 N 
ATOM      2  C   UNL     1       3.994  -9.346  -2.167  0.00  0.00    +0.300 C 
ATOM      3  O   UNL     1       3.418 -10.320  -2.611  0.00  0.00    -0.253 OA
ATOM      4  N   UNL     1       5.264  -9.456  -1.729  0.00  0.00    -0.299 N 
ATOM      5  H   UNL     1       3.823  -7.379  -1.758  0.00  0.00    +0.151 HD
ATOM      6  H   UNL     1       5.724  -8.679  -1.374  0.00  0.00    +0.150 HD
ENDROOT
BRANCH   1   9
ATOM      7  N   UNL     1       1.102  -5.938  -1.834  0.00  0.00    -0.270 N 
ATOM      8  C   UNL     1       1.671  -6.586  -3.022  0.00  0.00    +0.136 C 
ATOM      9  C   UNL     1       1.983  -8.036  -2.589  0.00  0.00    +0.101 C 
ATOM     10  C   UNL     1       0.978  -8.244  -1.433  0.00  0.00    +0.120 C 
ATOM     11  C   UNL     1       0.704  -6.845  -0.926  0.00  0.00    +0.222 C 
ATOM     12  O   UNL     1       0.198  -6.581   0.144  0.00  0.00    -0.275 OA
BRANCH   7  16
ATOM     13  C   UNL     1       0.777  -1.811  -1.336  0.00  0.00    +0.121 A 
ATOM     14  C   UNL     1       0.230  -2.668  -0.393  0.00  0.00    +0.047 A 
ATOM     15  C   UNL     1       0.337  -4.035  -0.557  0.00  0.00    +0.027 A 
ATOM     16  C   UNL     1       0.992  -4.551  -1.667  0.00  0.00    +0.037 A 
ATOM     17  C   UNL     1       1.540  -3.692  -2.611  0.00  0.00    +0.027 A 
ATOM     18  C   UNL     1       1.427  -2.326  -2.448  0.00  0.00    +0.047 A 
BRANCH  13  19
ATOM     19  O   UNL     1       0.671  -0.465  -1.174  0.00  0.00    -0.492 OA
BRANCH  19  21
ATOM     20  C   UNL     1      -0.030   1.526   0.004  0.00  0.00    +0.048 C 
ATOM     21  C   UNL     1      -0.011  -0.004  -0.005  0.00  0.00    +0.225 C 
ENDBRANCH  19  21
ENDBRANCH  13  19
ENDBRANCH   7  16
ENDBRANCH   1   9
BRANCH   4  22
ATOM     22  C   UNL     1       5.949 -10.749  -1.788  0.00  0.00    +0.110 C 
BRANCH  22  23
ATOM     23  C   UNL     1       7.367 -10.600  -1.233  0.00  0.00    +0.052 C 
BRANCH  23  24
ATOM     24  C   UNL     1       8.073 -11.931  -1.294  0.00  0.00    -0.040 C 
ATOM     25  C   UNL     1       8.896 -12.371  -2.273  0.00  0.00    -0.001 A 
ATOM     26  C   UNL     1       9.362 -11.767  -3.526  0.00  0.00    +0.010 A 
ATOM     27  C   UNL     1      10.202 -12.469  -4.321  0.00  0.00    +0.001 A 
ATOM     28  C   UNL     1      10.637 -13.756  -3.977  0.00  0.00    +0.002 A 
ATOM     29  C   UNL     1      10.253 -14.377  -2.842  0.00  0.00    +0.026 A 
ATOM     30  C   UNL     1       9.371 -13.731  -1.933  0.00  0.00    +0.043 A 
ATOM     31  N   UNL     1       8.861 -14.117  -0.788  0.00  0.00    -0.380 N 
ATOM     32  C   UNL     1       8.009 -13.041  -0.269  0.00  0.00    +0.144 C 
ATOM     33  H   UNL     1       9.023 -14.970  -0.355  0.00  0.00    +0.160 HD
ENDBRANCH  23  24
ENDBRANCH  22  23
ENDBRANCH   4  22
TORSDOF 7
