REMARK  Name = ZINC19017803
REMARK  5 active torsions:
REMARK  status: ('A' for Active; 'I' for Inactive)
REMARK    1  A    between atoms: C_1  and  C_2
REMARK    2  A    between atoms: C_12  and  C_14
REMARK    3  A    between atoms: C_14  and  C_16
REMARK    4  A    between atoms: C_14  and  O_29
REMARK    5  A    between atoms: C_16  and  N_17
REMARK                            x       y       z     vdW  Elec       q    Type
REMARK                         _______ _______ _______ _____ _____    ______ ____
ROOT
ATOM      1  C   UNL     1       0.416   2.249  -6.030  0.00  0.00    +0.158 C 
ENDROOT
BRANCH   1  13
ATOM      2  C   UNL     1       0.328  -1.497   0.966  0.00  0.00    +0.109 C 
ATOM      3  C   UNL     1       0.261  -0.602  -0.245  0.00  0.00    +0.217 C 
ATOM      4  O   UNL     1       0.198   0.601  -0.107  0.00  0.00    -0.276 OA
ATOM      5  N   UNL     1       0.270  -1.139  -1.481  0.00  0.00    -0.271 N 
ATOM      6  C   UNL     1       0.235  -2.597  -1.662  0.00  0.00    +0.114 C 
ATOM      7  C   UNL     1       1.272  -2.961  -2.732  0.00  0.00    +0.024 C 
ATOM      8  C   UNL     1       0.865  -2.314  -4.056  0.00  0.00    +0.038 C 
ATOM      9  C   UNL     1       0.598  -0.844  -3.865  0.00  0.00    -0.026 A 
ATOM     10  C   UNL     1       0.307  -0.317  -2.615  0.00  0.00    +0.039 A 
ATOM     11  C   UNL     1       0.056   1.043  -2.474  0.00  0.00    +0.024 A 
ATOM     12  C   UNL     1       0.091   1.871  -3.578  0.00  0.00    +0.008 A 
ATOM     13  C   UNL     1       0.377   1.346  -4.825  0.00  0.00    -0.018 A 
ATOM     14  C   UNL     1       0.639  -0.007  -4.967  0.00  0.00    +0.011 A 
ENDBRANCH   1  13
BRANCH   1  15
ATOM     15  O   UNL     1      -0.571   3.272  -5.891  0.00  0.00    -0.386 OA
ATOM     16  H   UNL     1      -0.451   3.832  -5.112  0.00  0.00    +0.210 HD
ENDBRANCH   1  15
BRANCH   1  17
ATOM     17  C   UNL     1       1.802   2.889  -6.143  0.00  0.00    +0.120 C 
BRANCH  17  18
ATOM     18  N   UNL     1       1.850   3.745  -7.336  0.00  0.00    -0.297 NA
ATOM     19  C   UNL     1       2.936   4.729  -7.234  0.00  0.00    +0.103 C 
ATOM     20  C   UNL     1       2.841   5.713  -8.404  0.00  0.00    +0.122 C 
ATOM     21  N   UNL     1       2.811   4.947  -9.659  0.00  0.00    -0.314 N 
ATOM     22  C   UNL     1       1.838   3.851  -9.782  0.00  0.00    +0.122 C 
ATOM     23  C   UNL     1       1.973   2.940  -8.558  0.00  0.00    +0.103 C 
ATOM     24  C   UNL     1       3.681   5.249 -10.700  0.00  0.00    +0.099 A 
ATOM     25  C   UNL     1       3.566   4.575 -11.912  0.00  0.00    +0.042 A 
ATOM     26  C   UNL     1       4.438   4.886 -12.940  0.00  0.00    +0.005 A 
ATOM     27  C   UNL     1       5.399   5.864 -12.721  0.00  0.00    +0.018 A 
ATOM     28  C   UNL     1       5.455   6.494 -11.494  0.00  0.00    +0.084 A 
ATOM     29  N   UNL     1       4.607   6.180 -10.533  0.00  0.00    -0.350 N 
ATOM     30  H   UNL     1       4.666   6.641  -9.681  0.00  0.00    +0.166 HD
ENDBRANCH  17  18
ENDBRANCH   1  17
TORSDOF 4
