REMARK  Name = ZINC25039669
REMARK  10 active torsions:
REMARK  status: ('A' for Active; 'I' for Inactive)
REMARK    1  A    between atoms: C_1  and  C_2
REMARK    2  A    between atoms: C_2  and  C_4
REMARK    3  A    between atoms: C_2  and  S_18
REMARK    4  A    between atoms: N_10  and  C_11
REMARK    5  A    between atoms: S_18  and  C_19
REMARK    6  A    between atoms: C_22  and  C_24
REMARK    7  A    between atoms: C_27  and  C_30
REMARK    8  A    between atoms: C_30  and  C_31
REMARK    9  A    between atoms: C_30  and  C_32
REMARK   10  A    between atoms: C_30  and  C_33
REMARK                            x       y       z     vdW  Elec       q    Type
REMARK                         _______ _______ _______ _____ _____    ______ ____
ROOT
ATOM      1  C   UNL     1      -0.125  -2.593   1.177  0.00  0.00    +0.028 C 
ATOM      2  C   UNL     1      -0.756  -2.524  -0.215  0.00  0.00    +0.121 C 
ENDROOT
BRANCH   2   3
ATOM      3  C   UNL     1      -1.784  -3.617  -0.355  0.00  0.00    +0.149 A 
ATOM      4  N   UNL     1      -2.953  -3.504   0.251  0.00  0.00    -0.198 NA
ATOM      5  C   UNL     1      -3.865  -4.464   0.126  0.00  0.00    +0.217 A 
ATOM      6  N   UNL     1      -3.596  -5.543  -0.602  0.00  0.00    -0.181 NA
ATOM      7  C   UNL     1      -2.418  -5.655  -1.206  0.00  0.00    +0.224 A 
ATOM      8  N   UNL     1      -1.512  -4.688  -1.079  0.00  0.00    -0.198 NA
ATOM      9  N   UNL     1      -2.133  -6.775  -1.964  0.00  0.00    -0.284 N 
ATOM     10  N   UNL     1      -5.088  -4.343   0.754  0.00  0.00    -0.327 N 
ATOM     11  H   UNL     1      -1.196  -6.827  -2.536  0.00  0.00    +0.155 HD
ATOM     12  H   UNL     1      -5.841  -5.137   0.650  0.00  0.00    +0.145 HD
ATOM     13  H   UNL     1      -5.308  -3.451   1.360  0.00  0.00    +0.145 HD
BRANCH   9  14
ATOM     14  C   UNL     1      -3.037  -7.841  -2.002  0.00  0.00    +0.034 A 
ATOM     15  C   UNL     1      -3.797  -8.150  -0.882  0.00  0.00    +0.023 A 
ATOM     16  C   UNL     1      -4.693  -9.200  -0.926  0.00  0.00    +0.002 A 
ATOM     17  C   UNL     1      -4.825  -9.951  -2.080  0.00  0.00    +0.000 A 
ATOM     18  C   UNL     1      -4.065  -9.649  -3.195  0.00  0.00    +0.002 A 
ATOM     19  C   UNL     1      -3.172  -8.597  -3.160  0.00  0.00    +0.023 A 
ENDBRANCH   9  14
ENDBRANCH   2   3
BRANCH   2  20
ATOM     20  S   UNL     1      -1.552  -0.914  -0.438  0.00  0.00    -0.055 S 
BRANCH  20  21
ATOM     21  C   UNL     1      -0.140   0.137  -0.378  0.00  0.00    +0.278 A 
ATOM     22  N   UNL     1       1.106  -0.244  -0.213  0.00  0.00    -0.101 NA
ATOM     23  N   UNL     1       1.874   0.789  -0.220  0.00  0.00    -0.106 NA
ATOM     24  C   UNL     1       1.151   1.869  -0.390  0.00  0.00    +0.249 A 
ATOM     25  O   UNL     1      -0.139   1.479  -0.493  0.00  0.00    -0.411 OA
BRANCH  24  26
ATOM     26  C   UNL     1       1.653   3.256  -0.456  0.00  0.00    +0.039 A 
ATOM     27  C   UNL     1       0.764   4.316  -0.648  0.00  0.00    +0.013 A 
ATOM     28  C   UNL     1       1.240   5.609  -0.704  0.00  0.00    +0.005 A 
ATOM     29  C   UNL     1       2.596   5.857  -0.581  0.00  0.00    -0.042 A 
ATOM     30  C   UNL     1       3.483   4.812  -0.396  0.00  0.00    +0.005 A 
ATOM     31  C   UNL     1       3.020   3.514  -0.333  0.00  0.00    +0.013 A 
BRANCH  29  32
ATOM     32  C   UNL     1       3.109   7.273  -0.650  0.00  0.00    -0.013 C 
ATOM     33  C   UNL     1       4.087   7.404  -1.819  0.00  0.00    +0.015 C 
ATOM     34  C   UNL     1       1.934   8.231  -0.858  0.00  0.00    +0.015 C 
ATOM     35  C   UNL     1       3.825   7.620   0.657  0.00  0.00    +0.015 C 
ENDBRANCH  29  32
ENDBRANCH  24  26
ENDBRANCH  20  21
ENDBRANCH   2  20
TORSDOF 6
