REMARK  Name = ZINC35747213
REMARK  14 active torsions:
REMARK  status: ('A' for Active; 'I' for Inactive)
REMARK    1  A    between atoms: C_1  and  C_2
REMARK    2  A    between atoms: C_5  and  C_8
REMARK    3  A    between atoms: C_17  and  C_19
REMARK    4  A    between atoms: C_19  and  N_20
REMARK    5  A    between atoms: N_20  and  C_21
REMARK    6  A    between atoms: N_20  and  C_33
REMARK    7  A    between atoms: C_21  and  C_22
REMARK    8  A    between atoms: C_22  and  C_24
REMARK    9  A    between atoms: C_22  and  O_32
REMARK   10  A    between atoms: C_24  and  O_25
REMARK   11  A    between atoms: O_25  and  C_26
REMARK   12  A    between atoms: C_26  and  C_27
REMARK   13  A    between atoms: C_33  and  C_34
REMARK   14  A    between atoms: C_33  and  C_35
REMARK                            x       y       z     vdW  Elec       q    Type
REMARK                         _______ _______ _______ _____ _____    ______ ____
ROOT
ATOM      1  C   UNL     1       3.243  -5.123  -2.683  0.00  0.00    +0.004 A 
ATOM      2  C   UNL     1       2.813  -5.978  -3.643  0.00  0.00    +0.056 A 
ATOM      3  S   UNL     1       2.694  -7.536  -2.785  0.00  0.00    -0.076 S 
ATOM      4  C   UNL     1       3.218  -7.009  -1.174  0.00  0.00    +0.116 A 
ATOM      5  C   UNL     1       3.479  -5.639  -1.339  0.00  0.00    +0.080 A 
ATOM      6  C   UNL     1       3.932  -4.948  -0.171  0.00  0.00    +0.260 A 
ATOM      7  O   UNL     1       4.181  -3.756  -0.214  0.00  0.00    -0.267 OA
ATOM      8  N   UNL     1       4.080  -5.636   0.977  0.00  0.00    -0.312 N 
ATOM      9  H   UNL     1       4.387  -5.173   1.772  0.00  0.00    +0.170 HD
ATOM     10  C   UNL     1       3.808  -6.964   1.044  0.00  0.00    +0.094 A 
ATOM     11  N   UNL     1       3.383  -7.620  -0.003  0.00  0.00    -0.229 NA
ENDROOT
BRANCH   1  16
ATOM     12  C   UNL     1       4.138   0.435  -3.891  0.00  0.00    +0.044 C 
ATOM     13  C   UNL     1       3.903  -1.020  -3.575  0.00  0.00    -0.050 A 
ATOM     14  C   UNL     1       4.451  -1.998  -4.385  0.00  0.00    +0.004 A 
ATOM     15  C   UNL     1       4.240  -3.332  -4.101  0.00  0.00    +0.009 A 
ATOM     16  C   UNL     1       3.473  -3.692  -2.993  0.00  0.00    -0.017 A 
ATOM     17  C   UNL     1       2.925  -2.702  -2.180  0.00  0.00    +0.009 A 
ATOM     18  C   UNL     1       3.147  -1.372  -2.471  0.00  0.00    +0.004 A 
ENDBRANCH   1  16
BRANCH  10  19
ATOM     19  C   UNL     1       3.988  -7.692   2.351  0.00  0.00    -0.003 C 
BRANCH  19  20
ATOM     20  N   UNL     1       3.461  -9.058   2.227  0.00  0.00    +0.388 N 
ATOM     21  H   UNL     1       3.615  -9.394   1.288  0.00  0.00    -0.081 HD
BRANCH  20  22
ATOM     22  C   UNL     1       2.021  -9.055   2.516  0.00  0.00    -0.074 C 
ATOM     23  C   UNL     1       1.785  -8.516   3.928  0.00  0.00    -0.014 C 
ATOM     24  C   UNL     1       1.299  -8.164   1.502  0.00  0.00    -0.014 C 
ENDBRANCH  20  22
BRANCH  20  25
ATOM     25  C   UNL     1       4.150  -9.937   3.181  0.00  0.00    -0.044 C 
BRANCH  25  26
ATOM     26  C   UNL     1       3.717 -11.386   2.944  0.00  0.00    +0.124 C 
BRANCH  26  27
ATOM     27  O   UNL     1       2.351 -11.544   3.331  0.00  0.00    -0.391 OA
ATOM     28  H   UNL     1       2.168 -11.285   4.245  0.00  0.00    +0.210 HD
ENDBRANCH  26  27
BRANCH  26  29
ATOM     29  C   UNL     1       4.595 -12.322   3.776  0.00  0.00    +0.189 C 
BRANCH  29  30
ATOM     30  O   UNL     1       4.270 -13.679   3.467  0.00  0.00    -0.370 OA
BRANCH  30  31
ATOM     31  C   UNL     1       5.037 -14.641   4.194  0.00  0.00    +0.234 C 
BRANCH  31  32
ATOM     32  C   UNL     1       4.613 -16.030   3.792  0.00  0.00    +0.130 A 
ATOM     33  C   UNL     1       5.146 -16.757   2.794  0.00  0.00    +0.047 A 
ATOM     34  C   UNL     1       4.452 -17.989   2.769  0.00  0.00    +0.041 A 
ATOM     35  C   UNL     1       3.537 -17.941   3.753  0.00  0.00    +0.195 A 
ATOM     36  O   UNL     1       3.643 -16.754   4.374  0.00  0.00    -0.465 OA
ENDBRANCH  31  32
ENDBRANCH  30  31
ENDBRANCH  29  30
ENDBRANCH  26  29
ENDBRANCH  25  26
ENDBRANCH  20  25
ENDBRANCH  19  20
ENDBRANCH  10  19
TORSDOF 11
