REMARK  Name = ZINC39919996
REMARK  8 active torsions:
REMARK  status: ('A' for Active; 'I' for Inactive)
REMARK    1  A    between atoms: C_1  and  N_2
REMARK    2  A    between atoms: N_2  and  C_3
REMARK    3  A    between atoms: N_2  and  C_4
REMARK    4  A    between atoms: C_7  and  C_10
REMARK    5  A    between atoms: N_21  and  N_22
REMARK    6  A    between atoms: C_23  and  C_25
REMARK    7  A    between atoms: C_25  and  O_26
REMARK    8  A    between atoms: O_26  and  C_27
REMARK                            x       y       z     vdW  Elec       q    Type
REMARK                         _______ _______ _______ _____ _____    ______ ____
ROOT
ATOM      1  C   UNL     1       0.013  -2.703  -4.830  0.00  0.00    +0.212 C 
ATOM      2  N   UNL     1       0.748  -3.962  -4.657  0.00  0.00    -0.320 N 
ATOM      3  C   UNL     1       2.135  -3.939  -4.747  0.00  0.00    +0.041 A 
ATOM      4  C   UNL     1       2.930  -4.833  -4.050  0.00  0.00    +0.024 A 
ATOM      5  C   UNL     1       4.304  -4.765  -4.173  0.00  0.00    +0.002 A 
ATOM      6  C   UNL     1       4.893  -3.811  -4.988  0.00  0.00    +0.001 A 
ATOM      7  C   UNL     1       4.115  -2.914  -5.691  0.00  0.00    +0.015 A 
ATOM      8  C   UNL     1       2.728  -2.972  -5.577  0.00  0.00    +0.059 A 
ATOM      9  C   UNL     1       1.850  -2.044  -6.313  0.00  0.00    +0.266 C 
ATOM     10  O   UNL     1       2.293  -1.366  -7.220  0.00  0.00    -0.268 OA
ATOM     11  N   UNL     1       0.552  -1.958  -5.968  0.00  0.00    -0.191 N 
ATOM     12  H   UNL     1       0.276  -4.791  -4.483  0.00  0.00    +0.148 HD
ENDROOT
BRANCH   1  16
ATOM     13  C   UNL     1       0.392  -0.343  -1.287  0.00  0.00    +0.029 A 
ATOM     14  C   UNL     1       1.528  -0.772  -1.962  0.00  0.00    +0.023 A 
ATOM     15  C   UNL     1       1.402  -1.535  -3.107  0.00  0.00    +0.009 A 
ATOM     16  C   UNL     1       0.147  -1.871  -3.581  0.00  0.00    -0.008 A 
ATOM     17  C   UNL     1      -0.986  -1.446  -2.911  0.00  0.00    +0.009 A 
ATOM     18  C   UNL     1      -0.867  -0.687  -1.763  0.00  0.00    +0.023 A 
BRANCH  13  20
ATOM     19  C   UNL     1      -0.683   0.875   0.585  0.00  0.00    +0.129 C 
ATOM     20  N   UNL     1       0.516   0.428  -0.129  0.00  0.00    -0.336 N 
ATOM     21  C   UNL     1       1.844   0.791   0.371  0.00  0.00    +0.129 C 
ENDBRANCH  13  20
ENDBRANCH   1  16
BRANCH  11  22
ATOM     22  N   UNL     1      -0.300  -1.135  -6.716  0.00  0.00    -0.227 N 
ATOM     23  C   UNL     1      -0.261   0.203  -6.551  0.00  0.00    +0.267 C 
ATOM     24  O   UNL     1       0.573   0.700  -5.825  0.00  0.00    -0.271 OA
ATOM     25  H   UNL     1      -0.917  -1.527  -7.353  0.00  0.00    +0.173 HD
BRANCH  23  26
ATOM     26  C   UNL     1      -1.254   1.079  -7.269  0.00  0.00    +0.326 C 
BRANCH  26  27
ATOM     27  O   UNL     1      -1.011   2.447  -6.935  0.00  0.00    -0.482 OA
BRANCH  27  28
ATOM     28  C   UNL     1      -1.825   3.375  -7.502  0.00  0.00    +0.129 A 
ATOM     29  C   UNL     1      -2.828   2.986  -8.346  0.00  0.00    +0.046 A 
ATOM     30  C   UNL     1      -3.670   3.925  -8.935  0.00  0.00    +0.004 A 
ATOM     31  C   UNL     1      -3.522   5.255  -8.688  0.00  0.00    +0.009 A 
ATOM     32  C   UNL     1      -2.503   5.696  -7.826  0.00  0.00    -0.014 A 
ATOM     33  C   UNL     1      -1.646   4.744  -7.220  0.00  0.00    +0.024 A 
ATOM     34  C   UNL     1      -0.631   5.183  -6.354  0.00  0.00    +0.012 A 
ATOM     35  C   UNL     1      -0.487   6.514  -6.105  0.00  0.00    +0.001 A 
ATOM     36  C   UNL     1      -1.334   7.450  -6.697  0.00  0.00    +0.001 A 
ATOM     37  C   UNL     1      -2.321   7.061  -7.549  0.00  0.00    +0.008 A 
ENDBRANCH  27  28
ENDBRANCH  26  27
ENDBRANCH  23  26
ENDBRANCH  11  22
TORSDOF 6
