REMARK  Name = ZINC39711661
REMARK  11 active torsions:
REMARK  status: ('A' for Active; 'I' for Inactive)
REMARK    1  A    between atoms: C_1  and  O_2
REMARK    2  A    between atoms: O_2  and  C_3
REMARK    3  A    between atoms: C_3  and  C_4
REMARK    4  A    between atoms: C_4  and  N_5
REMARK    5  A    between atoms: C_6  and  C_10
REMARK    6  A    between atoms: C_10  and  C_12
REMARK    7  A    between atoms: C_10  and  N_27
REMARK    8  A    between atoms: N_27  and  C_28
REMARK    9  A    between atoms: N_27  and  C_35
REMARK   10  A    between atoms: C_28  and  C_29
REMARK   11  A    between atoms: C_35  and  C_36
REMARK                            x       y       z     vdW  Elec       q    Type
REMARK                         _______ _______ _______ _____ _____    ______ ____
ROOT
ATOM      1  C   UNL     1       3.628  -2.049   1.083  0.00  0.00    +0.019 C 
ENDROOT
BRANCH   1   2
ATOM      2  C   UNL     1       3.630  -3.526   0.687  0.00  0.00    +0.092 C 
ATOM      3  C   UNL     1       2.349  -3.806  -0.072  0.00  0.00    -0.006 C 
ATOM      4  C   UNL     1       2.465  -4.298  -1.335  0.00  0.00    -0.003 A 
ATOM      5  C   UNL     1       1.275  -4.595  -2.135  0.00  0.00    +0.059 A 
ATOM      6  C   UNL     1       1.426  -5.087  -3.393  0.00  0.00    +0.167 A 
ATOM      7  C   UNL     1       2.707  -5.313  -3.940  0.00  0.00    +0.168 A 
ATOM      8  C   UNL     1       3.858  -5.049  -3.228  0.00  0.00    +0.073 A 
ATOM      9  C   UNL     1       3.795  -4.542  -1.924  0.00  0.00    +0.044 A 
ATOM     10  N   UNL     1       4.921  -4.293  -1.252  0.00  0.00    -0.284 N 
ATOM     11  C   UNL     1       4.935  -3.815  -0.021  0.00  0.00    +0.223 C 
ATOM     12  O   UNL     1       5.994  -3.608   0.542  0.00  0.00    -0.275 OA
ATOM     13  O   UNL     1       2.549  -5.803  -5.204  0.00  0.00    -0.453 OA
ATOM     14  C   UNL     1       1.189  -6.267  -5.273  0.00  0.00    +0.466 C 
ATOM     15  O   UNL     1       0.490  -5.440  -4.325  0.00  0.00    -0.453 OA
ATOM     16  H   UNL     1       5.769  -4.471  -1.688  0.00  0.00    +0.155 HD
ENDBRANCH   1   2
BRANCH   1  18
ATOM     17  N   UNL     1       1.284  -1.068   0.855  0.00  0.00    -0.229 N 
ATOM     18  C   UNL     1       2.256  -1.662   1.573  0.00  0.00    +0.139 A 
ATOM     19  N   UNL     1       1.778  -1.839   2.780  0.00  0.00    -0.115 NA
ATOM     20  N   UNL     1       0.575  -1.378   2.803  0.00  0.00    -0.023 NA
ATOM     21  N   UNL     1       0.275  -0.907   1.643  0.00  0.00    -0.044 NA
BRANCH  17  22
ATOM     22  C   UNL     1       1.360  -0.674  -0.554  0.00  0.00    +0.175 C 
BRANCH  22  23
ATOM     23  C   UNL     1       1.897   0.755  -0.655  0.00  0.00    +0.183 C 
BRANCH  23  25
ATOM     24  C   UNL     1       2.462   2.466  -2.236  0.00  0.00    +0.194 C 
ATOM     25  O   UNL     1       1.971   1.140  -2.029  0.00  0.00    -0.381 OA
ENDBRANCH  23  25
ENDBRANCH  22  23
ENDBRANCH  17  22
ENDBRANCH   1  18
BRANCH   1  26
ATOM     26  N   UNL     1       4.610  -1.827   2.152  0.00  0.00    +0.394 N 
ATOM     27  H   UNL     1       4.277  -1.101   2.769  0.00  0.00    -0.080 HD
BRANCH  26  28
ATOM     28  C   UNL     1       4.796  -3.070   2.913  0.00  0.00    -0.041 C 
BRANCH  28  29
ATOM     29  C   UNL     1       3.568  -3.338   3.744  0.00  0.00    -0.064 A 
ATOM     30  C   UNL     1       3.277  -2.530   4.828  0.00  0.00    +0.002 A 
ATOM     31  C   UNL     1       2.150  -2.776   5.590  0.00  0.00    +0.000 A 
ATOM     32  C   UNL     1       1.315  -3.829   5.269  0.00  0.00    +0.000 A 
ATOM     33  C   UNL     1       1.605  -4.636   4.185  0.00  0.00    +0.000 A 
ATOM     34  C   UNL     1       2.729  -4.388   3.420  0.00  0.00    +0.002 A 
ENDBRANCH  28  29
ENDBRANCH  26  28
BRANCH  26  35
ATOM     35  C   UNL     1       5.892  -1.418   1.562  0.00  0.00    -0.002 C 
BRANCH  35  36
ATOM     36  C   UNL     1       5.826   0.038   1.177  0.00  0.00    +0.089 A 
ATOM     37  C   UNL     1       6.172   1.075   1.961  0.00  0.00    +0.042 A 
ATOM     38  C   UNL     1       5.954   2.250   1.205  0.00  0.00    +0.041 A 
ATOM     39  C   UNL     1       5.488   1.860   0.005  0.00  0.00    +0.195 A 
ATOM     40  O   UNL     1       5.418   0.519  -0.008  0.00  0.00    -0.470 OA
ENDBRANCH  35  36
ENDBRANCH  26  35
ENDBRANCH   1  26
TORSDOF 10
