REMARK  Name = ZINC20886167
REMARK  2 active torsions:
REMARK  status: ('A' for Active; 'I' for Inactive)
REMARK    1  A    between atoms: C_5  and  C_7
REMARK    2  A    between atoms: C_12  and  C_22
REMARK                            x       y       z     vdW  Elec       q    Type
REMARK                         _______ _______ _______ _____ _____    ______ ____
ROOT
ATOM      1  C   UNL     1       3.393   3.531   4.173  0.00  0.00    +0.033 C 
ATOM      2  C   UNL     1       3.657   4.924   3.604  0.00  0.00    +0.059 C 
ATOM      3  C   UNL     1       3.062   5.037   2.211  0.00  0.00    +0.017 C 
ATOM      4  C   UNL     1       3.002   3.963   1.405  0.00  0.00    +0.036 C 
ATOM      5  C   UNL     1       2.451   3.939  -0.000  0.00  0.00    +0.137 C 
ATOM      6  N   UNL     1       2.202   5.246  -0.572  0.00  0.00    -0.331 N 
ATOM      7  C   UNL     1       1.236   6.092  -0.031  0.00  0.00    +0.049 A 
ATOM      8  C   UNL     1       0.106   6.454  -0.747  0.00  0.00    +0.025 A 
ATOM      9  C   UNL     1      -0.849   7.259  -0.149  0.00  0.00    +0.002 A 
ATOM     10  C   UNL     1      -0.680   7.698   1.151  0.00  0.00    +0.002 A 
ATOM     11  C   UNL     1       0.456   7.353   1.863  0.00  0.00    +0.025 A 
ATOM     12  C   UNL     1       1.422   6.567   1.259  0.00  0.00    +0.052 A 
ATOM     13  N   UNL     1       2.636   6.280   1.872  0.00  0.00    -0.316 N 
ATOM     14  C   UNL     1       3.477   2.708   1.855  0.00  0.00    +0.163 C 
ATOM     15  O   UNL     1       3.427   1.756   1.100  0.00  0.00    -0.292 OA
ATOM     16  C   UNL     1       4.042   2.511   3.230  0.00  0.00    +0.088 C 
ATOM     17  H   UNL     1       2.779   5.583  -1.445  0.00  0.00    +0.147 HD
ATOM     18  H   UNL     1       3.270   7.155   2.080  0.00  0.00    +0.152 HD
ENDROOT
BRANCH   1  23
ATOM     19  C   UNL     1       5.925   3.485   6.974  0.00  0.00    +0.000 A 
ATOM     20  C   UNL     1       5.124   3.208   8.067  0.00  0.00    +0.001 A 
ATOM     21  C   UNL     1       3.763   3.035   7.900  0.00  0.00    +0.020 A 
ATOM     22  C   UNL     1       3.201   3.145   6.640  0.00  0.00    +0.044 A 
ATOM     23  C   UNL     1       4.004   3.417   5.547  0.00  0.00    -0.025 A 
ATOM     24  C   UNL     1       5.365   3.589   5.715  0.00  0.00    +0.005 A 
ATOM     25 CL   UNL     1       1.490   2.937   6.431  0.00  0.00    -0.083 Cl
ENDBRANCH   1  23
BRANCH   5  26
ATOM     26  C   UNL     1       1.157   3.167   0.007  0.00  0.00    -0.004 A 
ATOM     27  C   UNL     1       0.447   3.020   1.185  0.00  0.00    +0.007 A 
ATOM     28  C   UNL     1      -0.740   2.312   1.192  0.00  0.00    +0.000 A 
ATOM     29  C   UNL     1      -1.221   1.754   0.021  0.00  0.00    +0.001 A 
ATOM     30  C   UNL     1      -0.509   1.897  -1.155  0.00  0.00    +0.020 A 
ATOM     31  C   UNL     1       0.679   2.606  -1.163  0.00  0.00    +0.046 A 
ATOM     32 CL   UNL     1       1.570   2.791  -2.642  0.00  0.00    -0.083 Cl
ENDBRANCH   5  26
TORSDOF 2
