REMARK  Name = ZINC02605883
REMARK  2 active torsions:
REMARK  status: ('A' for Active; 'I' for Inactive)
REMARK    1  A    between atoms: C_4  and  C_7
REMARK    2  A    between atoms: C_10  and  C_17
REMARK                            x       y       z     vdW  Elec       q    Type
REMARK                         _______ _______ _______ _____ _____    ______ ____
ROOT
ATOM      1  C   UNL     1       3.711  -0.707  -0.038  0.00  0.00    +0.158 C 
ATOM      2  C   UNL     1       4.055  -1.090   1.390  0.00  0.00    +0.030 C 
ATOM      3  C   UNL     1       4.233  -2.398   1.657  0.00  0.00    +0.073 C 
ATOM      4  N   UNL     1       4.111  -3.344   0.691  0.00  0.00    -0.216 NA
ATOM      5  C   UNL     1       3.816  -3.087  -0.561  0.00  0.00    +0.227 C 
ATOM      6  N   UNL     1       3.603  -1.811  -1.001  0.00  0.00    -0.162 N 
ATOM      7  N   UNL     1       3.314  -1.873  -2.364  0.00  0.00    -0.055 NA
ATOM      8  N   UNL     1       3.340  -3.052  -2.739  0.00  0.00    -0.058 NA
ATOM      9  N   UNL     1       3.652  -3.886  -1.659  0.00  0.00    -0.187 N 
ATOM     10  H   UNL     1       3.736  -4.852  -1.685  0.00  0.00    +0.179 HD
ENDROOT
BRANCH   3  11
ATOM     11  C   UNL     1       4.571  -2.815   3.040  0.00  0.00    +0.000 A 
ATOM     12  C   UNL     1       4.696  -1.860   4.047  0.00  0.00    +0.013 A 
ATOM     13  C   UNL     1       5.010  -2.253   5.332  0.00  0.00    +0.039 A 
ATOM     14  C   UNL     1       5.202  -3.594   5.622  0.00  0.00    +0.123 A 
ATOM     15  C   UNL     1       5.079  -4.547   4.623  0.00  0.00    +0.039 A 
ATOM     16  C   UNL     1       4.758  -4.164   3.337  0.00  0.00    +0.013 A 
ATOM     17  F   UNL     1       5.510  -3.974   6.881  0.00  0.00    -0.205 F 
ENDBRANCH   3  11
BRANCH   1  21
ATOM     18  C   UNL     1      -0.017   1.378   0.010  0.00  0.00    +0.000 A 
ATOM     19  C   UNL     1       1.171   2.086   0.002  0.00  0.00    +0.000 A 
ATOM     20  C   UNL     1       2.377   1.411  -0.013  0.00  0.00    +0.006 A 
ATOM     21  C   UNL     1       2.396   0.029  -0.020  0.00  0.00    -0.021 A 
ATOM     22  C   UNL     1       1.208  -0.679  -0.012  0.00  0.00    +0.006 A 
ATOM     23  C   UNL     1       0.002  -0.004   0.002  0.00  0.00    +0.000 A 
ENDBRANCH   1  21
TORSDOF 2
