REMARK  Name = ZINC44995651
REMARK  6 active torsions:
REMARK  status: ('A' for Active; 'I' for Inactive)
REMARK    1  A    between atoms: C_1  and  C_2
REMARK    2  A    between atoms: C_4  and  C_7
REMARK    3  A    between atoms: C_7  and  N_8
REMARK    4  A    between atoms: N_8  and  C_9
REMARK    5  A    between atoms: C_14  and  S_15
REMARK    6  A    between atoms: S_15  and  C_18
REMARK                            x       y       z     vdW  Elec       q    Type
REMARK                         _______ _______ _______ _____ _____    ______ ____
ROOT
ATOM      1  C   UNL     1       1.690  -4.795  -2.746  0.00  0.00    +0.053 A 
ATOM      2  C   UNL     1       0.643  -5.532  -3.283  0.00  0.00    +0.025 A 
ATOM      3  C   UNL     1       0.909  -6.620  -4.091  0.00  0.00    +0.002 A 
ATOM      4  C   UNL     1       2.217  -6.975  -4.366  0.00  0.00    +0.002 A 
ATOM      5  C   UNL     1       3.262  -6.243  -3.833  0.00  0.00    +0.029 A 
ATOM      6  C   UNL     1       3.003  -5.151  -3.028  0.00  0.00    +0.118 A 
ENDROOT
BRANCH   6   7
ATOM      7  S   UNL     1       4.335  -4.214  -2.356  0.00  0.00    +0.093 S 
ATOM      8  O   UNL     1       4.056  -4.135  -0.965  0.00  0.00    -0.161 OA
ATOM      9  O   UNL     1       5.508  -4.865  -2.824  0.00  0.00    -0.161 OA
BRANCH   7  10
ATOM     10  C   UNL     1       4.184  -2.575  -3.118  0.00  0.00    +0.526 C 
ATOM     11  F   UNL     1       2.943  -2.020  -2.788  0.00  0.00    -0.150 F 
ATOM     12  F   UNL     1       5.206  -1.745  -2.645  0.00  0.00    -0.150 F 
ATOM     13  F   UNL     1       4.286  -2.695  -4.508  0.00  0.00    -0.150 F 
ENDBRANCH   7  10
ENDBRANCH   6   7
BRANCH   1  14
ATOM     14  N   UNL     1       1.424  -3.694  -1.928  0.00  0.00    -0.335 N 
ATOM     15  H   UNL     1       2.156  -3.177  -1.557  0.00  0.00    +0.147 HD
BRANCH  14  16
ATOM     16  C   UNL     1       0.039  -3.320  -1.631  0.00  0.00    +0.178 C 
BRANCH  16  20
ATOM     17  C   UNL     1      -0.018   1.503   0.010  0.00  0.00    +0.069 C 
ATOM     18  C   UNL     1       0.002  -0.004   0.002  0.00  0.00    +0.081 A 
ATOM     19  C   UNL     1       0.008  -0.824  -1.141  0.00  0.00    +0.072 A 
ATOM     20  C   UNL     1       0.027  -2.108  -0.735  0.00  0.00    +0.154 A 
ATOM     21  O   UNL     1       0.034  -2.119   0.606  0.00  0.00    -0.358 OA
ATOM     22  N   UNL     1       0.023  -0.775   1.052  0.00  0.00    -0.083 NA
ENDBRANCH  16  20
ENDBRANCH  14  16
ENDBRANCH   1  14
TORSDOF 5
