REMARK  Name = ZINC00408288
REMARK  2 active torsions:
REMARK  status: ('A' for Active; 'I' for Inactive)
REMARK    1  A    between atoms: C_4  and  C_7
REMARK    2  A    between atoms: C_10  and  C_17
REMARK                            x       y       z     vdW  Elec       q    Type
REMARK                         _______ _______ _______ _____ _____    ______ ____
ROOT
ATOM      1  C   UNL     1       3.711  -0.707  -0.038  0.00  0.00    +0.129 C 
ATOM      2  C   UNL     1       4.045  -1.158   1.358  0.00  0.00    +0.028 C 
ATOM      3  C   UNL     1       3.727  -2.380   1.803  0.00  0.00    +0.076 C 
ATOM      4  N   UNL     1       3.096  -3.256   0.918  0.00  0.00    -0.180 N 
ATOM      5  C   UNL     1       3.044  -3.013  -0.425  0.00  0.00    +0.240 A 
ATOM      6  N   UNL     1       2.409  -4.005  -0.971  0.00  0.00    -0.092 NA
ATOM      7  N   UNL     1       2.050  -4.856  -0.069  0.00  0.00    -0.021 NA
ATOM      8  N   UNL     1       2.433  -4.463   1.104  0.00  0.00    -0.038 NA
ATOM      9  N   UNL     1       3.609  -1.861  -0.948  0.00  0.00    -0.302 N 
ATOM     10  H   UNL     1       3.921  -1.817  -1.865  0.00  0.00    +0.150 HD
ENDROOT
BRANCH   1  14
ATOM     11  C   UNL     1      -0.017   1.378   0.010  0.00  0.00    +0.000 A 
ATOM     12  C   UNL     1       1.171   2.086   0.002  0.00  0.00    +0.000 A 
ATOM     13  C   UNL     1       2.377   1.411  -0.013  0.00  0.00    +0.006 A 
ATOM     14  C   UNL     1       2.396   0.029  -0.020  0.00  0.00    -0.023 A 
ATOM     15  C   UNL     1       1.208  -0.679  -0.012  0.00  0.00    +0.006 A 
ATOM     16  C   UNL     1       0.002  -0.004   0.002  0.00  0.00    +0.000 A 
ENDBRANCH   1  14
BRANCH   3  17
ATOM     17  C   UNL     1       4.037  -2.789   3.192  0.00  0.00    +0.000 A 
ATOM     18  C   UNL     1       5.362  -2.892   3.613  0.00  0.00    +0.010 A 
ATOM     19  C   UNL     1       5.644  -3.274   4.909  0.00  0.00    +0.001 A 
ATOM     20  C   UNL     1       4.615  -3.555   5.789  0.00  0.00    +0.000 A 
ATOM     21  C   UNL     1       3.298  -3.456   5.377  0.00  0.00    +0.001 A 
ATOM     22  C   UNL     1       3.003  -3.069   4.086  0.00  0.00    +0.010 A 
ENDBRANCH   3  17
TORSDOF 2
