REMARK  Name = ZINC57744180
REMARK  14 active torsions:
REMARK  status: ('A' for Active; 'I' for Inactive)
REMARK    1  A    between atoms: C_1  and  C_2
REMARK    2  A    between atoms: C_2  and  O_3
REMARK    3  A    between atoms: O_3  and  C_4
REMARK    4  A    between atoms: C_5  and  C_13
REMARK    5  A    between atoms: C_8  and  O_10
REMARK    6  A    between atoms: O_10  and  C_11
REMARK    7  A    between atoms: C_11  and  C_12
REMARK    8  A    between atoms: C_13  and  O_34
REMARK    9  A    between atoms: N_21  and  C_23
REMARK   10  A    between atoms: C_23  and  C_24
REMARK   11  A    between atoms: C_27  and  O_30
REMARK   12  A    between atoms: O_30  and  C_31
REMARK   13  A    between atoms: C_31  and  C_32
REMARK   14  A    between atoms: C_31  and  C_33
REMARK                            x       y       z     vdW  Elec       q    Type
REMARK                         _______ _______ _______ _____ _____    ______ ____
ROOT
ATOM      1  C   UNL     1       2.006  -1.428  -3.476  0.00  0.00    +0.099 C 
ATOM      2  C   UNL     1       2.895  -0.338  -2.805  0.00  0.00    +0.040 C 
ATOM      3  C   UNL     1       2.137   1.015  -3.009  0.00  0.00    +0.005 C 
ATOM      4  C   UNL     1       0.710   0.544  -3.157  0.00  0.00    -0.023 C 
ATOM      5  C   UNL     1       0.927  -0.646  -4.171  0.00  0.00    +0.010 C 
ATOM      6  C   UNL     1      -0.510  -1.079  -4.330  0.00  0.00    -0.072 C 
ATOM      7  N   UNL     1      -1.220   0.232  -4.509  0.00  0.00    +0.383 N 
ATOM      8  C   UNL     1      -0.385   1.286  -3.870  0.00  0.00    -0.075 C 
ATOM      9  H   UNL     1      -1.323   0.433  -5.492  0.00  0.00    -0.081 HD
ENDROOT
BRANCH   1  11
ATOM     10  C   UNL     1       0.771  -3.522  -2.800  0.00  0.00    +0.227 A 
ATOM     11  C   UNL     1       1.409  -2.338  -2.433  0.00  0.00    +0.064 A 
ATOM     12  C   UNL     1       1.483  -2.018  -1.091  0.00  0.00    +0.128 A 
ATOM     13  N   UNL     1       0.949  -2.840  -0.199  0.00  0.00    -0.203 NA
ATOM     14  C   UNL     1       0.349  -3.957  -0.578  0.00  0.00    +0.321 A 
ATOM     15  N   UNL     1       0.253  -4.295  -1.854  0.00  0.00    -0.159 NA
BRANCH  10  16
ATOM     16  O   UNL     1       0.675  -3.875  -4.105  0.00  0.00    -0.476 OA
BRANCH  16  18
ATOM     17  C   UNL     1      -0.007  -5.329  -5.911  0.00  0.00    +0.048 C 
ATOM     18  C   UNL     1       0.001  -5.100  -4.398  0.00  0.00    +0.227 C 
ENDBRANCH  16  18
ENDBRANCH  10  16
BRANCH  14  19
ATOM     19  O   UNL     1      -0.185  -4.772   0.363  0.00  0.00    -0.463 OA
BRANCH  19  20
ATOM     20  C   UNL     1      -0.060  -4.359   1.725  0.00  0.00    +0.229 C 
ATOM     21  C   UNL     1      -0.718  -5.397   2.636  0.00  0.00    +0.048 C 
ENDBRANCH  19  20
ENDBRANCH  14  19
ENDBRANCH   1  11
BRANCH   1  22
ATOM     22  O   UNL     1       2.765  -2.184  -4.422  0.00  0.00    -0.384 OA
ATOM     23  H   UNL     1       3.493  -2.686  -4.031  0.00  0.00    +0.211 HD
ENDBRANCH   1  22
BRANCH   7  24
ATOM     24  C   UNL     1      -2.541   0.173  -3.870  0.00  0.00    -0.043 C 
BRANCH  24  25
ATOM     25  C   UNL     1      -3.295   1.446  -4.158  0.00  0.00    -0.064 A 
ATOM     26  C   UNL     1      -3.178   2.526  -3.303  0.00  0.00    +0.005 A 
ATOM     27  C   UNL     1      -3.869   3.694  -3.565  0.00  0.00    +0.046 A 
ATOM     28  C   UNL     1      -4.679   3.783  -4.687  0.00  0.00    +0.121 A 
ATOM     29  C   UNL     1      -4.793   2.698  -5.544  0.00  0.00    +0.046 A 
ATOM     30  C   UNL     1      -4.097   1.534  -5.281  0.00  0.00    +0.005 A 
BRANCH  28  31
ATOM     31  O   UNL     1      -5.359   4.930  -4.947  0.00  0.00    -0.489 OA
BRANCH  31  32
ATOM     32  C   UNL     1      -5.103   6.044  -4.089  0.00  0.00    +0.167 C 
ATOM     33  C   UNL     1      -5.418   7.343  -4.833  0.00  0.00    +0.051 C 
ATOM     34  C   UNL     1      -5.985   5.943  -2.844  0.00  0.00    +0.051 C 
ENDBRANCH  31  32
ENDBRANCH  28  31
ENDBRANCH  24  25
ENDBRANCH   7  24
TORSDOF 10
