REMARK  Name = ZINC09599432
REMARK  12 active torsions:
REMARK  status: ('A' for Active; 'I' for Inactive)
REMARK    1  A    between atoms: C_1  and  C_2
REMARK    2  A    between atoms: C_5  and  C_8
REMARK    3  A    between atoms: C_8  and  C_9
REMARK    4  A    between atoms: C_9  and  N_10
REMARK    5  A    between atoms: C_11  and  C_13
REMARK    6  A    between atoms: C_13  and  C_14
REMARK    7  A    between atoms: C_14  and  C_15
REMARK    8  A    between atoms: C_15  and  N_16
REMARK    9  A    between atoms: N_25  and  C_28
REMARK   10  A    between atoms: C_28  and  C_29
REMARK   11  A    between atoms: N_31  and  C_32
REMARK   12  A    between atoms: C_34  and  C_38
REMARK                            x       y       z     vdW  Elec       q    Type
REMARK                         _______ _______ _______ _____ _____    ______ ____
ROOT
ATOM      1  N   UNL     1       3.302  -1.123   1.206  0.00  0.00    -0.260 N 
ATOM      2  C   UNL     1       4.014  -1.361   0.083  0.00  0.00    +0.264 A 
ATOM      3  O   UNL     1       5.164  -1.750   0.145  0.00  0.00    -0.267 OA
ATOM      4  C   UNL     1       3.361  -1.138  -1.219  0.00  0.00    +0.063 A 
ATOM      5  C   UNL     1       4.027  -1.361  -2.421  0.00  0.00    +0.015 A 
ATOM      6  C   UNL     1       3.366  -1.153  -3.614  0.00  0.00    +0.001 A 
ATOM      7  C   UNL     1       2.053  -0.709  -3.620  0.00  0.00    +0.002 A 
ATOM      8  C   UNL     1       1.382  -0.478  -2.435  0.00  0.00    +0.027 A 
ATOM      9  C   UNL     1       2.027  -0.693  -1.226  0.00  0.00    +0.059 A 
ATOM     10  N   UNL     1       1.390  -0.473  -0.014  0.00  0.00    -0.284 N 
ATOM     11  C   UNL     1       2.031  -0.693   1.147  0.00  0.00    +0.333 A 
ATOM     12  O   UNL     1       1.436  -0.494   2.188  0.00  0.00    -0.246 OA
ENDROOT
BRANCH   1  13
ATOM     13  C   UNL     1       3.928  -1.336   2.513  0.00  0.00    +0.130 C 
BRANCH  13  14
ATOM     14  C   UNL     1       3.684  -2.777   2.966  0.00  0.00    +0.031 C 
BRANCH  14  15
ATOM     15  C   UNL     1       4.338  -3.000   4.331  0.00  0.00    +0.097 C 
BRANCH  15  17
ATOM     16  N   UNL     1       4.585  -4.846   5.959  0.00  0.00    -0.315 N 
ATOM     17  C   UNL     1       4.098  -4.420   4.777  0.00  0.00    +0.213 C 
ATOM     18  O   UNL     1       3.466  -5.178   4.072  0.00  0.00    -0.276 OA
ATOM     19  H   UNL     1       5.091  -4.240   6.522  0.00  0.00    +0.149 HD
BRANCH  16  20
ATOM     20  C   UNL     1       4.352  -6.226   6.392  0.00  0.00    +0.109 C 
BRANCH  20  21
ATOM     21  C   UNL     1       5.006  -6.449   7.757  0.00  0.00    +0.054 C 
BRANCH  21  26
ATOM     22  C   UNL     1       4.085 -11.891   9.469  0.00  0.00    +0.044 C 
ATOM     23  C   UNL     1       4.325 -10.472   9.023  0.00  0.00    -0.050 A 
ATOM     24  C   UNL     1       5.447 -10.162   8.277  0.00  0.00    +0.003 A 
ATOM     25  C   UNL     1       5.668  -8.861   7.867  0.00  0.00    +0.004 A 
ATOM     26  C   UNL     1       4.766  -7.868   8.204  0.00  0.00    -0.046 A 
ATOM     27  C   UNL     1       3.646  -8.177   8.954  0.00  0.00    +0.004 A 
ATOM     28  C   UNL     1       3.424  -9.480   9.359  0.00  0.00    +0.003 A 
ENDBRANCH  21  26
ENDBRANCH  20  21
ENDBRANCH  16  20
ENDBRANCH  15  17
ENDBRANCH  14  15
ENDBRANCH  13  14
ENDBRANCH   1  13
BRANCH  10  29
ATOM     29  C   UNL     1       0.002  -0.004   0.002  0.00  0.00    +0.222 C 
BRANCH  29  30
ATOM     30  C   UNL     1      -0.018   1.503   0.010  0.00  0.00    +0.238 C 
ATOM     31  O   UNL     1       1.024   2.123   0.004  0.00  0.00    -0.273 OA
ATOM     32  N   UNL     1      -1.195   2.161   0.019  0.00  0.00    -0.269 N 
ATOM     33  H   UNL     1      -2.028   1.664   0.021  0.00  0.00    +0.156 HD
BRANCH  32  34
ATOM     34  C   UNL     1      -1.214   3.555   0.027  0.00  0.00    +0.121 A 
ATOM     35  C   UNL     1      -0.126   4.374   0.026  0.00  0.00    +0.068 A 
ATOM     36  C   UNL     1      -0.585   5.694   0.035  0.00  0.00    +0.062 A 
ATOM     37  N   UNL     1      -1.894   5.675   0.041  0.00  0.00    -0.178 NA
ATOM     38  N   UNL     1      -2.316   4.340   0.031  0.00  0.00    -0.264 N 
ATOM     39  H   UNL     1      -3.264   4.022   0.027  0.00  0.00    +0.190 HD
ATOM     40  C   UNL     1       0.279   6.929   0.037  0.00  0.00    +0.067 C 
ENDBRANCH  32  34
ENDBRANCH  29  30
ENDBRANCH  10  29
TORSDOF 10
