REMARK  Name = ZINC12872528
REMARK  8 active torsions:
REMARK  status: ('A' for Active; 'I' for Inactive)
REMARK    1  A    between atoms: C_1  and  C_2
REMARK    2  A    between atoms: C_2  and  C_3
REMARK    3  A    between atoms: C_3  and  C_4
REMARK    4  A    between atoms: C_4  and  C_5
REMARK    5  A    between atoms: C_8  and  N_11
REMARK    6  A    between atoms: C_16  and  C_34
REMARK    7  A    between atoms: C_25  and  C_33
REMARK    8  A    between atoms: C_34  and  C_35
REMARK                            x       y       z     vdW  Elec       q    Type
REMARK                         _______ _______ _______ _____ _____    ______ ____
ROOT
ATOM      1  N   UNL     1      -2.429   1.039   0.019  0.00  0.00    -0.210 N 
ATOM      2  C   UNL     1      -2.480  -0.293  -0.092  0.00  0.00    +0.228 C 
ATOM      3  O   UNL     1      -1.520  -1.024  -0.203  0.00  0.00    -0.275 OA
ATOM      4  C   UNL     1      -3.923  -0.746  -0.054  0.00  0.00    +0.074 C 
ATOM      5  C   UNL     1      -4.316  -1.283  -1.447  0.00  0.00    -0.049 C 
ATOM      6  C   UNL     1      -5.516   0.707  -1.203  0.00  0.00    +0.050 C 
ATOM      7  C   UNL     1      -4.712   0.584   0.096  0.00  0.00    +0.088 C 
ATOM      8  C   UNL     1      -3.623   1.633   0.126  0.00  0.00    +0.229 C 
ATOM      9  O   UNL     1      -3.804   2.828   0.231  0.00  0.00    -0.275 OA
ATOM     10  C   UNL     1      -4.843   1.624  -2.185  0.00  0.00    -0.026 A 
ATOM     11  C   UNL     1      -3.609   1.617  -2.797  0.00  0.00    +0.008 A 
ATOM     12  C   UNL     1      -3.268   2.626  -3.680  0.00  0.00    -0.049 A 
ATOM     13  C   UNL     1      -4.169   3.641  -3.947  0.00  0.00    +0.025 A 
ATOM     14  C   UNL     1      -5.407   3.652  -3.336  0.00  0.00    +0.063 A 
ATOM     15  C   UNL     1      -5.758   2.640  -2.445  0.00  0.00    +0.054 A 
ATOM     16  N   UNL     1      -6.930   2.434  -1.713  0.00  0.00    -0.285 N 
ATOM     17  C   UNL     1      -6.867   1.320  -0.958  0.00  0.00    +0.211 C 
ATOM     18  O   UNL     1      -7.733   0.894  -0.222  0.00  0.00    -0.277 OA
ATOM     19 CL   UNL     1      -6.530   4.931  -3.679  0.00  0.00    -0.082 Cl
ATOM     20  C   UNL     1      -1.918   2.620  -4.349  0.00  0.00    +0.044 C 
ATOM     21  H   UNL     1      -7.699   3.024  -1.744  0.00  0.00    +0.155 HD
ATOM     22  N   UNL     1      -5.607  -0.648  -1.720  0.00  0.00    +0.394 N 
ATOM     23  H   UNL     1      -6.361  -1.158  -1.246  0.00  0.00    -0.083 HD
ATOM     24  H   UNL     1      -5.788  -0.631  -2.730  0.00  0.00    -0.083 HD
ENDROOT
BRANCH   1  28
ATOM     25  C   UNL     1       1.159   3.161   0.016  0.00  0.00    -0.047 A 
ATOM     26  C   UNL     1       0.376   3.131   1.155  0.00  0.00    +0.005 A 
ATOM     27  C   UNL     1      -0.816   2.432   1.158  0.00  0.00    +0.024 A 
ATOM     28  C   UNL     1      -1.224   1.754   0.017  0.00  0.00    +0.044 A 
ATOM     29  C   UNL     1      -0.438   1.790  -1.127  0.00  0.00    +0.024 A 
ATOM     30  C   UNL     1       0.752   2.491  -1.124  0.00  0.00    +0.005 A 
BRANCH  25  31
ATOM     31  C   UNL     1       2.458   3.925   0.016  0.00  0.00    +0.035 C 
BRANCH  31  32
ATOM     32  C   UNL     1       3.592   3.001   0.462  0.00  0.00    +0.004 C 
BRANCH  32  34
ATOM     33  C   UNL     1       6.046   2.852   0.909  0.00  0.00    +0.004 C 
ATOM     34  C   UNL     1       4.912   3.776   0.462  0.00  0.00    -0.003 C 
ENDBRANCH  32  34
ENDBRANCH  31  32
ENDBRANCH  25  31
ENDBRANCH   1  28
BRANCH   5  35
ATOM     35  C   UNL     1      -4.440  -2.808  -1.415  0.00  0.00    +0.080 C 
BRANCH  35  36
ATOM     36  C   UNL     1      -4.779  -3.314  -2.793  0.00  0.00    +0.209 C 
ATOM     37  O   UNL     1      -4.908  -2.532  -3.711  0.00  0.00    -0.276 OA
ATOM     38  N   UNL     1      -4.938  -4.635  -3.005  0.00  0.00    -0.329 N 
ATOM     39  H   UNL     1      -4.834  -5.261  -2.271  0.00  0.00    +0.145 HD
ATOM     40  H   UNL     1      -5.156  -4.961  -3.893  0.00  0.00    +0.145 HD
ENDBRANCH  35  36
ENDBRANCH   5  35
TORSDOF 6
