REMARK  Name = ZINC20440518
REMARK  7 active torsions:
REMARK  status: ('A' for Active; 'I' for Inactive)
REMARK    1  A    between atoms: C_1  and  N_2
REMARK    2  A    between atoms: C_10  and  N_16
REMARK    3  A    between atoms: C_12  and  S_14
REMARK    4  A    between atoms: S_14  and  C_15
REMARK    5  A    between atoms: N_16  and  C_17
REMARK    6  A    between atoms: C_17  and  C_18
REMARK    7  A    between atoms: C_18  and  O_19
REMARK                            x       y       z     vdW  Elec       q    Type
REMARK                         _______ _______ _______ _____ _____    ______ ____
ROOT
ATOM      1  C   UNL     1       1.047  -8.258  -1.061  0.00  0.00    +0.105 C 
ATOM      2  N   UNL     1       0.757  -6.878  -0.649  0.00  0.00    -0.300 NA
ATOM      3  C   UNL     1      -0.486  -6.395  -1.266  0.00  0.00    +0.089 C 
ATOM      4  C   UNL     1      -0.968  -5.129  -0.554  0.00  0.00    +0.052 C 
ATOM      5  C   UNL     1       0.193  -4.139  -0.499  0.00  0.00    -0.022 A 
ATOM      6  C   UNL     1       1.455  -4.574  -0.698  0.00  0.00    +0.010 A 
ATOM      7  S   UNL     1       2.469  -3.128  -0.553  0.00  0.00    -0.072 S 
ATOM      8  C   UNL     1       1.194  -1.940  -0.224  0.00  0.00    +0.115 A 
ATOM      9  C   UNL     1       0.014  -2.711  -0.239  0.00  0.00    +0.051 A 
ATOM     10  C   UNL     1      -1.191  -1.993   0.003  0.00  0.00    +0.132 A 
ATOM     11  N   UNL     1      -1.135  -0.690   0.219  0.00  0.00    -0.206 NA
ATOM     12  C   UNL     1       0.014  -0.023   0.219  0.00  0.00    +0.191 A 
ATOM     13  N   UNL     1       1.167  -0.639  -0.005  0.00  0.00    -0.215 NA
ATOM     14  C   UNL     1       1.882  -5.982  -0.977  0.00  0.00    +0.126 C 
ENDROOT
BRANCH  12  15
ATOM     15  S   UNL     1       0.005   1.714   0.515  0.00  0.00    -0.089 S 
ATOM     16  C   UNL     1       1.778   2.061   0.400  0.00  0.00    +0.093 C 
ENDBRANCH  12  15
BRANCH  10  17
ATOM     17  N   UNL     1      -2.407  -2.651   0.010  0.00  0.00    -0.326 N 
ATOM     18  H   UNL     1      -2.441  -3.747  -0.079  0.00  0.00    +0.148 HD
BRANCH  17  19
ATOM     19  C   UNL     1      -3.652  -1.888   0.137  0.00  0.00    +0.130 C 
BRANCH  19  20
ATOM     20  C   UNL     1      -4.843  -2.849   0.119  0.00  0.00    +0.174 C 
BRANCH  20  21
ATOM     21  O   UNL     1      -4.795  -3.689   1.273  0.00  0.00    -0.393 OA
ATOM     22  H   UNL     1      -5.574  -4.449   1.433  0.00  0.00    +0.209 HD
ENDBRANCH  20  21
ENDBRANCH  19  20
ENDBRANCH  17  19
ENDBRANCH  10  17
TORSDOF 5
