REMARK  Name = ZINC08551994
REMARK  14 active torsions:
REMARK  status: ('A' for Active; 'I' for Inactive)
REMARK    1  A    between atoms: C_1  and  C_2
REMARK    2  A    between atoms: C_2  and  C_3
REMARK    3  A    between atoms: C_3  and  C_4
REMARK    4  A    between atoms: C_7  and  C_11
REMARK    5  A    between atoms: C_10  and  N_60
REMARK    6  A    between atoms: N_13  and  C_14
REMARK    7  A    between atoms: C_14  and  C_16
REMARK    8  A    between atoms: C_14  and  C_32
REMARK    9  A    between atoms: C_18  and  O_31
REMARK   10  A    between atoms: C_20  and  O_30
REMARK   11  A    between atoms: C_22  and  O_29
REMARK   12  A    between atoms: C_24  and  S_27
REMARK   13  A    between atoms: S_27  and  C_28
REMARK   14  A    between atoms: C_32  and  C_34
REMARK                            x       y       z     vdW  Elec       q    Type
REMARK                         _______ _______ _______ _____ _____    ______ ____
ROOT
ATOM      1  C   UNL     1       0.011   1.072   2.506  0.00  0.00    +0.122 C 
ENDROOT
BRANCH   1   2
ATOM      2  C   UNL     1      -0.772   1.460   3.762  0.00  0.00    +0.172 C 
ATOM      3  C   UNL     1      -0.032   0.954   5.003  0.00  0.00    +0.176 C 
ATOM      4  C   UNL     1       1.339   1.634   5.082  0.00  0.00    +0.177 C 
ATOM      5  C   UNL     1       1.143   3.153   5.101  0.00  0.00    +0.184 C 
ATOM      6  C   UNL     1       0.356   3.574   3.857  0.00  0.00    +0.207 C 
ATOM      7  O   UNL     1      -0.894   2.882   3.828  0.00  0.00    -0.356 OA
BRANCH   6   8
ATOM      8  S   UNL     1       0.057   5.362   3.906  0.00  0.00    -0.131 S 
ATOM      9  C   UNL     1      -0.738   5.718   2.315  0.00  0.00    +0.087 C 
ENDBRANCH   6   8
BRANCH   5  10
ATOM     10  O   UNL     1       0.417   3.527   6.274  0.00  0.00    -0.386 OA
ATOM     11  H   UNL     1       0.253   4.477   6.348  0.00  0.00    +0.210 HD
ENDBRANCH   5  10
BRANCH   4  12
ATOM     12  O   UNL     1       2.008   1.223   6.276  0.00  0.00    -0.386 OA
ATOM     13  H   UNL     1       2.881   1.621   6.394  0.00  0.00    +0.210 HD
ENDBRANCH   4  12
BRANCH   3  14
ATOM     14  O   UNL     1       0.142  -0.462   4.911  0.00  0.00    -0.387 OA
ATOM     15  H   UNL     1       0.606  -0.851   5.665  0.00  0.00    +0.210 HD
ENDBRANCH   3  14
ENDBRANCH   1   2
BRANCH   1  18
ATOM     16  C   UNL     1       1.157  -0.944   1.759  0.00  0.00    +0.200 C 
ATOM     17  O   UNL     1       1.973  -0.239   1.204  0.00  0.00    -0.278 OA
ATOM     18  N   UNL     1       0.136  -0.386   2.439  0.00  0.00    -0.310 N 
ATOM     19  H   UNL     1      -0.517  -0.949   2.883  0.00  0.00    +0.149 HD
BRANCH  16  22
ATOM     20  C   UNL     1       2.527  -4.334   2.505  0.00  0.00    -0.029 C 
ATOM     21  C   UNL     1       1.919  -2.992   2.992  0.00  0.00    -0.005 C 
ATOM     22  C   UNL     1       1.285  -2.444   1.690  0.00  0.00    +0.019 C 
ATOM     23  C   UNL     1       3.001  -4.001   1.074  0.00  0.00    -0.075 C 
ATOM     24  C   UNL     1       1.513  -3.126  -0.630  0.00  0.00    -0.095 C 
ATOM     25  N   UNL     1       2.239  -2.820   0.630  0.00  0.00    +0.386 N 
ATOM     26  H   UNL     1       2.886  -2.040   0.464  0.00  0.00    -0.081 HD
BRANCH  20  27
ATOM     27  C   UNL     1       3.709  -4.744   3.385  0.00  0.00    +0.001 C 
BRANCH  27  29
ATOM     28  C   UNL     1       5.389  -6.537   3.839  0.00  0.00    +0.004 C 
ATOM     29  C   UNL     1       4.207  -6.126   2.959  0.00  0.00    -0.003 C 
ENDBRANCH  27  29
ENDBRANCH  20  27
ENDBRANCH  16  22
ENDBRANCH   1  18
BRANCH   1  30
ATOM     30  C   UNL     1      -0.729   1.579   1.267  0.00  0.00    +0.100 C 
ATOM     31  C   UNL     1      -0.013   1.086   0.008  0.00  0.00    +0.026 C 
ATOM     32 CL   UNL     1      -2.420   0.955   1.280  0.00  0.00    -0.120 Cl
ENDBRANCH   1  30
TORSDOF 10
