REMARK  Name = ZINC06136582
REMARK  4 active torsions:
REMARK  status: ('A' for Active; 'I' for Inactive)
REMARK    1  A    between atoms: C_1  and  O_2
REMARK    2  A    between atoms: O_2  and  C_3
REMARK    3  A    between atoms: C_6  and  C_9
REMARK    4  A    between atoms: C_21  and  C_24
REMARK                            x       y       z     vdW  Elec       q    Type
REMARK                         _______ _______ _______ _____ _____    ______ ____
ROOT
ATOM      1  C   UNL     1       2.834  -3.798   0.655  0.00  0.00    +0.146 C 
ATOM      2  N   UNL     1       2.536  -2.747  -0.046  0.00  0.00    -0.229 NA
ATOM      3  C   UNL     1       1.323  -2.130  -0.060  0.00  0.00    +0.083 A 
ATOM      4  C   UNL     1       1.317  -0.708  -0.086  0.00  0.00    +0.008 A 
ATOM      5  C   UNL     1       2.524   0.010  -0.091  0.00  0.00    +0.010 A 
ATOM      6  C   UNL     1       2.496   1.371  -0.121  0.00  0.00    +0.001 A 
ATOM      7  C   UNL     1       1.287   2.064  -0.144  0.00  0.00    +0.001 A 
ATOM      8  C   UNL     1       0.098   1.400  -0.138  0.00  0.00    +0.008 A 
ATOM      9  C   UNL     1       0.089  -0.006  -0.109  0.00  0.00    -0.016 A 
ATOM     10  C   UNL     1      -1.118  -0.725  -0.104  0.00  0.00    +0.009 A 
ATOM     11  C   UNL     1      -1.098  -2.084  -0.078  0.00  0.00    +0.013 A 
ATOM     12  C   UNL     1       0.108  -2.807  -0.056  0.00  0.00    +0.028 A 
ATOM     13  C   UNL     1       0.009  -4.286  -0.023  0.00  0.00    +0.098 C 
ATOM     14  N   UNL     1       0.795  -5.035   0.675  0.00  0.00    -0.180 NA
ATOM     15  N   UNL     1       1.871  -4.483   1.384  0.00  0.00    -0.220 N 
ATOM     16  H   UNL     1       1.940  -4.575   2.347  0.00  0.00    +0.176 HD
ENDROOT
BRANCH   1  20
ATOM     17  C   UNL     1       6.849  -5.174   0.722  0.00  0.00    +0.120 A 
ATOM     18  C   UNL     1       5.872  -5.849   1.446  0.00  0.00    +0.046 A 
ATOM     19  C   UNL     1       4.569  -5.407   1.428  0.00  0.00    +0.015 A 
ATOM     20  C   UNL     1       4.227  -4.276   0.678  0.00  0.00    +0.017 A 
ATOM     21  C   UNL     1       5.212  -3.603  -0.053  0.00  0.00    +0.015 A 
ATOM     22  C   UNL     1       6.514  -4.050  -0.024  0.00  0.00    +0.046 A 
BRANCH  17  24
ATOM     23  C   UNL     1       9.085  -4.873  -0.022  0.00  0.00    +0.277 C 
ATOM     24  O   UNL     1       8.133  -5.614   0.744  0.00  0.00    -0.495 OA
ENDBRANCH  17  24
ENDBRANCH   1  20
BRANCH  13  25
ATOM     25  C   UNL     1      -1.043  -4.936  -0.834  0.00  0.00    +0.005 A 
ATOM     26  C   UNL     1      -1.505  -6.219  -0.517  0.00  0.00    +0.030 A 
ATOM     27  C   UNL     1      -2.491  -6.786  -1.297  0.00  0.00    +0.111 A 
ATOM     28  N   UNL     1      -2.990  -6.140  -2.334  0.00  0.00    -0.263 NA
ATOM     29  C   UNL     1      -2.579  -4.932  -2.671  0.00  0.00    +0.111 A 
ATOM     30  C   UNL     1      -1.601  -4.288  -1.943  0.00  0.00    +0.030 A 
ENDBRANCH  13  25
TORSDOF 3
