REMARK  Name = ZINC32192959
REMARK  6 active torsions:
REMARK  status: ('A' for Active; 'I' for Inactive)
REMARK    1  A    between atoms: C_1  and  O_2
REMARK    2  A    between atoms: O_2  and  C_3
REMARK    3  A    between atoms: C_5  and  C_12
REMARK    4  A    between atoms: C_8  and  O_9
REMARK    5  A    between atoms: O_9  and  C_10
REMARK    6  A    between atoms: C_23  and  N_28
REMARK                            x       y       z     vdW  Elec       q    Type
REMARK                         _______ _______ _______ _____ _____    ______ ____
ROOT
ATOM      1  C   UNL     1       2.165   0.784   1.086  0.00  0.00    +0.105 C 
ATOM      2  C   UNL     1       1.466   1.578  -0.004  0.00  0.00    +0.029 C 
ATOM      3  C   UNL     1       1.782   1.230  -1.464  0.00  0.00    +0.033 C 
ATOM      4  C   UNL     1       0.476   1.615  -2.162  0.00  0.00    -0.030 C 
ATOM      5  C   UNL     1      -0.534   1.547  -1.304  0.00  0.00    -0.023 C 
ATOM      6  C   UNL     1      -0.013   1.086   0.008  0.00  0.00    +0.049 C 
ATOM      7  C   UNL     1      -0.628   1.531   1.277  0.00  0.00    -0.017 A 
ATOM      8  C   UNL     1      -1.953   1.904   1.365  0.00  0.00    +0.038 A 
ATOM      9  C   UNL     1      -2.487   2.301   2.576  0.00  0.00    +0.127 A 
ATOM     10  C   UNL     1      -1.691   2.326   3.707  0.00  0.00    +0.034 A 
ATOM     11  C   UNL     1      -0.363   1.962   3.628  0.00  0.00    +0.025 A 
ATOM     12  C   UNL     1       0.185   1.566   2.413  0.00  0.00    +0.032 A 
ATOM     13  N   UNL     1       1.540   1.216   2.355  0.00  0.00    -0.336 N 
ATOM     14  H   UNL     1       2.141   1.265   3.275  0.00  0.00    +0.147 HD
ENDROOT
BRANCH   1  17
ATOM     15  C   UNL     1       5.889   0.525   0.506  0.00  0.00    +0.163 A 
ATOM     16  C   UNL     1       4.534   0.233   0.501  0.00  0.00    +0.055 A 
ATOM     17  C   UNL     1       3.638   1.101   1.097  0.00  0.00    -0.022 A 
ATOM     18  C   UNL     1       4.091   2.255   1.708  0.00  0.00    +0.024 A 
ATOM     19  C   UNL     1       5.442   2.550   1.721  0.00  0.00    +0.063 A 
ATOM     20  C   UNL     1       6.346   1.686   1.120  0.00  0.00    +0.175 A 
ATOM     21 BR   UNL     1       6.058   4.130   2.558  0.00  0.00    -0.046 Br
BRANCH  15  23
ATOM     22  C   UNL     1       6.231  -1.499  -0.696  0.00  0.00    +0.277 C 
ATOM     23  O   UNL     1       6.771  -0.326  -0.085  0.00  0.00    -0.491 OA
ENDBRANCH  15  23
BRANCH  20  24
ATOM     24  O   UNL     1       7.675   1.974   1.132  0.00  0.00    -0.490 OA
ATOM     25  C   UNL     1       8.435   1.480   2.237  0.00  0.00    +0.277 C 
ENDBRANCH  20  24
ENDBRANCH   1  17
BRANCH   9  26
ATOM     26  N   UNL     1      -3.910   2.700   2.664  0.00  0.00    +0.056 N 
ATOM     27  O   UNL     1      -4.380   3.051   3.731  0.00  0.00    -0.126 OA
ATOM     28  O   UNL     1      -4.610   2.679   1.668  0.00  0.00    -0.126 OA
ENDBRANCH   9  26
TORSDOF 4
