REMARK  Name = ZINC08917738
REMARK  2 active torsions:
REMARK  status: ('A' for Active; 'I' for Inactive)
REMARK    1  A    between atoms: C_4  and  C_7
REMARK    2  A    between atoms: C_7  and  C_9
REMARK                            x       y       z     vdW  Elec       q    Type
REMARK                         _______ _______ _______ _____ _____    ______ ____
ROOT
ATOM      1  C   UNL     1       0.378   3.030   1.926  0.00  0.00    +0.080 C 
ATOM      2  C   UNL     1      -0.925   2.414   1.419  0.00  0.00    +0.071 C 
ATOM      3  C   UNL     1      -1.900   3.523   1.094  0.00  0.00    -0.012 A 
ATOM      4  C   UNL     1      -1.821   4.640   0.294  0.00  0.00    +0.006 A 
ATOM      5  C   UNL     1      -2.905   5.495   0.179  0.00  0.00    +0.000 A 
ATOM      6  C   UNL     1      -4.066   5.217   0.879  0.00  0.00    +0.002 A 
ATOM      7  C   UNL     1      -4.143   4.110   1.698  0.00  0.00    +0.023 A 
ATOM      8  C   UNL     1      -3.049   3.255   1.825  0.00  0.00    +0.038 A 
ATOM      9  N   UNL     1      -2.873   2.107   2.596  0.00  0.00    -0.285 N 
ATOM     10  C   UNL     1      -1.635   1.584   2.449  0.00  0.00    +0.227 C 
ATOM     11  O   UNL     1      -1.225   0.610   3.049  0.00  0.00    -0.275 OA
ATOM     12  C   UNL     1      -0.585   1.629   0.153  0.00  0.00    -0.046 C 
ATOM     13  C   UNL     1      -1.031   0.156   0.261  0.00  0.00    -0.016 C 
ATOM     14  C   UNL     1       0.168  -0.593  -0.407  0.00  0.00    -0.020 C 
ATOM     15  C   UNL     1       1.341   0.220   0.221  0.00  0.00    -0.076 C 
ATOM     16  C   UNL     1       1.471   2.571   0.948  0.00  0.00    +0.052 C 
ATOM     17  C   UNL     1       1.969   3.782   0.183  0.00  0.00    -0.026 A 
ATOM     18  C   UNL     1       1.412   4.561  -0.805  0.00  0.00    +0.024 A 
ATOM     19  C   UNL     1       2.097   5.667  -1.278  0.00  0.00    +0.041 A 
ATOM     20  C   UNL     1       3.348   5.968  -0.766  0.00  0.00    +0.022 A 
ATOM     21  C   UNL     1       3.928   5.158   0.190  0.00  0.00    +0.025 A 
ATOM     22  C   UNL     1       3.253   4.027   0.647  0.00  0.00    +0.036 A 
ATOM     23  N   UNL     1       3.630   3.039   1.558  0.00  0.00    -0.286 N 
ATOM     24  C   UNL     1       2.691   2.073   1.670  0.00  0.00    +0.212 C 
ATOM     25  O   UNL     1       2.856   1.013   2.235  0.00  0.00    -0.277 OA
ATOM     26 CL   UNL     1       1.384   6.673  -2.499  0.00  0.00    -0.084 Cl
ATOM     27  H   UNL     1      -3.547   1.722   3.176  0.00  0.00    +0.155 HD
ATOM     28  H   UNL     1       4.464   3.037   2.052  0.00  0.00    +0.155 HD
ATOM     29  N   UNL     1       0.861   1.612  -0.006  0.00  0.00    +0.395 N 
ATOM     30  H   UNL     1       1.104   1.897  -0.962  0.00  0.00    -0.079 HD
ENDROOT
BRANCH   1  31
ATOM     31  C   UNL     1       0.691   2.655   3.346  0.00  0.00    +0.167 C 
ATOM     32  O   UNL     1       1.066   1.532   3.608  0.00  0.00    -0.292 OA
BRANCH  31  36
ATOM     33  C   UNL     1       0.262   5.523   6.442  0.00  0.00    +0.000 A 
ATOM     34  C   UNL     1       0.803   4.280   6.725  0.00  0.00    +0.001 A 
ATOM     35  C   UNL     1       0.946   3.343   5.724  0.00  0.00    +0.011 A 
ATOM     36  C   UNL     1       0.542   3.650   4.420  0.00  0.00    +0.018 A 
ATOM     37  C   UNL     1       0.003   4.910   4.142  0.00  0.00    +0.011 A 
ATOM     38  C   UNL     1      -0.139   5.834   5.155  0.00  0.00    +0.001 A 
ENDBRANCH  31  36
ENDBRANCH   1  31
TORSDOF 2
