REMARK  Name = ZINC39355820
REMARK  8 active torsions:
REMARK  status: ('A' for Active; 'I' for Inactive)
REMARK    1  A    between atoms: C_1  and  C_2
REMARK    2  A    between atoms: C_3  and  C_19
REMARK    3  A    between atoms: N_5  and  C_12
REMARK    4  A    between atoms: C_8  and  C_10
REMARK    5  A    between atoms: N_21  and  N_22
REMARK    6  A    between atoms: C_23  and  C_24
REMARK    7  A    between atoms: C_29  and  O_36
REMARK    8  A    between atoms: O_36  and  C_37
REMARK                            x       y       z     vdW  Elec       q    Type
REMARK                         _______ _______ _______ _____ _____    ______ ____
ROOT
ATOM      1  C   UNL     1       1.078  -0.024  -3.014  0.00  0.00    +0.279 C 
ATOM      2  O   UNL     1       1.131   1.190  -3.047  0.00  0.00    -0.267 OA
ATOM      3  N   UNL     1       1.361  -0.741  -4.119  0.00  0.00    -0.202 N 
ATOM      4  H   UNL     1       1.319  -1.710  -4.093  0.00  0.00    +0.178 HD
ENDROOT
BRANCH   1   7
ATOM      5  C   UNL     1       0.173   1.496  -0.855  0.00  0.00    +0.043 C 
ATOM      6  C   UNL     1       0.274  -0.002  -0.724  0.00  0.00    -0.020 C 
ATOM      7  C   UNL     1       0.704  -0.712  -1.764  0.00  0.00    +0.109 C 
ATOM      8  N   UNL     1       0.805  -2.104  -1.683  0.00  0.00    -0.253 N 
ATOM      9  N   UNL     1       0.127  -2.788  -0.665  0.00  0.00    -0.189 N 
ATOM     10  C   UNL     1      -0.334  -2.122   0.407  0.00  0.00    +0.257 C 
ATOM     11  O   UNL     1      -0.943  -2.729   1.263  0.00  0.00    -0.272 OA
ATOM     12  C   UNL     1      -0.109  -0.646   0.576  0.00  0.00    +0.207 C 
ATOM     13  H   UNL     1       1.340  -2.594  -2.327  0.00  0.00    +0.171 HD
BRANCH   9  14
ATOM     14  C   UNL     1      -0.072  -4.170  -0.765  0.00  0.00    +0.056 A 
ATOM     15  C   UNL     1       0.262  -4.999   0.297  0.00  0.00    +0.026 A 
ATOM     16  C   UNL     1       0.065  -6.363   0.195  0.00  0.00    +0.022 A 
ATOM     17  C   UNL     1      -0.464  -6.902  -0.965  0.00  0.00    +0.041 A 
ATOM     18  C   UNL     1      -0.797  -6.077  -2.025  0.00  0.00    +0.022 A 
ATOM     19  C   UNL     1      -0.608  -4.713  -1.925  0.00  0.00    +0.026 A 
ATOM     20 CL   UNL     1      -0.709  -8.616  -1.090  0.00  0.00    -0.084 Cl
ENDBRANCH   9  14
BRANCH  12  21
ATOM     21  C   UNL     1       0.966  -0.426   1.557  0.00  0.00    +0.080 C 
ATOM     22  N   UNL     1       1.796  -0.257   2.314  0.00  0.00    -0.195 NA
ENDBRANCH  12  21
ENDBRANCH   1   7
BRANCH   3  23
ATOM     23  N   UNL     1       1.717  -0.088  -5.306  0.00  0.00    -0.191 NA
ATOM     24  C   UNL     1       2.065  -0.769  -6.333  0.00  0.00    +0.120 C 
BRANCH  24  25
ATOM     25  C   UNL     1       1.946  -2.272  -6.315  0.00  0.00    +0.141 C 
ATOM     26  C   UNL     1       0.979  -2.675  -7.411  0.00  0.00    +0.001 C 
ATOM     27  C   UNL     1       1.441  -3.528  -8.369  0.00  0.00    -0.003 A 
ATOM     28  C   UNL     1       0.573  -3.968  -9.462  0.00  0.00    +0.055 A 
ATOM     29  C   UNL     1       1.077  -4.821 -10.396  0.00  0.00    +0.121 A 
ATOM     30  C   UNL     1       2.398  -5.278 -10.327  0.00  0.00    +0.047 A 
ATOM     31  C   UNL     1       3.250  -4.905  -9.337  0.00  0.00    +0.027 A 
ATOM     32  C   UNL     1       2.827  -4.026  -8.323  0.00  0.00    +0.041 A 
ATOM     33  N   UNL     1       3.674  -3.667  -7.358  0.00  0.00    -0.284 N 
ATOM     34  C   UNL     1       3.343  -2.848  -6.375  0.00  0.00    +0.229 C 
ATOM     35  O   UNL     1       4.161  -2.557  -5.522  0.00  0.00    -0.274 OA
ATOM     36  H   UNL     1       4.575  -4.025  -7.378  0.00  0.00    +0.155 HD
BRANCH  29  37
ATOM     37  O   UNL     1       0.280  -5.237 -11.417  0.00  0.00    -0.495 OA
ATOM     38  C   UNL     1       0.860  -6.132 -12.369  0.00  0.00    +0.277 C 
ENDBRANCH  29  37
ENDBRANCH  24  25
ENDBRANCH   3  23
TORSDOF 6
