REMARK  Name = ZINC39710386
REMARK  10 active torsions:
REMARK  status: ('A' for Active; 'I' for Inactive)
REMARK    1  A    between atoms: C_1  and  C_2
REMARK    2  A    between atoms: C_2  and  C_3
REMARK    3  A    between atoms: C_10  and  C_15
REMARK    4  A    between atoms: C_15  and  C_17
REMARK    5  A    between atoms: C_15  and  N_27
REMARK    6  A    between atoms: N_22  and  C_23
REMARK    7  A    between atoms: C_23  and  C_24
REMARK    8  A    between atoms: C_23  and  C_25
REMARK    9  A    between atoms: C_23  and  C_26
REMARK   10  A    between atoms: C_33  and  C_35
REMARK                            x       y       z     vdW  Elec       q    Type
REMARK                         _______ _______ _______ _____ _____    ______ ____
ROOT
ATOM      1  C   UNL     1       5.448  -2.868  -3.293  0.00  0.00    -0.009 C 
ENDROOT
BRANCH   1   9
ATOM      2  C   UNL     1       6.359   2.887  -2.985  0.00  0.00    -0.047 A 
ATOM      3  C   UNL     1       5.735   2.968  -1.740  0.00  0.00    +0.005 A 
ATOM      4  C   UNL     1       5.002   1.948  -1.220  0.00  0.00    +0.024 A 
ATOM      5  C   UNL     1       4.842   0.747  -1.935  0.00  0.00    +0.040 A 
ATOM      6  N   UNL     1       4.121  -0.246  -1.415  0.00  0.00    -0.285 N 
ATOM      7  C   UNL     1       3.931  -1.400  -2.032  0.00  0.00    +0.223 C 
ATOM      8  O   UNL     1       3.262  -2.270  -1.507  0.00  0.00    -0.275 OA
ATOM      9  C   UNL     1       4.548  -1.634  -3.392  0.00  0.00    +0.088 C 
ATOM     10  C   UNL     1       5.370  -0.508  -3.988  0.00  0.00    -0.006 C 
ATOM     11  C   UNL     1       5.491   0.634  -3.252  0.00  0.00    -0.007 A 
ATOM     12  C   UNL     1       6.261   1.772  -3.755  0.00  0.00    +0.013 A 
ATOM     13  H   UNL     1       3.716  -0.116  -0.543  0.00  0.00    +0.155 HD
BRANCH   2  15
ATOM     14  C   UNL     1       6.236   4.997  -4.283  0.00  0.00    +0.009 C 
ATOM     15  C   UNL     1       7.154   4.064  -3.489  0.00  0.00    +0.032 C 
ENDBRANCH   2  15
ENDBRANCH   1   9
BRANCH   1  16
ATOM     16  N   UNL     1       6.013  -3.169  -4.616  0.00  0.00    +0.387 N 
ATOM     17  C   UNL     1       4.931  -3.223  -5.607  0.00  0.00    -0.059 C 
ATOM     18  C   UNL     1       5.530  -3.423  -7.004  0.00  0.00    +0.089 C 
ATOM     19  N   UNL     1       6.389  -4.617  -6.976  0.00  0.00    -0.299 N 
ATOM     20  C   UNL     1       7.397  -4.721  -5.910  0.00  0.00    +0.089 C 
ATOM     21  C   UNL     1       6.710  -4.460  -4.566  0.00  0.00    -0.059 C 
ATOM     22  C   UNL     1       6.256  -5.588  -7.902  0.00  0.00    +0.282 C 
ATOM     23  O   UNL     1       5.490  -5.438  -8.835  0.00  0.00    -0.267 OA
ATOM     24  H   UNL     1       6.666  -2.445  -4.873  0.00  0.00    -0.081 HD
BRANCH  22  25
ATOM     25  C   UNL     1       7.035  -6.825  -7.784  0.00  0.00    +0.189 A 
ATOM     26  C   UNL     1       7.102  -7.822  -8.714  0.00  0.00    +0.054 A 
ATOM     27  C   UNL     1       7.956  -8.805  -8.190  0.00  0.00    +0.042 A 
ATOM     28  C   UNL     1       8.368  -8.370  -6.979  0.00  0.00    +0.196 A 
ATOM     29  O   UNL     1       7.814  -7.174  -6.740  0.00  0.00    -0.458 OA
ENDBRANCH  22  25
ENDBRANCH   1  16
BRANCH   1  30
ATOM     30  C   UNL     1       6.582  -2.595  -2.304  0.00  0.00    +0.205 C 
ATOM     31  N   UNL     1       7.558  -1.663  -2.887  0.00  0.00    -0.152 NA
ATOM     32  N   UNL     1       8.652  -2.225  -2.959  0.00  0.00    -0.070 NA
ATOM     33  N   UNL     1       8.623  -3.534  -2.477  0.00  0.00    -0.179 N 
ATOM     34  N   UNL     1       7.353  -3.830  -2.049  0.00  0.00    -0.183 NA
ATOM     35  H   UNL     1       9.381  -4.139  -2.449  0.00  0.00    +0.191 HD
BRANCH  34  36
ATOM     36  C   UNL     1       7.343  -4.170  -0.620  0.00  0.00    +0.035 C 
ATOM     37  C   UNL     1       5.897  -4.312  -0.139  0.00  0.00    +0.029 C 
ATOM     38  C   UNL     1       8.083  -5.492  -0.405  0.00  0.00    +0.029 C 
ATOM     39  C   UNL     1       8.038  -3.062   0.174  0.00  0.00    +0.029 C 
ENDBRANCH  34  36
ENDBRANCH   1  30
TORSDOF 6
