REMARK  Name = ZINC01114374
REMARK  4 active torsions:
REMARK  status: ('A' for Active; 'I' for Inactive)
REMARK    1  A    between atoms: C_4  and  N_7
REMARK    2  A    between atoms: C_8  and  S_12
REMARK    3  A    between atoms: S_12  and  C_13
REMARK    4  A    between atoms: C_13  and  C_14
REMARK                            x       y       z     vdW  Elec       q    Type
REMARK                         _______ _______ _______ _____ _____    ______ ____
ROOT
ATOM      1  C   UNL     1       3.030  -5.183   2.888  0.00  0.00    +0.146 A 
ATOM      2  N   UNL     1       2.970  -5.005   4.197  0.00  0.00    -0.199 NA
ATOM      3  C   UNL     1       2.218  -5.808   4.946  0.00  0.00    +0.217 A 
ATOM      4  N   UNL     1       1.527  -6.790   4.377  0.00  0.00    -0.181 NA
ATOM      5  C   UNL     1       1.590  -6.965   3.061  0.00  0.00    +0.227 A 
ATOM      6  N   UNL     1       2.340  -6.155   2.318  0.00  0.00    -0.198 NA
ATOM      7  N   UNL     1       0.874  -7.985   2.465  0.00  0.00    -0.269 N 
ATOM      8  C   UNL     1       0.827  -8.108   1.001  0.00  0.00    +0.114 C 
ATOM      9  C   UNL     1      -0.628  -8.388   0.601  0.00  0.00    +0.024 C 
ATOM     10  C   UNL     1      -1.055  -9.729   1.198  0.00  0.00    +0.038 C 
ATOM     11  C   UNL     1      -0.753  -9.770   2.673  0.00  0.00    -0.026 A 
ATOM     12  C   UNL     1       0.185  -8.922   3.245  0.00  0.00    +0.040 A 
ATOM     13  C   UNL     1       0.447  -8.992   4.609  0.00  0.00    +0.024 A 
ATOM     14  C   UNL     1      -0.224  -9.906   5.396  0.00  0.00    +0.002 A 
ATOM     15  C   UNL     1      -1.157 -10.753   4.826  0.00  0.00    +0.000 A 
ATOM     16  C   UNL     1      -1.427 -10.680   3.470  0.00  0.00    +0.005 A 
ATOM     17  N   UNL     1       2.157  -5.622   6.312  0.00  0.00    -0.327 N 
ATOM     18  H   UNL     1       2.662  -4.905   6.727  0.00  0.00    +0.145 HD
ATOM     19  H   UNL     1       1.609  -6.208   6.857  0.00  0.00    +0.145 HD
ENDROOT
BRANCH   1  20
ATOM     20  C   UNL     1       3.882  -4.271   2.044  0.00  0.00    +0.153 C 
BRANCH  20  21
ATOM     21  S   UNL     1       2.896  -2.846   1.508  0.00  0.00    -0.076 S 
BRANCH  21  23
ATOM     22  N   UNL     1       3.748  -0.715  -0.080  0.00  0.00    -0.187 N 
ATOM     23  C   UNL     1       4.019  -1.889   0.545  0.00  0.00    +0.214 A 
ATOM     24  N   UNL     1       5.278  -2.177   0.295  0.00  0.00    -0.101 NA
ATOM     25  N   UNL     1       5.811  -1.268  -0.439  0.00  0.00    -0.022 NA
ATOM     26  N   UNL     1       4.949  -0.350  -0.714  0.00  0.00    -0.038 NA
BRANCH  22  30
ATOM     27  C   UNL     1       0.130   1.355  -0.126  0.00  0.00    +0.000 A 
ATOM     28  C   UNL     1       1.324   2.052  -0.121  0.00  0.00    +0.002 A 
ATOM     29  C   UNL     1       2.524   1.369  -0.105  0.00  0.00    +0.028 A 
ATOM     30  C   UNL     1       2.531  -0.019  -0.095  0.00  0.00    +0.070 A 
ATOM     31  C   UNL     1       1.331  -0.716  -0.100  0.00  0.00    +0.028 A 
ATOM     32  C   UNL     1       0.134  -0.028  -0.115  0.00  0.00    +0.002 A 
ENDBRANCH  22  30
ENDBRANCH  21  23
ENDBRANCH  20  21
ENDBRANCH   1  20
TORSDOF 4
