REMARK  Name = ZINC38706017
REMARK  15 active torsions:
REMARK  status: ('A' for Active; 'I' for Inactive)
REMARK    1  A    between atoms: C_1  and  C_2
REMARK    2  A    between atoms: C_4  and  C_41
REMARK    3  A    between atoms: C_5  and  C_9
REMARK    4  A    between atoms: C_6  and  O_8
REMARK    5  A    between atoms: N_17  and  C_29
REMARK    6  A    between atoms: C_18  and  C_20
REMARK    7  A    between atoms: C_23  and  C_26
REMARK    8  A    between atoms: C_26  and  C_27
REMARK    9  A    between atoms: C_26  and  C_28
REMARK   10  A    between atoms: C_29  and  C_30
REMARK   11  A    between atoms: C_30  and  C_31
REMARK   12  A    between atoms: C_34  and  O_39
REMARK   13  A    between atoms: C_35  and  O_37
REMARK   14  A    between atoms: O_37  and  C_38
REMARK   15  A    between atoms: O_39  and  C_40
REMARK                            x       y       z     vdW  Elec       q    Type
REMARK                         _______ _______ _______ _____ _____    ______ ____
ROOT
ATOM      1  C   UNL     1       0.104  -4.353  -0.124  0.00  0.00    +0.102 A 
ATOM      2  C   UNL     1       0.198  -5.154   1.019  0.00  0.00    +0.035 A 
ATOM      3  C   UNL     1       0.167  -6.460   0.568  0.00  0.00    +0.126 A 
ATOM      4  N   UNL     1       0.058  -6.389  -0.792  0.00  0.00    -0.272 N 
ATOM      5  H   UNL     1       0.013  -7.153  -1.387  0.00  0.00    +0.189 HD
ATOM      6  N   UNL     1       0.018  -5.159  -1.164  0.00  0.00    -0.173 NA
ATOM      7  C   UNL     1       0.262  -7.356   1.726  0.00  0.00    +0.265 C 
ATOM      8  O   UNL     1       0.262  -8.570   1.666  0.00  0.00    -0.268 OA
ATOM      9  N   UNL     1       0.350  -6.643   2.864  0.00  0.00    -0.285 N 
ATOM     10  C   UNL     1       0.318  -5.216   2.517  0.00  0.00    +0.141 C 
ENDROOT
BRANCH   1  15
ATOM     11  C   UNL     1       0.073   1.408  -0.267  0.00  0.00    +0.044 C 
ATOM     12  C   UNL     1       0.079  -0.099  -0.227  0.00  0.00    -0.047 A 
ATOM     13  C   UNL     1       0.938  -0.806  -1.050  0.00  0.00    +0.007 A 
ATOM     14  C   UNL     1       0.949  -2.186  -1.021  0.00  0.00    -0.037 A 
ATOM     15  C   UNL     1       0.095  -2.870  -0.160  0.00  0.00    +0.047 A 
ATOM     16  C   UNL     1      -0.771  -2.153   0.671  0.00  0.00    +0.127 A 
ATOM     17  C   UNL     1      -0.769  -0.767   0.635  0.00  0.00    +0.049 A 
ATOM     18  C   UNL     1       1.886  -2.951  -1.920  0.00  0.00    +0.044 C 
BRANCH  16  19
ATOM     19  O   UNL     1      -1.608  -2.812   1.514  0.00  0.00    -0.506 OA
ATOM     20  H   UNL     1      -1.264  -2.911   2.412  0.00  0.00    +0.292 HD
ENDBRANCH  16  19
ENDBRANCH   1  15
BRANCH  10  21
ATOM     21  C   UNL     1       1.591  -4.544   2.964  0.00  0.00    -0.022 A 
ATOM     22  C   UNL     1       2.812  -5.137   2.706  0.00  0.00    +0.006 A 
ATOM     23  C   UNL     1       3.980  -4.520   3.116  0.00  0.00    +0.004 A 
ATOM     24  C   UNL     1       3.925  -3.311   3.784  0.00  0.00    -0.045 A 
ATOM     25  C   UNL     1       2.704  -2.718   4.041  0.00  0.00    +0.004 A 
ATOM     26  C   UNL     1       1.536  -3.332   3.627  0.00  0.00    +0.006 A 
BRANCH  24  27
ATOM     27  C   UNL     1       5.198  -2.639   4.231  0.00  0.00    +0.013 C 
ATOM     28  C   UNL     1       5.309  -1.264   3.570  0.00  0.00    +0.012 C 
ATOM     29  C   UNL     1       5.180  -2.474   5.752  0.00  0.00    +0.012 C 
ENDBRANCH  24  27
ENDBRANCH  10  21
BRANCH   9  30
ATOM     30  C   UNL     1       0.459  -7.195   4.216  0.00  0.00    +0.114 C 
BRANCH  30  31
ATOM     31  C   UNL     1       1.934  -7.383   4.574  0.00  0.00    +0.054 C 
BRANCH  31  32
ATOM     32  C   UNL     1       2.046  -7.951   5.965  0.00  0.00    -0.042 A 
ATOM     33  C   UNL     1       2.123  -7.101   7.053  0.00  0.00    +0.007 A 
ATOM     34  C   UNL     1       2.225  -7.618   8.331  0.00  0.00    +0.049 A 
ATOM     35  C   UNL     1       2.250  -8.990   8.524  0.00  0.00    +0.161 A 
ATOM     36  C   UNL     1       2.172  -9.845   7.429  0.00  0.00    +0.162 A 
ATOM     37  C   UNL     1       2.065  -9.321   6.151  0.00  0.00    +0.053 A 
BRANCH  36  38
ATOM     38  O   UNL     1       2.197 -11.192   7.614  0.00  0.00    -0.491 OA
ATOM     39  C   UNL     1       2.113 -12.008   6.444  0.00  0.00    +0.277 C 
ENDBRANCH  36  38
BRANCH  35  40
ATOM     40  O   UNL     1       2.352  -9.499   9.781  0.00  0.00    -0.491 OA
ATOM     41  C   UNL     1       2.428  -8.562  10.857  0.00  0.00    +0.277 C 
ENDBRANCH  35  40
ENDBRANCH  31  32
ENDBRANCH  30  31
ENDBRANCH   9  30
TORSDOF 9
