REMARK  Name = ZINC41512350
REMARK  10 active torsions:
REMARK  status: ('A' for Active; 'I' for Inactive)
REMARK    1  A    between atoms: C_1  and  C_2
REMARK    2  A    between atoms: C_2  and  N_3
REMARK    3  A    between atoms: C_5  and  C_14
REMARK    4  A    between atoms: C_10  and  O_12
REMARK    5  A    between atoms: O_12  and  C_13
REMARK    6  A    between atoms: C_19  and  C_35
REMARK    7  A    between atoms: C_21  and  O_34
REMARK    8  A    between atoms: C_22  and  C_25
REMARK    9  A    between atoms: C_25  and  N_26
REMARK   10  A    between atoms: C_30  and  C_33
REMARK                            x       y       z     vdW  Elec       q    Type
REMARK                         _______ _______ _______ _____ _____    ______ ____
ROOT
ATOM      1  C   UNL     1      -4.364  -1.773   1.678  0.00  0.00    +0.060 C 
ATOM      2  C   UNL     1      -4.104  -1.916   3.008  0.00  0.00    +0.176 C 
ATOM      3  C   UNL     1      -2.901  -1.544   3.663  0.00  0.00    +0.232 C 
ATOM      4  O   UNL     1      -1.909  -1.041   3.161  0.00  0.00    -0.283 OA
ATOM      5  C   UNL     1      -3.108  -1.894   5.079  0.00  0.00    +0.071 A 
ATOM      6  C   UNL     1      -2.316  -1.783   6.222  0.00  0.00    -0.033 A 
ATOM      7  C   UNL     1      -2.798  -2.207   7.428  0.00  0.00    +0.050 A 
ATOM      8  C   UNL     1      -4.077  -2.751   7.519  0.00  0.00    +0.122 A 
ATOM      9  C   UNL     1      -4.875  -2.868   6.393  0.00  0.00    +0.020 A 
ATOM     10  C   UNL     1      -4.399  -2.441   5.160  0.00  0.00    +0.145 A 
ATOM     11  O   UNL     1      -4.953  -2.432   3.929  0.00  0.00    -0.451 OA
ATOM     12  C   UNL     1      -0.931  -1.196   6.127  0.00  0.00    +0.045 C 
ENDROOT
BRANCH   1  15
ATOM     13  N   UNL     1      -1.304  -1.149  -0.209  0.00  0.00    -0.346 N 
ATOM     14  C   UNL     1      -1.981  -1.751   0.799  0.00  0.00    +0.094 A 
ATOM     15  C   UNL     1      -3.301  -1.355   0.767  0.00  0.00    +0.004 A 
ATOM     16  C   UNL     1      -3.426  -0.423  -0.371  0.00  0.00    +0.011 A 
ATOM     17  C   UNL     1      -2.145  -0.331  -0.938  0.00  0.00    +0.050 A 
ATOM     18  C   UNL     1      -1.945   0.491  -2.042  0.00  0.00    +0.030 A 
ATOM     19  C   UNL     1      -2.997   1.208  -2.569  0.00  0.00    +0.047 A 
ATOM     20  C   UNL     1      -4.266   1.119  -2.005  0.00  0.00    +0.121 A 
ATOM     21  C   UNL     1      -4.485   0.300  -0.912  0.00  0.00    +0.056 A 
BRANCH  13  23
ATOM     22  C   UNL     1       0.923  -0.221   0.198  0.00  0.00    +0.027 C 
ATOM     23  C   UNL     1       0.124  -1.334  -0.483  0.00  0.00    +0.118 C 
ENDBRANCH  13  23
BRANCH  20  24
ATOM     24  O   UNL     1      -5.295   1.832  -2.536  0.00  0.00    -0.495 OA
ATOM     25  C   UNL     1      -5.001   2.650  -3.670  0.00  0.00    +0.277 C 
ENDBRANCH  20  24
ENDBRANCH   1  15
BRANCH   8  26
ATOM     26  O   UNL     1      -4.546  -3.170   8.723  0.00  0.00    -0.506 OA
ATOM     27  H   UNL     1      -5.013  -2.487   9.222  0.00  0.00    +0.292 HD
ENDBRANCH   8  26
BRANCH   9  28
ATOM     28  C   UNL     1      -6.256  -3.459   6.505  0.00  0.00    -0.036 C 
BRANCH  28  29
ATOM     29  N   UNL     1      -7.226  -2.389   6.778  0.00  0.00    +0.383 N 
ATOM     30  C   UNL     1      -6.940  -1.796   8.090  0.00  0.00    -0.078 C 
ATOM     31  C   UNL     1      -7.895  -0.628   8.345  0.00  0.00    -0.018 C 
ATOM     32  C   UNL     1      -9.338  -1.140   8.318  0.00  0.00    -0.001 C 
ATOM     33  C   UNL     1      -9.602  -1.823   6.972  0.00  0.00    -0.031 C 
ATOM     34  C   UNL     1      -8.583  -2.946   6.769  0.00  0.00    -0.075 C 
ATOM     35  C   UNL     1     -11.016  -2.406   6.964  0.00  0.00    +0.005 C 
ATOM     36  H   UNL     1      -7.150  -1.678   6.066  0.00  0.00    -0.081 HD
ENDBRANCH  28  29
ENDBRANCH   9  28
TORSDOF 6
