REMARK  Name = ZINC02158652
REMARK  12 active torsions:
REMARK  status: ('A' for Active; 'I' for Inactive)
REMARK    1  A    between atoms: C_1  and  C_2
REMARK    2  A    between atoms: C_6  and  C_30
REMARK    3  A    between atoms: C_7  and  C_29
REMARK    4  A    between atoms: C_10  and  C_28
REMARK    5  A    between atoms: C_15  and  C_16
REMARK    6  A    between atoms: C_16  and  C_17
REMARK    7  A    between atoms: C_17  and  C_18
REMARK    8  A    between atoms: N_20  and  C_21
REMARK    9  A    between atoms: C_21  and  C_23
REMARK   10  A    between atoms: C_21  and  C_26
REMARK   11  A    between atoms: C_23  and  S_24
REMARK   12  A    between atoms: S_24  and  C_25
REMARK                            x       y       z     vdW  Elec       q    Type
REMARK                         _______ _______ _______ _____ _____    ______ ____
ROOT
ATOM      1  C   UNK A   0       4.377  -7.096   0.863  0.00  0.00    +0.045 C 
ATOM      2  C   UNK A   0       3.784  -6.966   2.243  0.00  0.00    -0.030 A 
ATOM      3  C   UNK A   0       4.486  -7.495   3.416  0.00  0.00    +0.022 A 
ATOM      4  C   UNK A   0       5.720  -8.132   3.284  0.00  0.00    +0.024 A 
ATOM      5  C   UNK A   0       6.354  -8.626   4.412  0.00  0.00    +0.029 A 
ATOM      6  C   UNK A   0       7.627  -9.334   4.646  0.00  0.00    +0.031 A 
ATOM      7  C   UNK A   0       7.690  -9.554   5.978  0.00  0.00    +0.111 A 
ATOM      8  O   UNK A   0       6.595  -9.057   6.579  0.00  0.00    -0.459 OA
ATOM      9  C   UNK A   0       5.762  -8.489   5.683  0.00  0.00    +0.142 A 
ATOM     10  C   UNK A   0       4.534  -7.855   5.808  0.00  0.00    +0.035 A 
ATOM     11  C   UNK A   0       3.892  -7.357   4.688  0.00  0.00    +0.146 A 
ATOM     12  O   UNK A   0       2.695  -6.739   4.804  0.00  0.00    -0.422 OA
ATOM     13  C   UNK A   0       2.052  -6.248   3.733  0.00  0.00    +0.341 A 
ATOM     14  O   UNK A   0       0.976  -5.699   3.888  0.00  0.00    -0.245 OA
ATOM     15  C   UNK A   0       2.589  -6.352   2.432  0.00  0.00    +0.041 A 
ATOM     16  C   UNK A   0       3.899  -7.707   7.167  0.00  0.00    +0.051 C 
ATOM     17  C   UNK A   0       8.821 -10.254   6.686  0.00  0.00    +0.087 C 
ENDROOT
BRANCH   6  18
ATOM     18  C   UNK A   0       8.631  -9.726   3.628  0.00  0.00    -0.014 A 
ATOM     19  C   UNK A   0       8.308 -10.668   2.653  0.00  0.00    +0.008 A 
ATOM     20  C   UNK A   0       9.245 -11.024   1.704  0.00  0.00    +0.001 A 
ATOM     21  C   UNK A   0      10.507 -10.458   1.727  0.00  0.00    +0.000 A 
ATOM     22  C   UNK A   0      10.835  -9.526   2.696  0.00  0.00    +0.001 A 
ATOM     23  C   UNK A   0       9.904  -9.158   3.646  0.00  0.00    +0.008 A 
ENDBRANCH   6  18
BRANCH  15  24
ATOM     24  C   UNK A   0       1.834  -5.788   1.256  0.00  0.00    +0.052 C 
BRANCH  24  25
ATOM     25  C   UNK A   0       2.249  -4.332   1.034  0.00  0.00    +0.100 C 
BRANCH  25  26
ATOM     26  C   UNK A   0       1.494  -3.768  -0.142  0.00  0.00    +0.214 C 
ATOM     27  O   UNK A   0       0.702  -4.462  -0.743  0.00  0.00    -0.276 OA
ATOM     28  N   UNK A   1       1.700  -2.492  -0.525  0.00  0.00    -0.302 N 
ATOM     29  H   UNK A   1       2.333  -1.937  -0.044  0.00  0.00    +0.150 HD
BRANCH  28  30
ATOM     30  C   UNK A   1       0.966  -1.944  -1.668  0.00  0.00    +0.196 C 
BRANCH  30  31
ATOM     31  C   UNK A   1       1.690  -2.292  -2.943  0.00  0.00    +0.377 C 
ATOM     32  O   UNK A   1       2.713  -2.932  -2.902  0.00  0.00    -0.244 OA
ATOM     33  O   UNK A   1       1.197  -1.890  -4.126  0.00  0.00    -0.244 OA
ENDBRANCH  30  31
BRANCH  30  34
ATOM     34  C   UNK A   1       0.873  -0.423  -1.533  0.00  0.00    +0.102 C 
BRANCH  34  35
ATOM     35  S   UNK A   1       0.002  -0.004   0.002  0.00  0.00    -0.162 S 
ATOM     36  C   UNK A   1      -0.022   1.810   0.012  0.00  0.00    +0.084 C 
ENDBRANCH  34  35
ENDBRANCH  30  34
ENDBRANCH  28  30
ENDBRANCH  25  26
ENDBRANCH  24  25
ENDBRANCH  15  24
TORSDOF 8
