REMARK  Name = ZINC39189405
REMARK  7 active torsions:
REMARK  status: ('A' for Active; 'I' for Inactive)
REMARK    1  A    between atoms: C_1  and  C_2
REMARK    2  A    between atoms: C_9  and  C_16
REMARK    3  A    between atoms: C_11  and  O_12
REMARK    4  A    between atoms: C_16  and  O_17
REMARK    5  A    between atoms: O_17  and  C_18
REMARK    6  A    between atoms: C_18  and  C_20
REMARK    7  A    between atoms: C_24  and  N_26
REMARK                            x       y       z     vdW  Elec       q    Type
REMARK                         _______ _______ _______ _____ _____    ______ ____
ROOT
ATOM      1  O   UNL     1      -3.421  -6.730  -0.016  0.00  0.00    -0.456 OA
ENDROOT
BRANCH   1   2
ATOM      2  C   UNL     1      -4.593  -7.382  -0.136  0.00  0.00    +0.340 C 
ATOM      3  O   UNL     1      -4.620  -8.596  -0.095  0.00  0.00    -0.245 OA
BRANCH   2   4
ATOM      4  C   UNL     1      -5.846  -6.622  -0.319  0.00  0.00    +0.061 A 
ATOM      5  C   UNL     1      -5.807  -5.235  -0.484  0.00  0.00    +0.015 A 
ATOM      6  C   UNL     1      -6.979  -4.528  -0.654  0.00  0.00    +0.003 A 
ATOM      7  C   UNL     1      -8.195  -5.186  -0.661  0.00  0.00    +0.024 A 
ATOM      8  C   UNL     1      -8.245  -6.565  -0.498  0.00  0.00    +0.045 A 
ATOM      9  C   UNL     1      -7.073  -7.286  -0.333  0.00  0.00    +0.039 A 
BRANCH   8  10
ATOM     10  N   UNL     1      -9.480  -7.227  -0.505  0.00  0.00    -0.202 N 
ATOM     11  C   UNL     1      -9.633  -8.554  -0.349  0.00  0.00    +0.258 C 
ATOM     12  O   UNL     1      -8.737  -9.356  -0.182  0.00  0.00    -0.269 OA
ATOM     13  C   UNL     1     -11.075  -8.873  -0.415  0.00  0.00    +0.050 A 
ATOM     14  C   UNL     1     -11.813 -10.042  -0.322  0.00  0.00    +0.014 A 
ATOM     15  C   UNL     1     -13.194  -9.994  -0.429  0.00  0.00    +0.001 A 
ATOM     16  C   UNL     1     -13.839  -8.788  -0.629  0.00  0.00    +0.001 A 
ATOM     17  C   UNL     1     -13.114  -7.610  -0.725  0.00  0.00    +0.014 A 
ATOM     18  C   UNL     1     -11.733  -7.643  -0.618  0.00  0.00    +0.050 A 
ATOM     19  C   UNL     1     -10.669  -6.618  -0.664  0.00  0.00    +0.258 C 
ATOM     20  O   UNL     1     -10.840  -5.426  -0.821  0.00  0.00    -0.269 OA
ENDBRANCH   8  10
ENDBRANCH   2   4
ENDBRANCH   1   2
BRANCH   1  21
ATOM     21  C   UNL     1      -2.238  -7.529   0.057  0.00  0.00    +0.269 C 
BRANCH  21  30
ATOM     22  C   UNL     1       5.184  -6.617  -4.635  0.00  0.00    +0.109 C 
ATOM     23  C   UNL     1       4.149  -6.603  -3.540  0.00  0.00    +0.214 C 
ATOM     24  O   UNL     1       4.408  -6.096  -2.463  0.00  0.00    -0.276 OA
ATOM     25  N   UNL     1       2.962  -7.139  -3.747  0.00  0.00    -0.286 N 
ATOM     26  C   UNL     1       1.984  -7.012  -2.808  0.00  0.00    +0.037 A 
ATOM     27  C   UNL     1       0.864  -7.862  -2.845  0.00  0.00    +0.024 A 
ATOM     28  C   UNL     1      -0.118  -7.745  -1.914  0.00  0.00    +0.014 A 
ATOM     29  C   UNL     1      -0.017  -6.770  -0.906  0.00  0.00    +0.024 A 
ATOM     30  C   UNL     1      -1.026  -6.633   0.070  0.00  0.00    +0.007 A 
ATOM     31  C   UNL     1      -0.879  -5.660   1.039  0.00  0.00    +0.095 A 
ATOM     32  C   UNL     1       0.243  -4.844   1.035  0.00  0.00    +0.285 A 
ATOM     33  O   UNL     1       1.197  -4.977   0.107  0.00  0.00    -0.425 OA
ATOM     34  C   UNL     1       1.104  -5.912  -0.861  0.00  0.00    +0.141 A 
ATOM     35  C   UNL     1       2.101  -6.043  -1.811  0.00  0.00    +0.070 A 
ATOM     36  H   UNL     1       2.786  -7.625  -4.568  0.00  0.00    +0.155 HD
BRANCH  32  37
ATOM     37  O   UNL     1       0.374  -3.899   1.985  0.00  0.00    -0.480 OA
ATOM     38  H   UNL     1       1.183  -3.375   1.910  0.00  0.00    +0.295 HD
ENDBRANCH  32  37
ENDBRANCH  21  30
ENDBRANCH   1  21
TORSDOF 6
