REMARK  Name = ZINC35891365
REMARK  8 active torsions:
REMARK  status: ('A' for Active; 'I' for Inactive)
REMARK    1  A    between atoms: C_1  and  N_2
REMARK    2  A    between atoms: C_4  and  C_11
REMARK    3  A    between atoms: C_11  and  C_13
REMARK    4  A    between atoms: C_11  and  C_30
REMARK    5  A    between atoms: C_13  and  C_14
REMARK    6  A    between atoms: N_16  and  C_17
REMARK    7  A    between atoms: N_20  and  C_23
REMARK    8  A    between atoms: C_23  and  C_24
REMARK                            x       y       z     vdW  Elec       q    Type
REMARK                         _______ _______ _______ _____ _____    ______ ____
ROOT
ATOM      1  C   UNL     1       1.283  -3.188  -2.608  0.00  0.00    +0.108 C 
ENDROOT
BRANCH   1   2
ATOM      2  C   UNL     1       1.360  -4.426  -3.464  0.00  0.00    +0.214 C 
ATOM      3  O   UNL     1       0.503  -5.280  -3.374  0.00  0.00    -0.276 OA
ATOM      4  N   UNL     1       2.380  -4.585  -4.330  0.00  0.00    -0.313 N 
ATOM      5  H   UNL     1       3.065  -3.902  -4.403  0.00  0.00    +0.149 HD
BRANCH   4   6
ATOM      6  C   UNL     1       2.454  -5.788  -5.163  0.00  0.00    +0.069 C 
ATOM      7  C   UNL     1       3.148  -6.909  -4.383  0.00  0.00    +0.003 C 
ATOM      8  C   UNL     1       3.293  -8.136  -5.284  0.00  0.00    -0.077 C 
ATOM      9  N   UNL     1       4.096  -7.790  -6.463  0.00  0.00    +0.382 N 
ATOM     10  C   UNL     1       3.402  -6.767  -7.255  0.00  0.00    -0.077 C 
ATOM     11  C   UNL     1       3.261  -5.486  -6.429  0.00  0.00    +0.003 C 
ATOM     12  H   UNL     1       4.992  -7.433  -6.166  0.00  0.00    -0.081 HD
BRANCH   9  13
ATOM     13  C   UNL     1       4.298  -8.990  -7.286  0.00  0.00    -0.043 C 
BRANCH  13  14
ATOM     14  C   UNL     1       5.222  -8.664  -8.431  0.00  0.00    -0.064 A 
ATOM     15  C   UNL     1       4.705  -8.206  -9.628  0.00  0.00    +0.002 A 
ATOM     16  C   UNL     1       5.553  -7.907 -10.678  0.00  0.00    +0.000 A 
ATOM     17  C   UNL     1       6.918  -8.066 -10.531  0.00  0.00    +0.000 A 
ATOM     18  C   UNL     1       7.435  -8.523  -9.334  0.00  0.00    +0.000 A 
ATOM     19  C   UNL     1       6.588  -8.818  -8.282  0.00  0.00    +0.002 A 
ENDBRANCH  13  14
ENDBRANCH   9  13
ENDBRANCH   4   6
ENDBRANCH   1   2
BRANCH   1  20
ATOM     20  C   UNL     1       0.039  -3.258  -1.721  0.00  0.00    +0.060 C 
BRANCH  20  24
ATOM     21  C   UNL     1      -0.018   1.461   0.010  0.00  0.00    +0.149 C 
ATOM     22  N   UNL     1       0.002  -0.004   0.002  0.00  0.00    -0.349 N 
ATOM     23  C   UNL     1       0.008  -0.784  -1.122  0.00  0.00    +0.090 A 
ATOM     24  C   UNL     1       0.027  -2.082  -0.779  0.00  0.00    -0.014 A 
ATOM     25  C   UNL     1       0.034  -2.138   0.685  0.00  0.00    +0.004 A 
ATOM     26  C   UNL     1       0.024  -0.801   1.125  0.00  0.00    +0.049 A 
ATOM     27  C   UNL     1       0.032  -0.533   2.489  0.00  0.00    +0.026 A 
ATOM     28  C   UNL     1       0.055  -1.574   3.391  0.00  0.00    +0.002 A 
ATOM     29  C   UNL     1       0.069  -2.891   2.952  0.00  0.00    +0.001 A 
ATOM     30  C   UNL     1       0.051  -3.177   1.616  0.00  0.00    +0.010 A 
ENDBRANCH  20  24
BRANCH  20  31
ATOM     31  C   UNL     1      -1.196  -3.222  -2.585  0.00  0.00    -0.039 A 
ATOM     32  C   UNL     1      -1.429  -2.140  -3.412  0.00  0.00    +0.005 A 
ATOM     33  C   UNL     1      -2.562  -2.106  -4.204  0.00  0.00    +0.020 A 
ATOM     34  C   UNL     1      -3.462  -3.157  -4.169  0.00  0.00    +0.041 A 
ATOM     35  C   UNL     1      -3.227  -4.240  -3.340  0.00  0.00    +0.020 A 
ATOM     36  C   UNL     1      -2.092  -4.274  -2.553  0.00  0.00    +0.005 A 
ATOM     37 CL   UNL     1      -4.884  -3.115  -5.163  0.00  0.00    -0.084 Cl
ENDBRANCH  20  31
ENDBRANCH   1  20
TORSDOF 7
