REMARK  Name = ZINC01604341
REMARK  4 active torsions:
REMARK  status: ('A' for Active; 'I' for Inactive)
REMARK    1  A    between atoms: C_2  and  C_3
REMARK    2  A    between atoms: C_3  and  N_4
REMARK    3  A    between atoms: C_5  and  C_7
REMARK    4  A    between atoms: C_13  and  C_15
REMARK                            x       y       z     vdW  Elec       q    Type
REMARK                         _______ _______ _______ _____ _____    ______ ____
ROOT
ATOM      1  C   UNL     1       2.696   3.548  -0.005  0.00  0.00    +0.089 C 
ATOM      2  C   UNL     1       2.755   5.077   0.003  0.00  0.00    +0.013 C 
ATOM      3  C   UNL     1       2.043   5.621  -1.237  0.00  0.00    +0.001 C 
ATOM      4  C   UNL     1       0.582   5.167  -1.225  0.00  0.00    +0.001 C 
ATOM      5  C   UNL     1       0.522   3.639  -1.233  0.00  0.00    +0.015 C 
ATOM      6  C   UNL     1       1.235   3.094   0.007  0.00  0.00    +0.114 C 
ENDROOT
BRANCH   1   8
ATOM      7  N   UNL     1       4.702   3.286   1.419  0.00  0.00    -0.312 N 
ATOM      8  C   UNL     1       3.398   3.012   1.216  0.00  0.00    +0.217 C 
ATOM      9  O   UNL     1       2.790   2.334   2.017  0.00  0.00    -0.275 OA
ATOM     10  H   UNL     1       5.189   3.829   0.778  0.00  0.00    +0.149 HD
BRANCH   7  11
ATOM     11  C   UNL     1       5.385   2.765   2.606  0.00  0.00    +0.131 C 
BRANCH  11  13
ATOM     12  C   UNL     1       7.317   3.858   3.621  0.00  0.00    +0.005 C 
ATOM     13  C   UNL     1       6.824   3.212   2.594  0.00  0.00    -0.016 C 
ENDBRANCH  11  13
ENDBRANCH   7  11
ENDBRANCH   1   8
BRANCH   6  14
ATOM     14  C   UNL     1       1.177   1.588  -0.001  0.00  0.00    +0.360 C 
ATOM     15  O   UNL     1       2.199   0.944  -0.014  0.00  0.00    -0.246 OA
ATOM     16  O   UNL     1      -0.011   0.963   0.007  0.00  0.00    -0.246 OA
ENDBRANCH   6  14
TORSDOF 4
