REMARK  Name = ZINC39666444
REMARK  10 active torsions:
REMARK  status: ('A' for Active; 'I' for Inactive)
REMARK    1  A    between atoms: C_1  and  C_2
REMARK    2  A    between atoms: C_2  and  C_3
REMARK    3  A    between atoms: C_3  and  C_5
REMARK    4  A    between atoms: C_3  and  C_6
REMARK    5  A    between atoms: C_10  and  C_19
REMARK    6  A    between atoms: N_21  and  C_22
REMARK    7  A    between atoms: C_22  and  C_23
REMARK    8  A    between atoms: C_23  and  C_25
REMARK    9  A    between atoms: C_23  and  O_26
REMARK   10  A    between atoms: O_26  and  C_27
REMARK                            x       y       z     vdW  Elec       q    Type
REMARK                         _______ _______ _______ _____ _____    ______ ____
ROOT
ATOM      1  C   UNL     1       0.639  -2.034   1.285  0.00  0.00    +0.218 C 
ATOM      2  O   UNL     1       0.036  -2.634   0.420  0.00  0.00    -0.275 OA
ATOM      3  N   UNL     1       1.220  -2.712   2.296  0.00  0.00    -0.300 N 
ATOM      4  C   UNL     1       1.986  -2.159   3.437  0.00  0.00    +0.121 C 
ATOM      5  C   UNL     1       1.555  -3.016   4.648  0.00  0.00    +0.100 C 
ATOM      6  C   UNL     1       1.065  -4.340   4.037  0.00  0.00    -0.004 C 
ATOM      7  C   UNL     1       1.230  -4.177   2.519  0.00  0.00    +0.115 C 
ATOM      8  C   UNL     1       1.917  -5.501   4.541  0.00  0.00    -0.010 C 
ATOM      9  C   UNL     1       1.375  -6.813   3.966  0.00  0.00    -0.082 C 
ATOM     10  N   UNL     1      -0.022  -6.990   4.379  0.00  0.00    +0.379 N 
ATOM     11  C   UNL     1      -0.851  -5.919   3.813  0.00  0.00    -0.082 C 
ATOM     12  C   UNL     1      -0.403  -4.569   4.382  0.00  0.00    -0.010 C 
ATOM     13  H   UNL     1      -0.358  -7.883   4.050  0.00  0.00    -0.086 HD
ATOM     14  H   UNL     1      -0.080  -6.962   5.386  0.00  0.00    -0.086 HD
ENDROOT
BRANCH   5  15
ATOM     15  C   UNL     1       0.439  -2.338   5.400  0.00  0.00    +0.218 C 
ATOM     16  O   UNL     1      -0.290  -1.556   4.828  0.00  0.00    -0.275 OA
ATOM     17  N   UNL     1       0.251  -2.601   6.709  0.00  0.00    -0.312 N 
ATOM     18  H   UNL     1       0.834  -3.227   7.166  0.00  0.00    +0.149 HD
BRANCH  17  19
ATOM     19  C   UNL     1      -0.834  -1.942   7.440  0.00  0.00    +0.148 C 
BRANCH  19  20
ATOM     20  C   UNL     1      -0.827  -2.412   8.896  0.00  0.00    +0.187 C 
ATOM     21  C   UNL     1      -1.960  -1.724   9.660  0.00  0.00    +0.053 C 
BRANCH  20  22
ATOM     22  O   UNL     1      -1.014  -3.828   8.940  0.00  0.00    -0.486 OA
BRANCH  22  23
ATOM     23  C   UNL     1      -0.533  -4.481  10.031  0.00  0.00    +0.139 A 
ATOM     24  C   UNL     1       0.003  -3.763  11.090  0.00  0.00    +0.047 A 
ATOM     25  C   UNL     1       0.490  -4.428  12.198  0.00  0.00    +0.004 A 
ATOM     26  C   UNL     1       0.445  -5.809  12.253  0.00  0.00    +0.002 A 
ATOM     27  C   UNL     1      -0.088  -6.528  11.199  0.00  0.00    +0.023 A 
ATOM     28  C   UNL     1      -0.583  -5.867  10.091  0.00  0.00    +0.083 A 
ATOM     29 CL   UNL     1      -1.259  -6.769   8.771  0.00  0.00    -0.080 Cl
ENDBRANCH  22  23
ENDBRANCH  20  22
ENDBRANCH  19  20
ENDBRANCH  17  19
ENDBRANCH   5  15
BRANCH   1  30
ATOM     30  C   UNL     1       0.739  -0.532   1.230  0.00  0.00    +0.072 C 
ATOM     31  C   UNL     1       2.211  -0.121   1.153  0.00  0.00    +0.017 C 
BRANCH  30  33
ATOM     32  C   UNL     1      -0.006   1.513   0.002  0.00  0.00    +0.004 C 
ATOM     33  C   UNL     1      -0.000  -0.017  -0.007  0.00  0.00    +0.009 C 
ENDBRANCH  30  33
ENDBRANCH   1  30
TORSDOF 7
