REMARK  Name = ZINC40102138
REMARK  12 active torsions:
REMARK  status: ('A' for Active; 'I' for Inactive)
REMARK    1  A    between atoms: C_2  and  C_3
REMARK    2  A    between atoms: C_3  and  O_4
REMARK    3  A    between atoms: O_4  and  C_5
REMARK    4  A    between atoms: C_9  and  C_11
REMARK    5  A    between atoms: C_11  and  C_13
REMARK    6  A    between atoms: N_17  and  C_28
REMARK    7  A    between atoms: C_18  and  C_20
REMARK    8  A    between atoms: C_28  and  C_29
REMARK    9  A    between atoms: C_29  and  O_30
REMARK   10  A    between atoms: O_30  and  C_31
REMARK   11  A    between atoms: C_31  and  C_32
REMARK   12  A    between atoms: C_32  and  O_33
REMARK                            x       y       z     vdW  Elec       q    Type
REMARK                         _______ _______ _______ _____ _____    ______ ____
ROOT
ATOM      1  C   UNL     1       4.907  -6.527   3.413  0.00  0.00    +0.076 C 
ATOM      2  C   UNL     1       5.158  -7.649   4.127  0.00  0.00    +0.249 C 
ATOM      3  C   UNL     1       6.496  -8.164   3.767  0.00  0.00    +0.288 C 
ATOM      4  O   UNL     1       7.010  -9.160   4.237  0.00  0.00    -0.266 OA
ATOM      5  N   UNL     1       7.061  -7.367   2.842  0.00  0.00    -0.281 N 
ATOM      6  C   UNL     1       6.116  -6.286   2.540  0.00  0.00    +0.146 C 
ATOM      7  O   UNL     1       4.318  -8.209   5.028  0.00  0.00    -0.282 OA
ENDROOT
BRANCH   6   8
ATOM      8  C   UNL     1       6.736  -4.953   2.871  0.00  0.00    -0.004 A 
ATOM      9  C   UNL     1       7.759  -4.877   3.798  0.00  0.00    +0.008 A 
ATOM     10  C   UNL     1       8.328  -3.655   4.102  0.00  0.00    +0.020 A 
ATOM     11  C   UNL     1       7.875  -2.506   3.478  0.00  0.00    +0.042 A 
ATOM     12  C   UNL     1       6.852  -2.581   2.550  0.00  0.00    +0.040 A 
ATOM     13  C   UNL     1       6.286  -3.806   2.242  0.00  0.00    +0.048 A 
ATOM     14 CL   UNL     1       5.006  -3.901   1.073  0.00  0.00    -0.083 Cl
ATOM     15 CL   UNL     1       8.590  -0.971   3.860  0.00  0.00    -0.083 Cl
ENDBRANCH   6   8
BRANCH   1  16
ATOM     16  C   UNL     1       3.693  -5.708   3.470  0.00  0.00    +0.195 C 
ATOM     17  O   UNL     1       3.702  -4.647   4.065  0.00  0.00    -0.287 OA
BRANCH  16  22
ATOM     18  C   UNL     1       0.115  -5.893   2.330  0.00  0.00    +0.122 A 
ATOM     19  C   UNL     1       0.141  -7.045   1.554  0.00  0.00    +0.046 A 
ATOM     20  C   UNL     1       1.316  -7.757   1.403  0.00  0.00    +0.004 A 
ATOM     21  C   UNL     1       2.472  -7.328   2.022  0.00  0.00    +0.012 A 
ATOM     22  C   UNL     1       2.456  -6.171   2.804  0.00  0.00    +0.026 A 
ATOM     23  C   UNL     1       1.270  -5.450   2.951  0.00  0.00    +0.057 A 
BRANCH  18  24
ATOM     24  O   UNL     1      -1.044  -5.198   2.474  0.00  0.00    -0.488 OA
BRANCH  24  25
ATOM     25  C   UNL     1      -2.197  -5.712   1.806  0.00  0.00    +0.256 C 
BRANCH  25  27
ATOM     26  C   UNL     1      -4.175  -4.465   1.100  0.00  0.00    +0.007 C 
ATOM     27  C   UNL     1      -3.378  -4.816   2.079  0.00  0.00    +0.006 C 
ENDBRANCH  25  27
ENDBRANCH  24  25
ENDBRANCH  18  24
ENDBRANCH  16  22
ENDBRANCH   1  16
BRANCH   5  28
ATOM     28  C   UNL     1       8.383  -7.550   2.238  0.00  0.00    +0.137 C 
BRANCH  28  29
ATOM     29  C   UNL     1       8.255  -8.413   0.981  0.00  0.00    +0.179 C 
BRANCH  29  30
ATOM     30  O   UNL     1       7.486  -7.714   0.001  0.00  0.00    -0.376 OA
BRANCH  30  31
ATOM     31  C   UNL     1       7.306  -8.436  -1.220  0.00  0.00    +0.187 C 
BRANCH  31  32
ATOM     32  C   UNL     1       6.472  -7.597  -2.190  0.00  0.00    +0.184 C 
BRANCH  32  33
ATOM     33  O   UNL     1       7.200  -6.421  -2.550  0.00  0.00    -0.393 OA
ATOM     34  H   UNL     1       6.731  -5.841  -3.165  0.00  0.00    +0.209 HD
ENDBRANCH  32  33
ENDBRANCH  31  32
ENDBRANCH  30  31
ENDBRANCH  29  30
ENDBRANCH  28  29
ENDBRANCH   5  28
TORSDOF 12
