REMARK  Name = ZINC20835885
REMARK  9 active torsions:
REMARK  status: ('A' for Active; 'I' for Inactive)
REMARK    1  A    between atoms: C_1  and  C_2
REMARK    2  A    between atoms: C_2  and  C_30
REMARK    3  A    between atoms: N_3  and  N_4
REMARK    4  A    between atoms: C_7  and  S_10
REMARK    5  A    between atoms: S_10  and  C_11
REMARK    6  A    between atoms: C_11  and  C_12
REMARK    7  A    between atoms: N_14  and  C_15
REMARK    8  A    between atoms: C_18  and  S_21
REMARK    9  A    between atoms: S_21  and  N_24
REMARK                            x       y       z     vdW  Elec       q    Type
REMARK                         _______ _______ _______ _____ _____    ______ ____
ROOT
ATOM      1  C   UNL     1       5.182   2.506  -0.032  0.00  0.00    +0.227 C 
ATOM      2  O   UNL     1       5.561   1.355  -0.033  0.00  0.00    -0.275 OA
ATOM      3  N   UNL     1       6.079   3.512  -0.037  0.00  0.00    -0.285 N 
ATOM      4  H   UNL     1       5.737   4.554  -0.113  0.00  0.00    +0.155 HD
ENDROOT
BRANCH   3   5
ATOM      5  C   UNL     1       7.447   3.229   0.055  0.00  0.00    +0.034 A 
ATOM      6  C   UNL     1       8.291   4.091   0.743  0.00  0.00    +0.025 A 
ATOM      7  C   UNL     1       9.639   3.806   0.837  0.00  0.00    +0.030 A 
ATOM      8  C   UNL     1      10.150   2.670   0.236  0.00  0.00    +0.106 A 
ATOM      9  C   UNL     1       9.314   1.813  -0.455  0.00  0.00    +0.030 A 
ATOM     10  C   UNL     1       7.963   2.090  -0.547  0.00  0.00    +0.025 A 
BRANCH   8  11
ATOM     11  S   UNL     1      11.872   2.314   0.352  0.00  0.00    +0.061 S 
ATOM     12  O   UNL     1      12.348   2.983   1.512  0.00  0.00    -0.153 OA
ATOM     13  O   UNL     1      12.010   0.912   0.170  0.00  0.00    -0.153 OA
BRANCH  11  14
ATOM     14  N   UNL     1      12.609   3.034  -0.945  0.00  0.00    -0.172 NA
ATOM     15  C   UNL     1      12.781   2.313  -2.216  0.00  0.00    +0.137 C 
ATOM     16  C   UNL     1      12.254   3.207  -3.349  0.00  0.00    +0.177 C 
ATOM     17  O   UNL     1      12.875   4.492  -3.260  0.00  0.00    -0.377 OA
ATOM     18  C   UNL     1      12.579   5.203  -2.056  0.00  0.00    +0.177 C 
ATOM     19  C   UNL     1      13.117   4.413  -0.858  0.00  0.00    +0.137 C 
ENDBRANCH  11  14
ENDBRANCH   8  11
ENDBRANCH   3   5
BRANCH   1  20
ATOM     20  C   UNL     1       3.706   2.813  -0.025  0.00  0.00    +0.173 C 
BRANCH  20  21
ATOM     21  S   UNL     1       2.766   1.262  -0.019  0.00  0.00    -0.075 S 
BRANCH  21  25
ATOM     22  N   UNL     1      -2.442   1.309  -0.007  0.00  0.00    -0.205 N 
ATOM     23  C   UNL     1      -1.129   1.755  -0.007  0.00  0.00    +0.232 A 
ATOM     24  N   UNL     1      -0.011   0.967  -0.006  0.00  0.00    -0.186 NA
ATOM     25  C   UNL     1       1.083   1.784  -0.012  0.00  0.00    +0.211 A 
ATOM     26  N   UNL     1       0.661   3.026  -0.010  0.00  0.00    -0.144 NA
ATOM     27  N   UNL     1      -0.740   3.008  -0.003  0.00  0.00    -0.245 N 
ATOM     28  H   UNL     1      -2.656   0.230  -0.007  0.00  0.00    +0.177 HD
ATOM     29  H   UNL     1      -1.487   3.815   0.004  0.00  0.00    +0.192 HD
BRANCH  22  32
ATOM     30  C   UNL     1      -5.021   0.336  -0.008  0.00  0.00    +0.068 C 
ATOM     31  C   UNL     1      -4.727   1.814  -0.008  0.00  0.00    +0.070 C 
ATOM     32  N   UNL     1      -3.495   2.232  -0.008  0.00  0.00    -0.184 NA
BRANCH  31  33
ATOM     33  C   UNL     1      -5.830   2.780  -0.009  0.00  0.00    +0.035 A 
ATOM     34  C   UNL     1      -5.779   4.163  -0.010  0.00  0.00    +0.017 A 
ATOM     35  C   UNL     1      -6.965   4.862  -0.011  0.00  0.00    +0.008 A 
ATOM     36  C   UNL     1      -8.138   4.179  -0.011  0.00  0.00    +0.046 A 
ATOM     37  S   UNL     1      -7.590   2.480  -0.018  0.00  0.00    -0.095 S 
ENDBRANCH  31  33
ENDBRANCH  22  32
ENDBRANCH  21  25
ENDBRANCH  20  21
ENDBRANCH   1  20
TORSDOF 8
