REMARK  Name = ZINC14943504
REMARK  11 active torsions:
REMARK  status: ('A' for Active; 'I' for Inactive)
REMARK    1  A    between atoms: C_1  and  C_2
REMARK    2  A    between atoms: C_7  and  C_17
REMARK    3  A    between atoms: C_20  and  O_25
REMARK    4  A    between atoms: C_21  and  O_23
REMARK    5  A    between atoms: O_23  and  C_24
REMARK    6  A    between atoms: O_25  and  C_26
REMARK    7  A    between atoms: C_26  and  C_27
REMARK    8  A    between atoms: C_26  and  C_28
REMARK    9  A    between atoms: C_31  and  C_33
REMARK   10  A    between atoms: C_33  and  O_35
REMARK   11  A    between atoms: O_35  and  C_36
REMARK                            x       y       z     vdW  Elec       q    Type
REMARK                         _______ _______ _______ _____ _____    ______ ____
ROOT
ATOM      1  C   UNL     1       2.942   6.653   2.825  0.00  0.00    +0.009 C 
ATOM      2  C   UNL     1       3.786   7.114   1.635  0.00  0.00    +0.013 C 
ATOM      3  C   UNL     1       3.102   8.289   0.939  0.00  0.00    +0.055 C 
ATOM      4  C   UNL     1       1.729   7.870   0.438  0.00  0.00    +0.017 C 
ATOM      5  C   UNL     1       1.504   6.605   0.045  0.00  0.00    +0.037 C 
ATOM      6  C   UNL     1       0.195   6.058  -0.474  0.00  0.00    +0.136 C 
ATOM      7  N   UNL     1      -0.795   7.069  -0.777  0.00  0.00    -0.331 N 
ATOM      8  C   UNL     1      -1.331   7.870   0.224  0.00  0.00    +0.049 A 
ATOM      9  C   UNL     1      -2.664   7.769   0.594  0.00  0.00    +0.025 A 
ATOM     10  C   UNL     1      -3.136   8.527   1.651  0.00  0.00    +0.002 A 
ATOM     11  C   UNL     1      -2.289   9.380   2.336  0.00  0.00    +0.002 A 
ATOM     12  C   UNL     1      -0.964   9.501   1.954  0.00  0.00    +0.025 A 
ATOM     13  C   UNL     1      -0.497   8.759   0.884  0.00  0.00    +0.052 A 
ATOM     14  N   UNL     1       0.808   8.867   0.414  0.00  0.00    -0.316 N 
ATOM     15  C   UNL     1       2.543   5.645   0.101  0.00  0.00    +0.177 C 
ATOM     16  O   UNL     1       2.317   4.513  -0.280  0.00  0.00    -0.291 OA
ATOM     17  C   UNL     1       3.912   5.977   0.614  0.00  0.00    +0.171 C 
ATOM     18  H   UNL     1      -1.091   7.189  -1.693  0.00  0.00    +0.147 HD
ATOM     19  H   UNL     1       1.081   9.720   0.041  0.00  0.00    +0.152 HD
ENDROOT
BRANCH   6  20
ATOM     20  C   UNL     1      -0.377   5.124   0.562  0.00  0.00    -0.019 A 
ATOM     21  C   UNL     1      -0.745   5.612   1.802  0.00  0.00    +0.009 A 
ATOM     22  C   UNL     1      -1.270   4.760   2.755  0.00  0.00    +0.050 A 
ATOM     23  C   UNL     1      -1.434   3.414   2.467  0.00  0.00    +0.162 A 
ATOM     24  C   UNL     1      -1.058   2.922   1.221  0.00  0.00    +0.162 A 
ATOM     25  C   UNL     1      -0.532   3.782   0.270  0.00  0.00    +0.055 A 
BRANCH  24  26
ATOM     26  O   UNL     1      -1.211   1.602   0.935  0.00  0.00    -0.491 OA
ATOM     27  C   UNL     1      -0.809   1.169  -0.366  0.00  0.00    +0.277 C 
ENDBRANCH  24  26
BRANCH  23  28
ATOM     28  O   UNL     1      -1.955   2.575   3.402  0.00  0.00    -0.486 OA
BRANCH  28  29
ATOM     29  C   UNL     1      -2.427   3.167   4.614  0.00  0.00    +0.167 C 
ATOM     30  C   UNL     1      -3.493   2.267   5.240  0.00  0.00    +0.051 C 
ATOM     31  C   UNL     1      -1.259   3.331   5.589  0.00  0.00    +0.051 C 
ENDBRANCH  28  29
ENDBRANCH  23  28
ENDBRANCH   6  20
BRANCH  17  32
ATOM     32  C   UNL     1       4.512   4.764   1.278  0.00  0.00    +0.318 C 
ATOM     33  O   UNL     1       4.809   4.801   2.448  0.00  0.00    -0.250 OA
BRANCH  32  34
ATOM     34  O   UNL     1       4.715   3.643   0.569  0.00  0.00    -0.467 OA
ATOM     35  C   UNL     1       5.297   2.514   1.273  0.00  0.00    +0.280 C 
ENDBRANCH  32  34
ENDBRANCH  17  32
TORSDOF 6
