REMARK  Name = ZINC66337260
REMARK  8 active torsions:
REMARK  status: ('A' for Active; 'I' for Inactive)
REMARK    1  A    between atoms: C_1  and  C_2
REMARK    2  A    between atoms: C_2  and  C_4
REMARK    3  A    between atoms: C_2  and  N_21
REMARK    4  A    between atoms: C_4  and  C_5
REMARK    5  A    between atoms: N_7  and  C_8
REMARK    6  A    between atoms: C_8  and  C_10
REMARK    7  A    between atoms: C_8  and  C_11
REMARK    8  A    between atoms: C_22  and  C_24
REMARK                            x       y       z     vdW  Elec       q    Type
REMARK                         _______ _______ _______ _____ _____    ______ ____
ROOT
ATOM      1  C   UNL     1      -1.414  -2.036   0.129  0.00  0.00    +0.215 C 
ATOM      2  O   UNL     1      -0.356  -2.625   0.196  0.00  0.00    -0.276 OA
ATOM      3  N   UNL     1      -2.572  -2.725   0.157  0.00  0.00    -0.309 N 
ATOM      4  H   UNL     1      -3.418  -2.254   0.104  0.00  0.00    +0.149 HD
ENDROOT
BRANCH   3   5
ATOM      5  C   UNL     1      -2.552  -4.186   0.270  0.00  0.00    +0.100 C 
ATOM      6  C   UNL     1      -2.450  -4.582   1.744  0.00  0.00    +0.033 C 
BRANCH   5   7
ATOM      7  C   UNL     1      -3.821  -4.751  -0.316  0.00  0.00    -0.027 A 
ATOM      8  C   UNL     1      -5.028  -4.112  -0.102  0.00  0.00    +0.007 A 
ATOM      9  C   UNL     1      -6.193  -4.624  -0.634  0.00  0.00    +0.024 A 
ATOM     10  C   UNL     1      -6.160  -5.792  -1.394  0.00  0.00    +0.037 A 
ATOM     11  C   UNL     1      -4.941  -6.425  -1.603  0.00  0.00    -0.017 A 
ATOM     12  C   UNL     1      -3.779  -5.908  -1.073  0.00  0.00    +0.011 A 
ATOM     13  C   UNL     1      -5.232  -7.642  -2.450  0.00  0.00    +0.133 C 
ATOM     14  C   UNL     1      -6.730  -7.588  -2.668  0.00  0.00    +0.222 C 
ATOM     15  O   UNL     1      -7.394  -8.381  -3.301  0.00  0.00    -0.275 OA
ATOM     16  N   UNL     1      -7.184  -6.497  -2.029  0.00  0.00    -0.285 N 
ATOM     17  H   UNL     1      -8.116  -6.229  -2.011  0.00  0.00    +0.155 HD
ENDBRANCH   5   7
ENDBRANCH   3   5
BRANCH   1  18
ATOM     18  C   UNL     1      -1.433  -0.534   0.013  0.00  0.00    +0.117 C 
BRANCH  18  20
ATOM     19  C   UNL     1      -0.019   1.526   0.010  0.00  0.00    +0.028 C 
ATOM     20  C   UNL     1       0.002  -0.004   0.002  0.00  0.00    +0.079 C 
BRANCH  20  21
ATOM     21  N   UNL     1       0.688  -0.476  -1.203  0.00  0.00    -0.312 N 
ATOM     22  C   UNL     1       2.031  -0.587  -1.215  0.00  0.00    +0.216 C 
ATOM     23  O   UNL     1       2.672  -0.295  -0.228  0.00  0.00    -0.276 OA
ATOM     24  H   UNL     1       0.175  -0.710  -1.993  0.00  0.00    +0.149 HD
BRANCH  22  25
ATOM     25  C   UNL     1       2.736  -1.073  -2.455  0.00  0.00    +0.075 C 
ATOM     26  C   UNL     1       2.247  -2.480  -2.801  0.00  0.00    +0.013 C 
ATOM     27  C   UNL     1       2.963  -2.974  -4.060  0.00  0.00    +0.001 C 
ATOM     28  C   UNL     1       4.472  -3.006  -3.809  0.00  0.00    +0.000 C 
ATOM     29  C   UNL     1       4.961  -1.599  -3.462  0.00  0.00    +0.001 C 
ATOM     30  C   UNL     1       4.245  -1.105  -2.204  0.00  0.00    +0.013 C 
ENDBRANCH  22  25
ENDBRANCH  20  21
ENDBRANCH  18  20
ENDBRANCH   1  18
TORSDOF 6
