REMARK  Name = ZINC15477098
REMARK  9 active torsions:
REMARK  status: ('A' for Active; 'I' for Inactive)
REMARK    1  A    between atoms: C_3  and  C_6
REMARK    2  A    between atoms: C_6  and  C_8
REMARK    3  A    between atoms: C_6  and  N_55
REMARK    4  A    between atoms: C_8  and  N_9
REMARK    5  A    between atoms: C_10  and  C_12
REMARK    6  A    between atoms: C_12  and  C_13
REMARK    7  A    between atoms: C_13  and  N_14
REMARK    8  A    between atoms: N_14  and  S_15
REMARK    9  A    between atoms: S_15  and  C_18
REMARK                            x       y       z     vdW  Elec       q    Type
REMARK                         _______ _______ _______ _____ _____    ______ ____
ROOT
ATOM      1  N   UNL     1       1.947   1.798  -1.270  0.00  0.00    -0.316 N 
ATOM      2  C   UNL     1       3.064   2.509  -1.519  0.00  0.00    +0.214 C 
ATOM      3  O   UNL     1       3.454   3.328  -0.714  0.00  0.00    -0.276 OA
ATOM      4  H   UNL     1       1.636   1.143  -1.914  0.00  0.00    +0.149 HD
ENDROOT
BRANCH   1   5
ATOM      5  C   UNL     1       1.204   2.013  -0.026  0.00  0.00    +0.096 C 
BRANCH   5   6
ATOM      6  C   UNL     1      -0.013   1.086   0.008  0.00  0.00    +0.016 C 
BRANCH   6  12
ATOM      7  C   UNL     1      -1.224   2.700  -1.328  0.00  0.00    -0.078 C 
ATOM      8  C   UNL     1      -1.937   2.909  -2.666  0.00  0.00    -0.019 C 
ATOM      9  C   UNL     1      -3.166   1.998  -2.732  0.00  0.00    -0.004 C 
ATOM     10  C   UNL     1      -2.724   0.543  -2.548  0.00  0.00    -0.019 C 
ATOM     11  C   UNL     1      -1.988   0.404  -1.213  0.00  0.00    -0.078 C 
ATOM     12  N   UNL     1      -0.803   1.287  -1.224  0.00  0.00    +0.387 N 
ATOM     13  H   UNL     1      -0.220   1.053  -2.036  0.00  0.00    -0.081 HD
ENDBRANCH   6  12
BRANCH   6  16
ATOM     14  C   UNL     1      -1.823   1.285   3.212  0.00  0.00    +0.041 A 
ATOM     15  C   UNL     1      -0.950   0.619   2.322  0.00  0.00    +0.043 A 
ATOM     16  C   UNL     1      -0.844   1.393   1.227  0.00  0.00    +0.093 A 
ATOM     17  O   UNL     1      -1.609   2.482   1.402  0.00  0.00    -0.469 OA
ATOM     18  C   UNL     1      -2.206   2.422   2.604  0.00  0.00    +0.195 A 
ENDBRANCH   6  16
ENDBRANCH   5   6
ENDBRANCH   1   5
BRANCH   2  19
ATOM     19  C   UNL     1       3.829   2.288  -2.799  0.00  0.00    +0.112 C 
BRANCH  19  20
ATOM     20  C   UNL     1       5.046   3.215  -2.833  0.00  0.00    +0.115 C 
BRANCH  20  21
ATOM     21  N   UNL     1       5.789   2.999  -4.077  0.00  0.00    -0.189 NA
ATOM     22  H   UNL     1       5.616   2.211  -4.615  0.00  0.00    +0.148 HD
BRANCH  21  23
ATOM     23  S   UNL     1       6.926   4.101  -4.563  0.00  0.00    +0.058 S 
ATOM     24  O   UNL     1       7.482   3.604  -5.773  0.00  0.00    -0.153 OA
ATOM     25  O   UNL     1       6.314   5.381  -4.476  0.00  0.00    -0.153 OA
BRANCH  23  26
ATOM     26  C   UNL     1       8.219   4.078  -3.367  0.00  0.00    +0.105 A 
ATOM     27  C   UNL     1       8.168   4.928  -2.278  0.00  0.00    +0.029 A 
ATOM     28  C   UNL     1       9.181   4.906  -1.337  0.00  0.00    +0.017 A 
ATOM     29  C   UNL     1      10.250   4.043  -1.491  0.00  0.00    +0.018 A 
ATOM     30  C   UNL     1      10.303   3.197  -2.584  0.00  0.00    +0.017 A 
ATOM     31  C   UNL     1       9.288   3.215  -3.522  0.00  0.00    +0.029 A 
ATOM     32 BR   UNL     1      11.639   4.018  -0.208  0.00  0.00    -0.050 Br
ENDBRANCH  23  26
ENDBRANCH  21  23
ENDBRANCH  20  21
ENDBRANCH  19  20
ENDBRANCH   2  19
TORSDOF 9
