REMARK  Name = ZINC16385180
REMARK  9 active torsions:
REMARK  status: ('A' for Active; 'I' for Inactive)
REMARK    1  A    between atoms: C_3  and  S_18
REMARK    2  A    between atoms: C_4  and  N_8
REMARK    3  A    between atoms: N_8  and  C_9
REMARK    4  A    between atoms: C_15  and  O_17
REMARK    5  A    between atoms: S_18  and  S_19
REMARK    6  A    between atoms: S_19  and  C_20
REMARK    7  A    between atoms: C_25  and  N_26
REMARK    8  A    between atoms: N_26  and  C_27
REMARK    9  A    between atoms: C_33  and  O_35
REMARK                            x       y       z     vdW  Elec       q    Type
REMARK                         _______ _______ _______ _____ _____    ______ ____
ROOT
ATOM      1  S   UNL     1       3.895   2.321  -0.023  0.00  0.00    -0.050 S 
ENDROOT
BRANCH   1   4
ATOM      2  C   UNL     1      -0.017   1.379   0.010  0.00  0.00    +0.021 A 
ATOM      3  C   UNL     1       1.169   2.091   0.002  0.00  0.00    +0.019 A 
ATOM      4  C   UNL     1       2.382   1.417  -0.013  0.00  0.00    +0.040 A 
ATOM      5  C   UNL     1       2.401   0.021  -0.021  0.00  0.00    +0.043 A 
ATOM      6  C   UNL     1       1.208  -0.684  -0.013  0.00  0.00    +0.044 A 
ATOM      7  C   UNL     1       0.002  -0.004   0.002  0.00  0.00    +0.043 A 
ATOM      8 CL   UNL     1      -1.491  -0.890   0.011  0.00  0.00    -0.083 Cl
BRANCH   5   9
ATOM      9  N   UNL     1       3.622  -0.665  -0.036  0.00  0.00    -0.338 N 
ATOM     10  H   UNL     1       4.456  -0.171  -0.042  0.00  0.00    +0.146 HD
BRANCH   9  11
ATOM     11  C   UNL     1       3.639  -2.130  -0.044  0.00  0.00    +0.099 C 
ATOM     12  C   UNL     1       3.533  -2.649   1.391  0.00  0.00    +0.025 C 
ATOM     13  C   UNL     1       4.717  -2.130   2.209  0.00  0.00    +0.002 C 
ATOM     14  C   UNL     1       6.024  -2.621   1.584  0.00  0.00    +0.003 C 
ATOM     15  C   UNL     1       6.129  -2.102   0.149  0.00  0.00    +0.033 C 
ATOM     16  C   UNL     1       4.946  -2.622  -0.670  0.00  0.00    +0.135 C 
BRANCH  16  17
ATOM     17  O   UNL     1       5.044  -2.137  -2.010  0.00  0.00    -0.390 OA
ATOM     18  H   UNL     1       5.850  -2.410  -2.469  0.00  0.00    +0.210 HD
ENDBRANCH  16  17
ENDBRANCH   9  11
ENDBRANCH   5   9
ENDBRANCH   1   4
BRANCH   1  19
ATOM     19  S   UNL     1       3.300   4.283  -0.008  0.00  0.00    -0.050 S 
BRANCH  19  20
ATOM     20  C   UNL     1       3.050   4.639   1.700  0.00  0.00    +0.040 A 
ATOM     21  C   UNL     1       3.274   3.657   2.656  0.00  0.00    +0.019 A 
ATOM     22  C   UNL     1       3.078   3.939   3.995  0.00  0.00    +0.021 A 
ATOM     23  C   UNL     1       2.659   5.198   4.387  0.00  0.00    +0.043 A 
ATOM     24  C   UNL     1       2.434   6.183   3.440  0.00  0.00    +0.044 A 
ATOM     25  C   UNL     1       2.633   5.911   2.096  0.00  0.00    +0.043 A 
ATOM     26 CL   UNL     1       2.414   5.544   6.070  0.00  0.00    -0.083 Cl
BRANCH  25  27
ATOM     27  N   UNL     1       2.411   6.908   1.138  0.00  0.00    -0.338 N 
ATOM     28  H   UNL     1       2.547   6.715   0.197  0.00  0.00    +0.146 HD
BRANCH  27  29
ATOM     29  C   UNL     1       1.972   8.242   1.556  0.00  0.00    +0.099 C 
ATOM     30  C   UNL     1       3.192   9.084   1.935  0.00  0.00    +0.025 C 
ATOM     31  C   UNL     1       2.735  10.477   2.371  0.00  0.00    +0.002 C 
ATOM     32  C   UNL     1       1.987  11.152   1.220  0.00  0.00    +0.003 C 
ATOM     33  C   UNL     1       0.767  10.310   0.841  0.00  0.00    +0.033 C 
ATOM     34  C   UNL     1       1.225   8.917   0.404  0.00  0.00    +0.135 C 
BRANCH  34  35
ATOM     35  O   UNL     1       2.093   9.033  -0.725  0.00  0.00    -0.390 OA
ATOM     36  H   UNL     1       1.684   9.453  -1.494  0.00  0.00    +0.210 HD
ENDBRANCH  34  35
ENDBRANCH  27  29
ENDBRANCH  25  27
ENDBRANCH  19  20
ENDBRANCH   1  19
TORSDOF 9
