REMARK  Name = ZINC12655849
REMARK  6 active torsions:
REMARK  status: ('A' for Active; 'I' for Inactive)
REMARK    1  A    between atoms: C_1  and  C_2
REMARK    2  A    between atoms: C_2  and  O_4
REMARK    3  A    between atoms: O_4  and  C_5
REMARK    4  A    between atoms: C_9  and  C_32
REMARK    5  A    between atoms: C_14  and  C_31
REMARK    6  A    between atoms: N_26  and  N_27
REMARK                            x       y       z     vdW  Elec       q    Type
REMARK                         _______ _______ _______ _____ _____    ______ ____
ROOT
ATOM      1  C   UNL     1      -0.657   3.964  -1.905  0.00  0.00    +0.180 C 
ATOM      2  C   UNL     1       0.665   4.702  -1.696  0.00  0.00    +0.046 C 
ATOM      3  C   UNL     1       1.825   3.710  -1.629  0.00  0.00    +0.015 C 
ATOM      4  C   UNL     1       1.633   2.734  -0.467  0.00  0.00    -0.008 C 
ATOM      5  C   UNL     1       2.768   1.745  -0.386  0.00  0.00    +0.003 C 
ATOM      6  C   UNL     1       3.516   1.538  -1.697  0.00  0.00    +0.005 C 
ATOM      7  C   UNL     1       4.942   1.034  -1.398  0.00  0.00    +0.013 C 
ATOM      8  C   UNL     1       4.910   0.094  -0.216  0.00  0.00    +0.011 C 
ATOM      9  C   UNL     1       3.535  -0.582  -0.087  0.00  0.00    +0.005 C 
ATOM     10  C   UNL     1       2.426   0.404   0.248  0.00  0.00    +0.001 C 
ATOM     11  C   UNL     1       1.147  -0.173  -0.373  0.00  0.00    +0.031 C 
ATOM     12  C   UNL     1       0.061   0.841  -0.491  0.00  0.00    -0.027 C 
ATOM     13  C   UNL     1       0.270   2.121  -0.546  0.00  0.00    -0.064 C 
ATOM     14  C   UNL     1      -0.928   3.039  -0.715  0.00  0.00    +0.075 C 
ATOM     15  C   UNL     1       3.806  -1.648   0.987  0.00  0.00    +0.010 C 
ATOM     16  C   UNL     1       5.240  -2.131   0.635  0.00  0.00    +0.053 C 
ATOM     17  C   UNL     1       5.816  -1.118  -0.346  0.00  0.00    +0.043 C 
ATOM     18  N   UNL     1       6.828  -1.244  -1.110  0.00  0.00    -0.187 NA
ATOM     19  C   UNL     1       5.322   0.815   1.070  0.00  0.00    +0.018 C 
ATOM     20  C   UNL     1       1.686   3.552   0.835  0.00  0.00    +0.016 C 
ENDROOT
BRANCH  18  21
ATOM     21  N   UNL     1       7.562  -2.437  -1.109  0.00  0.00    -0.191 N 
ATOM     22  C   UNL     1       8.632  -2.570  -1.917  0.00  0.00    +0.317 C 
ATOM     23  O   UNL     1       9.270  -3.606  -1.917  0.00  0.00    -0.251 OA
ATOM     24  N   UNL     1       8.996  -1.555  -2.726  0.00  0.00    -0.312 N 
ATOM     25  H   UNL     1       7.300  -3.167  -0.527  0.00  0.00    +0.179 HD
ATOM     26  H   UNL     1       8.488  -0.729  -2.726  0.00  0.00    +0.147 HD
ATOM     27  H   UNL     1       9.767  -1.651  -3.308  0.00  0.00    +0.147 HD
ENDBRANCH  18  21
BRANCH   1  28
ATOM     28  O   UNL     1      -1.736   4.932  -2.019  0.00  0.00    -0.461 OA
BRANCH  28  30
ATOM     29  C   UNL     1      -3.942   5.539  -2.946  0.00  0.00    +0.136 C 
ATOM     30  C   UNL     1      -2.786   4.586  -2.780  0.00  0.00    +0.304 C 
ATOM     31  O   UNL     1      -2.804   3.512  -3.333  0.00  0.00    -0.251 OA
ENDBRANCH  28  30
ENDBRANCH   1  28
TORSDOF 3
