REMARK  Name = ZINC38594370
REMARK  14 active torsions:
REMARK  status: ('A' for Active; 'I' for Inactive)
REMARK    1  A    between atoms: C_1  and  C_2
REMARK    2  A    between atoms: C_2  and  C_3
REMARK    3  A    between atoms: C_3  and  C_4
REMARK    4  A    between atoms: C_4  and  C_5
REMARK    5  A    between atoms: C_5  and  C_6
REMARK    6  A    between atoms: C_6  and  O_7
REMARK    7  A    between atoms: O_7  and  C_8
REMARK    8  A    between atoms: C_11  and  C_16
REMARK    9  A    between atoms: C_13  and  O_14
REMARK   10  A    between atoms: O_14  and  C_15
REMARK   11  A    between atoms: C_22  and  C_40
REMARK   12  A    between atoms: C_24  and  C_39
REMARK   13  A    between atoms: N_31  and  C_32
REMARK   14  A    between atoms: C_32  and  C_33
REMARK                            x       y       z     vdW  Elec       q    Type
REMARK                         _______ _______ _______ _____ _____    ______ ____
ROOT
ATOM      1  C   UNL     1       2.664 -10.137   4.223  0.00  0.00    +0.145 C 
ATOM      2  C   UNL     1       3.736 -10.667   3.328  0.00  0.00    +0.072 A 
ATOM      3  C   UNL     1       5.173 -10.380   3.267  0.00  0.00    +0.199 A 
ATOM      4  O   UNL     1       5.761  -9.735   4.117  0.00  0.00    -0.287 OA
ATOM      5  C   UNL     1       5.843 -10.950   2.071  0.00  0.00    +0.067 A 
ATOM      6  C   UNL     1       7.158 -10.602   1.764  0.00  0.00    -0.036 A 
ATOM      7  C   UNL     1       7.759 -11.132   0.656  0.00  0.00    +0.007 A 
ATOM      8  C   UNL     1       7.064 -12.013  -0.161  0.00  0.00    -0.047 A 
ATOM      9  C   UNL     1       5.766 -12.369   0.128  0.00  0.00    +0.050 A 
ATOM     10  C   UNL     1       5.131 -11.844   1.254  0.00  0.00    +0.140 A 
ATOM     11  O   UNL     1       3.859 -12.215   1.524  0.00  0.00    -0.450 OA
ATOM     12  C   UNL     1       3.157 -11.552   2.464  0.00  0.00    +0.199 A 
ATOM     13  C   UNL     1       1.716 -11.617   2.764  0.00  0.00    +0.283 C 
ATOM     14  O   UNL     1       0.912 -12.310   2.174  0.00  0.00    -0.267 OA
ATOM     15  N   UNL     1       1.419 -10.794   3.793  0.00  0.00    -0.279 N 
ATOM     16  C   UNL     1       7.740 -12.587  -1.380  0.00  0.00    +0.044 C 
ATOM     17  C   UNL     1       7.913  -9.645   2.649  0.00  0.00    +0.044 C 
ENDROOT
BRANCH   1  21
ATOM     18  C   UNL     1       2.324  -5.899   3.768  0.00  0.00    +0.162 A 
ATOM     19  C   UNL     1       1.782  -6.746   2.815  0.00  0.00    +0.050 A 
ATOM     20  C   UNL     1       1.894  -8.116   2.965  0.00  0.00    +0.009 A 
ATOM     21  C   UNL     1       2.545  -8.643   4.064  0.00  0.00    -0.019 A 
ATOM     22  C   UNL     1       3.087  -7.803   5.019  0.00  0.00    +0.055 A 
ATOM     23  C   UNL     1       2.984  -6.429   4.872  0.00  0.00    +0.162 A 
BRANCH  23  24
ATOM     24  O   UNL     1       3.522  -5.601   5.807  0.00  0.00    -0.491 OA
ATOM     25  C   UNL     1       4.185  -6.216   6.913  0.00  0.00    +0.277 C 
ENDBRANCH  23  24
BRANCH  18  26
ATOM     26  O   UNL     1       2.215  -4.551   3.622  0.00  0.00    -0.488 OA
BRANCH  26  27
ATOM     27  C   UNL     1       1.524  -4.077   2.464  0.00  0.00    +0.229 C 
BRANCH  27  28
ATOM     28  C   UNL     1       1.503  -2.548   2.473  0.00  0.00    +0.041 C 
BRANCH  28  29
ATOM     29  C   UNL     1       0.763  -2.041   1.233  0.00  0.00    +0.003 C 
BRANCH  29  30
ATOM     30  C   UNL     1       0.742  -0.511   1.242  0.00  0.00    -0.000 C 
BRANCH  30  32
ATOM     31  C   UNL     1      -0.019   1.526   0.010  0.00  0.00    +0.004 C 
ATOM     32  C   UNL     1       0.002  -0.004   0.002  0.00  0.00    -0.003 C 
ENDBRANCH  30  32
ENDBRANCH  29  30
ENDBRANCH  28  29
ENDBRANCH  27  28
ENDBRANCH  26  27
ENDBRANCH  18  26
ENDBRANCH   1  21
BRANCH  15  33
ATOM     33  C   UNL     1       0.091 -10.590   4.378  0.00  0.00    +0.144 C 
BRANCH  33  34
ATOM     34  C   UNL     1      -0.605  -9.462   3.661  0.00  0.00    -0.030 A 
ATOM     35  C   UNL     1      -0.457  -8.162   4.109  0.00  0.00    +0.005 A 
ATOM     36  C   UNL     1      -1.095  -7.127   3.452  0.00  0.00    +0.000 A 
ATOM     37  C   UNL     1      -1.883  -7.392   2.347  0.00  0.00    +0.000 A 
ATOM     38  C   UNL     1      -2.031  -8.691   1.899  0.00  0.00    +0.000 A 
ATOM     39  C   UNL     1      -1.389  -9.726   2.553  0.00  0.00    +0.005 A 
ENDBRANCH  33  34
ENDBRANCH  15  33
TORSDOF 10
