REMARK  Name = ZINC46669797
REMARK  11 active torsions:
REMARK  status: ('A' for Active; 'I' for Inactive)
REMARK    1  A    between atoms: C_1  and  C_2
REMARK    2  A    between atoms: C_2  and  N_3
REMARK    3  A    between atoms: N_3  and  C_4
REMARK    4  A    between atoms: N_3  and  S_6
REMARK    5  A    between atoms: C_4  and  C_5
REMARK    6  A    between atoms: S_6  and  C_9
REMARK    7  A    between atoms: C_12  and  O_31
REMARK    8  A    between atoms: C_13  and  C_15
REMARK    9  A    between atoms: N_17  and  N_18
REMARK   10  A    between atoms: C_19  and  C_21
REMARK   11  A    between atoms: O_31  and  C_32
REMARK                            x       y       z     vdW  Elec       q    Type
REMARK                         _______ _______ _______ _____ _____    ______ ____
ROOT
ATOM      1  C   UNL     1       1.508   2.343  -6.282  0.00  0.00    +0.264 C 
ATOM      2  O   UNL     1       1.402   3.351  -6.953  0.00  0.00    -0.269 OA
ATOM      3  N   UNL     1       2.550   1.511  -6.475  0.00  0.00    -0.230 N 
ATOM      4  H   UNL     1       2.635   0.707  -5.939  0.00  0.00    +0.173 HD
ENDROOT
BRANCH   1   9
ATOM      5  C   UNL     1      -0.337   0.586  -3.526  0.00  0.00    +0.106 A 
ATOM      6  C   UNL     1      -1.409   1.441  -3.326  0.00  0.00    +0.032 A 
ATOM      7  C   UNL     1      -1.537   2.588  -4.083  0.00  0.00    +0.048 A 
ATOM      8  C   UNL     1      -0.591   2.892  -5.051  0.00  0.00    +0.132 A 
ATOM      9  C   UNL     1       0.495   2.030  -5.255  0.00  0.00    +0.082 A 
ATOM     10  C   UNL     1       0.615   0.875  -4.479  0.00  0.00    +0.045 A 
BRANCH   5  11
ATOM     11  S   UNL     1      -0.188  -0.875  -2.551  0.00  0.00    +0.061 S 
ATOM     12  O   UNL     1       0.610  -1.782  -3.300  0.00  0.00    -0.153 OA
ATOM     13  O   UNL     1      -1.496  -1.201  -2.104  0.00  0.00    -0.153 OA
BRANCH  11  14
ATOM     14  N   UNL     1       0.688  -0.476  -1.203  0.00  0.00    -0.177 NA
BRANCH  14  16
ATOM     15  C   UNL     1      -0.019   1.526   0.010  0.00  0.00    +0.022 C 
ATOM     16  C   UNL     1       0.002  -0.004   0.002  0.00  0.00    +0.106 C 
ENDBRANCH  14  16
BRANCH  14  17
ATOM     17  C   UNL     1       2.148  -0.597  -1.216  0.00  0.00    +0.106 C 
ATOM     18  C   UNL     1       2.553  -1.951  -0.632  0.00  0.00    +0.022 C 
ENDBRANCH  14  17
ENDBRANCH  11  14
ENDBRANCH   5  11
BRANCH   8  19
ATOM     19  O   UNL     1      -0.716   4.019  -5.796  0.00  0.00    -0.494 OA
ATOM     20  C   UNL     1      -1.849   4.849  -5.532  0.00  0.00    +0.277 C 
ENDBRANCH   8  19
ENDBRANCH   1   9
BRANCH   3  21
ATOM     21  N   UNL     1       3.512   1.808  -7.449  0.00  0.00    -0.230 N 
ATOM     22  C   UNL     1       4.555   0.976  -7.643  0.00  0.00    +0.267 C 
ATOM     23  O   UNL     1       4.661  -0.033  -6.971  0.00  0.00    -0.268 OA
ATOM     24  H   UNL     1       3.428   2.612  -7.985  0.00  0.00    +0.173 HD
BRANCH  22  25
ATOM     25  C   UNL     1       5.561   1.287  -8.662  0.00  0.00    +0.076 A 
ATOM     26  C   UNL     1       6.689   0.575  -9.020  0.00  0.00    +0.024 A 
ATOM     27  C   UNL     1       7.479   1.109 -10.034  0.00  0.00    -0.036 A 
ATOM     28  C   UNL     1       7.061   2.284 -10.572  0.00  0.00    -0.006 A 
ATOM     29  S   UNL     1       5.646   2.680  -9.771  0.00  0.00    -0.088 S 
ATOM     30  C   UNL     1       7.716   3.080 -11.662  0.00  0.00    +0.043 C 
ATOM     31  C   UNL     1       8.496   2.138 -12.585  0.00  0.00    +0.005 C 
ATOM     32  C   UNL     1       9.913   1.987 -12.041  0.00  0.00    +0.001 C 
ATOM     33  C   UNL     1       9.890   1.388 -10.638  0.00  0.00    +0.005 C 
ATOM     34  C   UNL     1       8.742   0.394 -10.502  0.00  0.00    +0.036 C 
ENDBRANCH  22  25
ENDBRANCH   3  21
TORSDOF 8
