REMARK  Name = ZINC28057431
REMARK  3 active torsions:
REMARK  status: ('A' for Active; 'I' for Inactive)
REMARK    1  A    between atoms: C_1  and  C_2
REMARK    2  A    between atoms: C_10  and  C_13
REMARK    3  A    between atoms: C_20  and  C_28
REMARK                            x       y       z     vdW  Elec       q    Type
REMARK                         _______ _______ _______ _____ _____    ______ ____
ROOT
ATOM      1  C   UNL     1      -0.162   1.166  -1.178  0.00  0.00    +0.044 C 
ATOM      2  C   UNL     1      -0.099  -0.314  -0.900  0.00  0.00    -0.050 A 
ATOM      3  C   UNL     1      -0.052  -1.211  -1.952  0.00  0.00    +0.007 A 
ATOM      4  C   UNL     1       0.013  -2.572  -1.713  0.00  0.00    +0.046 A 
ATOM      5  C   UNL     1       0.021  -3.041  -0.412  0.00  0.00    +0.131 A 
ATOM      6  C   UNL     1      -0.033  -2.134   0.654  0.00  0.00    +0.038 A 
ATOM      7  C   UNL     1      -0.094  -0.768   0.405  0.00  0.00    +0.016 A 
ATOM      8  C   UNL     1      -0.027  -2.671   2.036  0.00  0.00    +0.050 C 
ATOM      9  C   UNL     1       0.371  -3.931   2.225  0.00  0.00    +0.026 C 
ATOM     10  C   UNL     1       0.805  -4.754   1.034  0.00  0.00    +0.234 C 
ATOM     11  O   UNL     1       0.083  -4.368  -0.135  0.00  0.00    -0.479 OA
ATOM     12  C   UNL     1       0.408  -4.569   3.592  0.00  0.00    +0.177 C 
ATOM     13  N   UNL     1      -0.313  -3.744   4.551  0.00  0.00    -0.201 N 
ATOM     14  C   UNL     1      -0.701  -2.464   4.307  0.00  0.00    +0.240 A 
ATOM     15  N   UNL     1      -1.305  -2.032   5.377  0.00  0.00    -0.092 NA
ATOM     16  N   UNL     1      -1.332  -2.954   6.278  0.00  0.00    -0.021 NA
ATOM     17  N   UNL     1      -0.748  -4.024   5.845  0.00  0.00    -0.042 NA
ATOM     18  N   UNL     1      -0.444  -1.852   3.092  0.00  0.00    -0.282 N 
ATOM     19  H   UNL     1      -0.555  -0.768   2.937  0.00  0.00    +0.155 HD
ENDROOT
BRANCH  10  20
ATOM     20  C   UNL     1       2.279  -4.546   0.797  0.00  0.00    -0.003 A 
ATOM     21  C   UNL     1       2.730  -3.361   0.247  0.00  0.00    +0.010 A 
ATOM     22  C   UNL     1       4.082  -3.167   0.034  0.00  0.00    +0.039 A 
ATOM     23  C   UNL     1       4.984  -4.165   0.362  0.00  0.00    +0.123 A 
ATOM     24  C   UNL     1       4.530  -5.354   0.909  0.00  0.00    +0.039 A 
ATOM     25  C   UNL     1       3.179  -5.543   1.125  0.00  0.00    +0.010 A 
ATOM     26  F   UNL     1       6.305  -3.979   0.150  0.00  0.00    -0.205 F 
ENDBRANCH  10  20
BRANCH  12  27
ATOM     27  C   UNL     1       1.841  -4.712   4.038  0.00  0.00    +0.017 A 
ATOM     28  C   UNL     1       2.639  -3.591   4.169  0.00  0.00    +0.009 A 
ATOM     29  C   UNL     1       3.953  -3.722   4.578  0.00  0.00    +0.001 A 
ATOM     30  C   UNL     1       4.470  -4.974   4.857  0.00  0.00    +0.003 A 
ATOM     31  C   UNL     1       3.674  -6.096   4.726  0.00  0.00    +0.039 A 
ATOM     32  C   UNL     1       2.356  -5.965   4.322  0.00  0.00    +0.129 A 
ATOM     33  F   UNL     1       1.575  -7.061   4.199  0.00  0.00    -0.205 F 
ENDBRANCH  12  27
TORSDOF 2
