REMARK  Name = ZINC09129169
REMARK  8 active torsions:
REMARK  status: ('A' for Active; 'I' for Inactive)
REMARK    1  A    between atoms: C_1  and  C_2
REMARK    2  A    between atoms: C_2  and  N_61
REMARK    3  A    between atoms: C_15  and  C_17
REMARK    4  A    between atoms: C_18  and  O_35
REMARK    5  A    between atoms: N_23  and  C_26
REMARK    6  A    between atoms: C_27  and  C_34
REMARK    7  A    between atoms: C_29  and  C_33
REMARK    8  A    between atoms: C_31  and  C_32
REMARK                            x       y       z     vdW  Elec       q    Type
REMARK                         _______ _______ _______ _____ _____    ______ ____
ROOT
ATOM      1  C   UNL     1       0.670  -2.030   1.175  0.00  0.00    +0.069 A 
ATOM      2  C   UNL     1       0.046  -2.886   2.033  0.00  0.00    +0.201 A 
ATOM      3  N   UNL     1       0.247  -4.237   1.905  0.00  0.00    -0.278 N 
ATOM      4  H   UNL     1      -0.198  -4.851   2.510  0.00  0.00    +0.173 HD
ATOM      5  C   UNL     1       1.061  -4.717   0.947  0.00  0.00    +0.337 A 
ATOM      6  O   UNL     1       1.232  -5.917   0.851  0.00  0.00    -0.246 OA
ATOM      7  N   UNL     1       1.691  -3.888   0.094  0.00  0.00    -0.228 N 
ATOM      8  C   UNL     1       1.517  -2.554   0.183  0.00  0.00    +0.267 A 
ATOM      9  O   UNL     1       2.089  -1.808  -0.592  0.00  0.00    -0.267 OA
ENDROOT
BRANCH   1  22
ATOM     10  C   UNL     1      -0.018   1.466   0.010  0.00  0.00    -0.073 C 
ATOM     11  C   UNL     1       1.422   1.996  -0.001  0.00  0.00    +0.019 C 
ATOM     12  C   UNL     1       2.195   1.268   1.070  0.00  0.00    -0.022 A 
ATOM     13  C   UNL     1       3.469   1.601   1.668  0.00  0.00    +0.003 A 
ATOM     14  C   UNL     1       4.369   2.652   1.466  0.00  0.00    +0.010 A 
ATOM     15  C   UNL     1       5.508   2.650   2.231  0.00  0.00    +0.001 A 
ATOM     16  C   UNL     1       5.767   1.659   3.164  0.00  0.00    +0.002 A 
ATOM     17  C   UNL     1       4.894   0.608   3.386  0.00  0.00    +0.026 A 
ATOM     18  C   UNL     1       3.729   0.583   2.623  0.00  0.00    +0.047 A 
ATOM     19  N   UNL     1       2.678  -0.288   2.586  0.00  0.00    -0.359 N 
ATOM     20  H   UNL     1       2.592  -1.082   3.137  0.00  0.00    +0.166 HD
ATOM     21  C   UNL     1       1.765   0.127   1.655  0.00  0.00    +0.011 A 
ATOM     22  C   UNL     1       0.460  -0.542   1.293  0.00  0.00    +0.021 C 
ATOM     23  N   UNL     1       0.021  -0.014  -0.021  0.00  0.00    +0.388 N 
ATOM     24  H   UNL     1       0.690  -0.314  -0.740  0.00  0.00    -0.080 HD
BRANCH  23  26
ATOM     25  C   UNL     1      -2.325  -0.202   0.740  0.00  0.00    -0.017 C 
ATOM     26  C   UNL     1      -1.315  -0.546  -0.357  0.00  0.00    -0.081 C 
ENDBRANCH  23  26
ENDBRANCH   1  22
BRANCH   7  27
ATOM     27  C   UNL     1       2.533  -4.415  -0.894  0.00  0.00    +0.060 A 
ATOM     28  C   UNL     1       2.019  -4.753  -2.138  0.00  0.00    -0.026 A 
ATOM     29  C   UNL     1       2.853  -5.268  -3.112  0.00  0.00    +0.008 A 
ATOM     30  C   UNL     1       4.197  -5.457  -2.844  0.00  0.00    -0.050 A 
ATOM     31  C   UNL     1       4.711  -5.125  -1.604  0.00  0.00    +0.008 A 
ATOM     32  C   UNL     1       3.883  -4.605  -0.628  0.00  0.00    -0.026 A 
ATOM     33  C   UNL     1       4.444  -4.244   0.723  0.00  0.00    +0.046 C 
ATOM     34  C   UNL     1       5.103  -6.024  -3.906  0.00  0.00    +0.044 C 
ATOM     35  C   UNL     1       0.554  -4.554  -2.429  0.00  0.00    +0.046 C 
ENDBRANCH   7  27
BRANCH   2  36
ATOM     36  O   UNL     1      -0.768  -2.409   2.999  0.00  0.00    -0.493 OA
ATOM     37  H   UNL     1      -1.163  -3.094   3.555  0.00  0.00    +0.294 HD
ENDBRANCH   2  36
TORSDOF 4
