REMARK  Name = ZINC09811781
REMARK  10 active torsions:
REMARK  status: ('A' for Active; 'I' for Inactive)
REMARK    1  A    between atoms: C_1  and  C_2
REMARK    2  A    between atoms: C_5  and  C_8
REMARK    3  A    between atoms: C_8  and  N_9
REMARK    4  A    between atoms: C_11  and  C_15
REMARK    5  A    between atoms: C_12  and  C_14
REMARK    6  A    between atoms: C_15  and  O_17
REMARK    7  A    between atoms: O_17  and  C_18
REMARK    8  A    between atoms: C_18  and  C_20
REMARK    9  A    between atoms: C_18  and  C_21
REMARK   10  A    between atoms: N_23  and  C_24
REMARK                            x       y       z     vdW  Elec       q    Type
REMARK                         _______ _______ _______ _____ _____    ______ ____
ROOT
ATOM      1  C   UNL     1       7.615  -3.151   5.335  0.00  0.00    +0.345 C 
ATOM      2  O   UNL     1       8.158  -2.134   5.721  0.00  0.00    -0.245 OA
ENDROOT
BRANCH   1   5
ATOM      3  N   UNL     1       8.573  -6.338   6.773  0.00  0.00    -0.248 N 
ATOM      4  C   UNL     1       8.775  -5.354   5.881  0.00  0.00    +0.142 A 
ATOM      5  C   UNL     1       7.787  -4.406   6.083  0.00  0.00    +0.118 A 
ATOM      6  C   UNL     1       6.971  -4.874   7.138  0.00  0.00    +0.075 A 
ATOM      7  N   UNL     1       7.447  -6.020   7.539  0.00  0.00    -0.174 NA
ATOM      8  C   UNL     1       5.763  -4.171   7.702  0.00  0.00    +0.068 C 
ATOM      9 CL   UNL     1      10.042  -5.283   4.697  0.00  0.00    -0.061 Cl
BRANCH   3  10
ATOM     10  C   UNL     1       9.392  -7.545   6.915  0.00  0.00    +0.180 C 
BRANCH  10  15
ATOM     11  C   UNL     1       7.290 -11.710   3.505  0.00  0.00    +0.044 C 
ATOM     12  C   UNL     1       7.838 -10.624   4.395  0.00  0.00    -0.050 A 
ATOM     13  C   UNL     1       8.796  -9.752   3.911  0.00  0.00    +0.004 A 
ATOM     14  C   UNL     1       9.298  -8.756   4.726  0.00  0.00    +0.006 A 
ATOM     15  C   UNL     1       8.844  -8.631   6.026  0.00  0.00    -0.026 A 
ATOM     16  C   UNL     1       7.891  -9.507   6.511  0.00  0.00    +0.006 A 
ATOM     17  C   UNL     1       7.385 -10.501   5.694  0.00  0.00    +0.004 A 
ENDBRANCH  10  15
ENDBRANCH   3  10
ENDBRANCH   1   5
BRANCH   1  18
ATOM     18  O   UNL     1       6.856  -3.128   4.222  0.00  0.00    -0.449 OA
BRANCH  18  19
ATOM     19  C   UNL     1       6.731  -1.854   3.535  0.00  0.00    +0.259 C 
ATOM     20  C   UNL     1       7.847  -1.723   2.497  0.00  0.00    +0.062 C 
BRANCH  19  21
ATOM     21  C   UNL     1       5.393  -1.785   2.846  0.00  0.00    +0.258 C 
ATOM     22  O   UNL     1       4.658  -2.750   2.849  0.00  0.00    -0.271 OA
ATOM     23  N   UNL     1       5.012  -0.650   2.226  0.00  0.00    -0.282 N 
ATOM     24  H   UNL     1       5.629   0.095   2.158  0.00  0.00    +0.155 HD
BRANCH  23  25
ATOM     25  C   UNL     1       3.725  -0.547   1.682  0.00  0.00    +0.037 A 
ATOM     26  C   UNL     1       3.517   0.200   0.530  0.00  0.00    +0.027 A 
ATOM     27  C   UNL     1       2.248   0.303  -0.008  0.00  0.00    +0.051 A 
ATOM     28  C   UNL     1       1.181  -0.339   0.599  0.00  0.00    +0.166 A 
ATOM     29  C   UNL     1       1.387  -1.089   1.755  0.00  0.00    +0.168 A 
ATOM     30  C   UNL     1       2.659  -1.192   2.293  0.00  0.00    +0.072 A 
ATOM     31  O   UNL     1       0.192  -1.614   2.154  0.00  0.00    -0.453 OA
ATOM     32  C   UNL     1      -0.673  -1.515   1.007  0.00  0.00    +0.466 C 
ATOM     33  O   UNL     1      -0.145  -0.394   0.275  0.00  0.00    -0.453 OA
ENDBRANCH  23  25
ENDBRANCH  19  21
ENDBRANCH  18  19
ENDBRANCH   1  18
TORSDOF 7
