REMARK  Name = ZINC27520787
REMARK  9 active torsions:
REMARK  status: ('A' for Active; 'I' for Inactive)
REMARK    1  A    between atoms: C_5  and  C_7
REMARK    2  A    between atoms: N_9  and  C_10
REMARK    3  A    between atoms: C_10  and  C_11
REMARK    4  A    between atoms: C_11  and  C_12
REMARK    5  A    between atoms: C_12  and  C_13
REMARK    6  A    between atoms: C_13  and  C_14
REMARK    7  A    between atoms: C_14  and  C_15
REMARK    8  A    between atoms: N_17  and  N_18
REMARK    9  A    between atoms: C_22  and  N_29
REMARK                            x       y       z     vdW  Elec       q    Type
REMARK                         _______ _______ _______ _____ _____    ______ ____
ROOT
ATOM      1  C   UNL     1      -4.087  -8.996   0.128  0.00  0.00    +0.232 C 
ATOM      2  O   UNL     1      -5.003  -8.250   0.399  0.00  0.00    -0.274 OA
ATOM      3  N   UNL     1      -4.324 -10.305  -0.090  0.00  0.00    -0.206 N 
ATOM      4  H   UNL     1      -3.591 -10.901  -0.307  0.00  0.00    +0.177 HD
ENDROOT
BRANCH   3   5
ATOM      5  N   UNL     1      -5.630 -10.803  -0.001  0.00  0.00    -0.175 NA
ATOM      6  C   UNL     1      -5.848 -12.092  -0.105  0.00  0.00    +0.153 C 
ATOM      7  C   UNL     1      -4.841 -13.178  -0.133  0.00  0.00    +0.030 A 
ATOM      8  C   UNL     1      -3.453 -13.191  -0.063  0.00  0.00    +0.044 A 
ATOM      9  C   UNL     1      -2.776 -14.393  -0.116  0.00  0.00    +0.127 A 
ATOM     10  C   UNL     1      -3.478 -15.580  -0.237  0.00  0.00    +0.034 A 
ATOM     11  C   UNL     1      -4.856 -15.577  -0.307  0.00  0.00    +0.026 A 
ATOM     12  C   UNL     1      -5.556 -14.377  -0.255  0.00  0.00    +0.043 A 
ATOM     13  N   UNL     1      -6.917 -14.098  -0.304  0.00  0.00    -0.280 N 
ATOM     14  C   UNL     1      -7.152 -12.778  -0.214  0.00  0.00    +0.269 C 
ATOM     15  O   UNL     1      -8.245 -12.242  -0.224  0.00  0.00    -0.268 OA
ATOM     16  H   UNL     1      -7.610 -14.772  -0.388  0.00  0.00    +0.155 HD
BRANCH   9  17
ATOM     17  N   UNL     1      -1.297 -14.412  -0.042  0.00  0.00    +0.056 N 
ATOM     18  O   UNL     1      -0.683 -13.376   0.064  0.00  0.00    -0.126 OA
ATOM     19  O   UNL     1      -0.704 -15.464  -0.088  0.00  0.00    -0.126 OA
ENDBRANCH   9  17
ENDBRANCH   3   5
BRANCH   1  20
ATOM     20  C   UNL     1      -2.682  -8.459   0.032  0.00  0.00    +0.097 C 
BRANCH  20  21
ATOM     21  C   UNL     1      -2.689  -6.957   0.321  0.00  0.00    +0.009 C 
BRANCH  21  22
ATOM     22  C   UNL     1      -1.262  -6.412   0.225  0.00  0.00    +0.002 C 
BRANCH  22  23
ATOM     23  C   UNL     1      -1.270  -4.910   0.513  0.00  0.00    +0.019 C 
BRANCH  23  24
ATOM     24  C   UNL     1       0.157  -4.365   0.417  0.00  0.00    +0.104 C 
BRANCH  24  27
ATOM     25  C   UNL     1       1.303  -2.229   0.664  0.00  0.00    +0.245 C 
ATOM     26  O   UNL     1       2.349  -2.793   0.409  0.00  0.00    -0.270 OA
ATOM     27  N   UNL     1       0.150  -2.926   0.693  0.00  0.00    -0.311 N 
ATOM     28  H   UNL     1      -0.684  -2.475   0.897  0.00  0.00    +0.149 HD
BRANCH  25  33
ATOM     29  C   UNL     1       0.097   1.229   1.494  0.00  0.00    +0.001 A 
ATOM     30  C   UNL     1       1.282   1.943   1.465  0.00  0.00    +0.001 A 
ATOM     31  C   UNL     1       2.474   1.304   1.175  0.00  0.00    +0.016 A 
ATOM     32  C   UNL     1       2.489  -0.052   0.914  0.00  0.00    +0.030 A 
ATOM     33  C   UNL     1       1.296  -0.777   0.943  0.00  0.00    +0.051 A 
ATOM     34  C   UNL     1       0.097  -0.125   1.236  0.00  0.00    +0.014 A 
ATOM     35 BR   UNL     1       4.119  -0.923   0.517  0.00  0.00    -0.050 Br
ENDBRANCH  25  33
ENDBRANCH  24  27
ENDBRANCH  23  24
ENDBRANCH  22  23
ENDBRANCH  21  22
ENDBRANCH  20  21
ENDBRANCH   1  20
TORSDOF 9
