REMARK  Name = ZINC21229278
REMARK  11 active torsions:
REMARK  status: ('A' for Active; 'I' for Inactive)
REMARK    1  A    between atoms: C_1  and  C_2
REMARK    2  A    between atoms: C_2  and  C_3
REMARK    3  A    between atoms: C_3  and  C_4
REMARK    4  A    between atoms: C_4  and  C_5
REMARK    5  A    between atoms: C_5  and  N_6
REMARK    6  A    between atoms: C_15  and  S_16
REMARK    7  A    between atoms: S_16  and  C_17
REMARK    8  A    between atoms: C_17  and  C_19
REMARK    9  A    between atoms: C_17  and  C_20
REMARK   10  A    between atoms: N_22  and  C_23
REMARK   11  A    between atoms: C_26  and  C_29
REMARK                            x       y       z     vdW  Elec       q    Type
REMARK                         _______ _______ _______ _____ _____    ______ ____
ROOT
ATOM      1  N   UNL     1       0.308   0.887   2.143  0.00  0.00    -0.287 N 
ATOM      2  C   UNL     1       1.266   1.652   2.699  0.00  0.00    +0.263 A 
ATOM      3  O   UNL     1       1.662   2.655   2.131  0.00  0.00    -0.267 OA
ATOM      4  C   UNL     1       1.812   1.272   3.966  0.00  0.00    +0.076 A 
ATOM      5  C   UNL     1       2.850   1.948   4.746  0.00  0.00    -0.023 A 
ATOM      6  C   UNL     1       3.195   1.387   5.922  0.00  0.00    -0.004 A 
ATOM      7  S   UNL     1       2.175  -0.057   6.060  0.00  0.00    -0.073 S 
ATOM      8  C   UNL     1       1.284   0.099   4.532  0.00  0.00    +0.117 A 
ATOM      9  N   UNL     1       0.338  -0.612   3.932  0.00  0.00    -0.216 NA
ATOM     10  C   UNL     1      -0.151  -0.237   2.767  0.00  0.00    +0.173 A 
ATOM     11  C   UNL     1       4.220   1.880   6.897  0.00  0.00    +0.043 C 
ATOM     12  C   UNL     1       5.095   2.927   6.193  0.00  0.00    +0.005 C 
ATOM     13  C   UNL     1       4.183   3.918   5.464  0.00  0.00    +0.005 C 
ATOM     14  C   UNL     1       3.522   3.232   4.268  0.00  0.00    +0.037 C 
ENDROOT
BRANCH   1  15
ATOM     15  C   UNL     1      -0.256   1.271   0.847  0.00  0.00    +0.127 C 
BRANCH  15  16
ATOM     16  C   UNL     1       0.559   0.626  -0.276  0.00  0.00    +0.022 C 
BRANCH  16  17
ATOM     17  C   UNL     1      -0.030   1.027  -1.629  0.00  0.00    +0.001 C 
BRANCH  17  19
ATOM     18  C   UNL     1       0.196   0.782  -4.106  0.00  0.00    +0.004 C 
ATOM     19  C   UNL     1       0.785   0.381  -2.752  0.00  0.00    -0.003 C 
ENDBRANCH  17  19
ENDBRANCH  16  17
ENDBRANCH  15  16
ENDBRANCH   1  15
BRANCH  10  20
ATOM     20  S   UNL     1      -1.411  -1.202   2.002  0.00  0.00    -0.075 S 
BRANCH  20  21
ATOM     21  C   UNL     1      -1.603  -2.507   3.241  0.00  0.00    +0.137 C 
ATOM     22  C   UNL     1      -2.139  -1.903   4.540  0.00  0.00    +0.029 C 
BRANCH  21  23
ATOM     23  C   UNL     1      -2.571  -3.544   2.732  0.00  0.00    +0.230 C 
ATOM     24  O   UNL     1      -3.346  -3.265   1.842  0.00  0.00    -0.274 OA
ATOM     25  N   UNL     1      -2.576  -4.781   3.266  0.00  0.00    -0.285 N 
ATOM     26  H   UNL     1      -1.817  -5.061   4.012  0.00  0.00    +0.155 HD
BRANCH  25  27
ATOM     27  C   UNL     1      -3.543  -5.707   2.874  0.00  0.00    +0.033 A 
ATOM     28  C   UNL     1      -4.824  -5.275   2.547  0.00  0.00    +0.024 A 
ATOM     29  C   UNL     1      -5.780  -6.185   2.155  0.00  0.00    +0.015 A 
ATOM     30  C   UNL     1      -5.465  -7.545   2.096  0.00  0.00    +0.037 A 
ATOM     31  C   UNL     1      -4.178  -7.976   2.430  0.00  0.00    +0.015 A 
ATOM     32  C   UNL     1      -3.225  -7.060   2.817  0.00  0.00    +0.024 A 
BRANCH  30  33
ATOM     33  C   UNL     1      -6.488  -8.524   1.681  0.00  0.00    +0.242 C 
ATOM     34  O   UNL     1      -6.212  -9.707   1.630  0.00  0.00    -0.270 OA
ATOM     35  N   UNL     1      -7.728  -8.107   1.359  0.00  0.00    -0.325 N 
ATOM     36  H   UNL     1      -8.491  -8.837   1.049  0.00  0.00    +0.145 HD
ATOM     37  H   UNL     1      -7.978  -7.037   1.405  0.00  0.00    +0.145 HD
ENDBRANCH  30  33
ENDBRANCH  25  27
ENDBRANCH  21  23
ENDBRANCH  20  21
ENDBRANCH  10  20
TORSDOF 9
