REMARK  Name = ZINC63446383
REMARK  4 active torsions:
REMARK  status: ('A' for Active; 'I' for Inactive)
REMARK    1  A    between atoms: C_7  and  C_10
REMARK    2  A    between atoms: C_10  and  C_11
REMARK    3  A    between atoms: C_15  and  N_18
REMARK    4  A    between atoms: C_19  and  C_21
REMARK                            x       y       z     vdW  Elec       q    Type
REMARK                         _______ _______ _______ _____ _____    ______ ____
ROOT
ATOM      1  C   UNL     1       0.457  -3.653  -1.462  0.00  0.00    +0.192 C 
ATOM      2  N   UNL     1      -0.564  -4.724  -1.521  0.00  0.00    -0.175 NA
ATOM      3  N   UNL     1      -1.481  -4.664  -2.317  0.00  0.00    -0.157 NA
ATOM      4  C   UNL     1      -1.601  -3.518  -3.247  0.00  0.00    +0.275 C 
ATOM      5  S   UNL     1      -0.396  -2.354  -2.462  0.00  0.00    -0.085 S 
ENDROOT
BRANCH   4   6
ATOM      6  N   UNL     1      -2.958  -2.967  -3.242  0.00  0.00    -0.280 N 
ATOM      7  C   UNL     1      -3.949  -3.609  -3.892  0.00  0.00    +0.248 C 
ATOM      8  O   UNL     1      -3.716  -4.647  -4.482  0.00  0.00    -0.270 OA
ATOM      9  H   UNL     1      -3.144  -2.139  -2.772  0.00  0.00    +0.152 HD
BRANCH   7  10
ATOM     10  C   UNL     1      -5.317  -3.054  -3.888  0.00  0.00    +0.055 A 
ATOM     11  C   UNL     1      -5.587  -1.859  -3.216  0.00  0.00    +0.016 A 
ATOM     12  C   UNL     1      -6.866  -1.345  -3.215  0.00  0.00    +0.021 A 
ATOM     13  C   UNL     1      -7.884  -2.011  -3.879  0.00  0.00    +0.042 A 
ATOM     14  C   UNL     1      -7.625  -3.196  -4.547  0.00  0.00    +0.040 A 
ATOM     15  C   UNL     1      -6.346  -3.717  -4.561  0.00  0.00    +0.054 A 
ATOM     16 CL   UNL     1      -6.020  -5.199  -5.405  0.00  0.00    -0.083 Cl
ATOM     17 CL   UNL     1      -9.492  -1.357  -3.873  0.00  0.00    -0.083 Cl
ENDBRANCH   7  10
ENDBRANCH   4   6
BRANCH   1  18
ATOM     18  C   UNL     1       0.691  -3.186  -0.024  0.00  0.00    +0.073 C 
BRANCH  18  25
ATOM     19  C   UNL     1      -0.016   1.348   0.009  0.00  0.00    +0.001 A 
ATOM     20  C   UNL     1       1.166   2.101   0.002  0.00  0.00    +0.002 A 
ATOM     21  C   UNL     1       2.391   1.535  -0.013  0.00  0.00    +0.026 A 
ATOM     22  C   UNL     1       2.529   0.120  -0.022  0.00  0.00    +0.043 A 
ATOM     23  N   UNL     1       3.587  -0.654  -0.037  0.00  0.00    -0.380 N 
ATOM     24  C   UNL     1       3.143  -2.053  -0.041  0.00  0.00    +0.144 C 
ATOM     25  C   UNL     1       1.631  -2.008  -0.025  0.00  0.00    -0.039 C 
ATOM     26  C   UNL     1       1.295  -0.698  -0.014  0.00  0.00    -0.001 A 
ATOM     27  C   UNL     1       0.002  -0.004   0.002  0.00  0.00    +0.010 A 
ATOM     28  H   UNL     1       4.509  -0.353  -0.045  0.00  0.00    +0.160 HD
ENDBRANCH  18  25
ENDBRANCH   1  18
TORSDOF 4
