REMARK  Name = ZINC06894901
REMARK  3 active torsions:
REMARK  status: ('A' for Active; 'I' for Inactive)
REMARK    1  A    between atoms: C_1  and  N_2
REMARK    2  A    between atoms: C_12  and  C_20
REMARK    3  A    between atoms: N_22  and  C_23
REMARK                            x       y       z     vdW  Elec       q    Type
REMARK                         _______ _______ _______ _____ _____    ______ ____
ROOT
ATOM      1  C   UNL     1      -4.233   2.783   1.603  0.00  0.00    +0.138 C 
ATOM      2  N   UNL     1      -2.872   2.241   1.628  0.00  0.00    -0.275 N 
ATOM      3  C   UNL     1      -2.514   1.065   2.289  0.00  0.00    +0.038 A 
ATOM      4  C   UNL     1      -3.279   0.171   3.035  0.00  0.00    +0.024 A 
ATOM      5  C   UNL     1      -2.692  -0.942   3.600  0.00  0.00    +0.002 A 
ATOM      6  C   UNL     1      -1.340  -1.179   3.432  0.00  0.00    +0.000 A 
ATOM      7  C   UNL     1      -0.572  -0.296   2.693  0.00  0.00    +0.004 A 
ATOM      8  C   UNL     1      -1.155   0.817   2.127  0.00  0.00    -0.027 A 
ATOM      9  C   UNL     1      -0.623   1.947   1.289  0.00  0.00    +0.052 C 
ATOM     10  C   UNL     1      -1.822   2.820   1.016  0.00  0.00    +0.214 C 
ATOM     11  O   UNL     1      -1.837   3.845   0.369  0.00  0.00    -0.276 OA
ATOM     12  C   UNL     1       0.456   2.734   2.051  0.00  0.00    +0.076 C 
ATOM     13  C   UNL     1       1.773   2.137   1.483  0.00  0.00    -0.003 C 
ATOM     14  C   UNL     1       1.392   1.898   0.002  0.00  0.00    -0.066 C 
ATOM     15  C   UNL     1       0.005  -0.027   0.046  0.00  0.00    -0.077 C 
ATOM     16  C   UNL     1       1.183  -0.365  -0.902  0.00  0.00    -0.020 C 
ATOM     17  C   UNL     1       2.221   0.727  -0.551  0.00  0.00    -0.017 C 
ATOM     18  N   UNL     1       0.005   1.448   0.049  0.00  0.00    +0.394 N 
ATOM     19  H   UNL     1      -0.510   1.800  -0.767  0.00  0.00    -0.079 HD
ENDROOT
BRANCH  12  20
ATOM     20  C   UNL     1       0.360   4.207   1.745  0.00  0.00    +0.220 C 
ATOM     21  O   UNL     1       0.954   4.668   0.792  0.00  0.00    -0.275 OA
ATOM     22  N   UNL     1      -0.384   5.011   2.529  0.00  0.00    -0.283 N 
ATOM     23  H   UNL     1      -0.811   4.654   3.323  0.00  0.00    +0.155 HD
BRANCH  22  24
ATOM     24  C   UNL     1      -0.540   6.363   2.197  0.00  0.00    +0.072 A 
ATOM     25  C   UNL     1       0.422   7.007   1.433  0.00  0.00    +0.064 A 
ATOM     26  C   UNL     1       0.265   8.342   1.107  0.00  0.00    +0.125 A 
ATOM     27  C   UNL     1      -0.852   9.036   1.542  0.00  0.00    +0.041 A 
ATOM     28  C   UNL     1      -1.813   8.396   2.303  0.00  0.00    +0.043 A 
ATOM     29  C   UNL     1      -1.664   7.060   2.628  0.00  0.00    +0.145 A 
ATOM     30  F   UNL     1      -2.606   6.434   3.367  0.00  0.00    -0.204 F 
ATOM     31  F   UNL     1       1.202   8.970   0.363  0.00  0.00    -0.205 F 
ENDBRANCH  22  24
ENDBRANCH  12  20
TORSDOF 2
