REMARK  Name = ZINC39675465
REMARK  13 active torsions:
REMARK  status: ('A' for Active; 'I' for Inactive)
REMARK    1  A    between atoms: C_1  and  C_2
REMARK    2  A    between atoms: C_2  and  C_3
REMARK    3  A    between atoms: C_3  and  C_5
REMARK    4  A    between atoms: C_3  and  C_6
REMARK    5  A    between atoms: C_6  and  C_7
REMARK    6  A    between atoms: C_11  and  C_20
REMARK    7  A    between atoms: N_22  and  C_23
REMARK    8  A    between atoms: C_23  and  C_25
REMARK    9  A    between atoms: C_23  and  C_26
REMARK   10  A    between atoms: C_26  and  C_27
REMARK   11  A    between atoms: C_27  and  C_28
REMARK   12  A    between atoms: C_31  and  O_34
REMARK   13  A    between atoms: O_34  and  C_35
REMARK                            x       y       z     vdW  Elec       q    Type
REMARK                         _______ _______ _______ _____ _____    ______ ____
ROOT
ATOM      1  C   UNL     1      -2.510  -2.593  -0.342  0.00  0.00    +0.216 C 
ATOM      2  O   UNL     1      -3.367  -1.734  -0.344  0.00  0.00    -0.276 OA
ATOM      3  N   UNL     1      -2.858  -3.892  -0.430  0.00  0.00    -0.300 N 
ATOM      4  C   UNL     1      -1.963  -5.073  -0.436  0.00  0.00    +0.121 C 
ATOM      5  C   UNL     1      -2.705  -6.129   0.413  0.00  0.00    +0.100 C 
ATOM      6  C   UNL     1      -4.186  -5.724   0.337  0.00  0.00    -0.004 C 
ATOM      7  C   UNL     1      -4.222  -4.463  -0.538  0.00  0.00    +0.115 C 
ATOM      8  C   UNL     1      -4.720  -5.407   1.730  0.00  0.00    -0.010 C 
ATOM      9  C   UNL     1      -6.209  -5.063   1.635  0.00  0.00    -0.082 C 
ATOM     10  N   UNL     1      -6.940  -6.196   1.056  0.00  0.00    +0.379 N 
ATOM     11  C   UNL     1      -6.484  -6.435  -0.319  0.00  0.00    -0.082 C 
ATOM     12  C   UNL     1      -5.007  -6.838  -0.307  0.00  0.00    -0.010 C 
ATOM     13  H   UNL     1      -6.774  -7.022   1.612  0.00  0.00    -0.086 HD
ATOM     14  H   UNL     1      -7.928  -5.991   1.050  0.00  0.00    -0.086 HD
ENDROOT
BRANCH   5  15
ATOM     15  C   UNL     1      -2.220  -6.090   1.839  0.00  0.00    +0.218 C 
ATOM     16  O   UNL     1      -1.828  -5.047   2.318  0.00  0.00    -0.275 OA
ATOM     17  N   UNL     1      -2.223  -7.214   2.583  0.00  0.00    -0.312 N 
ATOM     18  H   UNL     1      -2.537  -8.048   2.200  0.00  0.00    +0.149 HD
BRANCH  17  19
ATOM     19  C   UNL     1      -1.752  -7.176   3.970  0.00  0.00    +0.070 C 
ATOM     20  C   UNL     1      -2.898  -6.742   4.886  0.00  0.00    +0.028 C 
BRANCH  19  21
ATOM     21  C   UNL     1      -1.268  -8.567   4.383  0.00  0.00    +0.026 C 
BRANCH  21  22
ATOM     22  C   UNL     1      -0.043  -8.949   3.549  0.00  0.00    +0.037 C 
BRANCH  22  23
ATOM     23  C   UNL     1       0.434 -10.319   3.956  0.00  0.00    -0.047 A 
ATOM     24  C   UNL     1       1.363 -10.454   4.971  0.00  0.00    +0.007 A 
ATOM     25  C   UNL     1       1.802 -11.709   5.345  0.00  0.00    +0.046 A 
ATOM     26  C   UNL     1       1.310 -12.835   4.702  0.00  0.00    +0.120 A 
ATOM     27  C   UNL     1       0.378 -12.697   3.684  0.00  0.00    +0.046 A 
ATOM     28  C   UNL     1      -0.062 -11.440   3.317  0.00  0.00    +0.007 A 
BRANCH  26  29
ATOM     29  O   UNL     1       1.741 -14.071   5.068  0.00  0.00    -0.495 OA
ATOM     30  C   UNL     1       1.191 -15.185   4.362  0.00  0.00    +0.277 C 
ENDBRANCH  26  29
ENDBRANCH  22  23
ENDBRANCH  21  22
ENDBRANCH  19  21
ENDBRANCH  17  19
ENDBRANCH   5  15
BRANCH   1  31
ATOM     31  C   UNL     1      -1.057  -2.207  -0.239  0.00  0.00    +0.099 C 
BRANCH  31  32
ATOM     32  C   UNL     1      -0.939  -0.684  -0.151  0.00  0.00    -0.006 C 
ATOM     33  C   UNL     1      -1.580  -0.197   1.150  0.00  0.00    +0.008 C 
BRANCH  32  35
ATOM     34  C   UNL     1       0.653   1.240  -0.210  0.00  0.00    +0.004 C 
ATOM     35  C   UNL     1       0.538  -0.285  -0.172  0.00  0.00    +0.000 C 
ENDBRANCH  32  35
ENDBRANCH  31  32
ENDBRANCH   1  31
TORSDOF 9
