REMARK  Name = ZINC04764793
REMARK  12 active torsions:
REMARK  status: ('A' for Active; 'I' for Inactive)
REMARK    1  A    between atoms: C_1  and  C_2
REMARK    2  A    between atoms: C_7  and  C_23
REMARK    3  A    between atoms: C_9  and  C_13
REMARK    4  A    between atoms: C_10  and  C_12
REMARK    5  A    between atoms: C_13  and  O_15
REMARK    6  A    between atoms: O_15  and  C_16
REMARK    7  A    between atoms: C_26  and  O_30
REMARK    8  A    between atoms: C_27  and  O_29
REMARK    9  A    between atoms: O_30  and  C_31
REMARK   10  A    between atoms: C_34  and  C_36
REMARK   11  A    between atoms: C_36  and  O_38
REMARK   12  A    between atoms: O_38  and  C_39
REMARK                            x       y       z     vdW  Elec       q    Type
REMARK                         _______ _______ _______ _____ _____    ______ ____
ROOT
ATOM      1  C   UNL     1      -0.719   0.907  -0.816  0.00  0.00    +0.009 C 
ATOM      2  C   UNL     1      -0.444  -0.526  -0.357  0.00  0.00    +0.013 C 
ATOM      3  C   UNL     1      -1.730  -1.145   0.195  0.00  0.00    +0.055 C 
ATOM      4  C   UNL     1      -2.201  -0.353   1.389  0.00  0.00    +0.016 C 
ATOM      5  C   UNL     1      -1.321   0.276   2.197  0.00  0.00    +0.025 C 
ATOM      6  C   UNL     1      -1.798   1.056   3.396  0.00  0.00    +0.092 C 
ATOM      7  C   UNL     1      -3.261   1.372   3.286  0.00  0.00    +0.065 C 
ATOM      8  C   UNL     1      -4.057   0.704   2.433  0.00  0.00    +0.016 C 
ATOM      9  N   UNL     1      -3.545  -0.283   1.638  0.00  0.00    -0.321 N 
ATOM     10  C   UNL     1      -5.522   1.044   2.354  0.00  0.00    +0.061 C 
ATOM     11  C   UNL     1       0.061   0.227   1.943  0.00  0.00    +0.176 C 
ATOM     12  O   UNL     1       0.826   0.796   2.695  0.00  0.00    -0.291 OA
ATOM     13  C   UNL     1       0.613  -0.518   0.753  0.00  0.00    +0.171 C 
ATOM     14  H   UNL     1      -4.141  -0.941   1.245  0.00  0.00    +0.152 HD
ENDROOT
BRANCH   6  15
ATOM     15  C   UNL     1      -1.562   0.241   4.642  0.00  0.00    -0.032 A 
ATOM     16  C   UNL     1      -2.158  -1.000   4.778  0.00  0.00    +0.008 A 
ATOM     17  C   UNL     1      -1.944  -1.751   5.918  0.00  0.00    +0.050 A 
ATOM     18  C   UNL     1      -1.131  -1.262   6.928  0.00  0.00    +0.161 A 
ATOM     19  C   UNL     1      -0.531  -0.014   6.791  0.00  0.00    +0.159 A 
ATOM     20  C   UNL     1      -0.746   0.732   5.643  0.00  0.00    +0.053 A 
BRANCH  19  21
ATOM     21  O   UNL     1       0.268   0.470   7.779  0.00  0.00    -0.503 OA
ATOM     22  H   UNL     1       1.200   0.231   7.684  0.00  0.00    +0.292 HD
ENDBRANCH  19  21
BRANCH  18  23
ATOM     23  O   UNL     1      -0.921  -2.000   8.051  0.00  0.00    -0.491 OA
ATOM     24  C   UNL     1      -1.569  -3.271   8.123  0.00  0.00    +0.277 C 
ENDBRANCH  18  23
ENDBRANCH   6  15
BRANCH   7  25
ATOM     25  C   UNL     1      -3.813   2.393   4.094  0.00  0.00    +0.338 C 
ATOM     26  O   UNL     1      -4.966   2.745   3.927  0.00  0.00    -0.245 OA
BRANCH  25  27
ATOM     27  O   UNL     1      -3.061   2.978   5.050  0.00  0.00    -0.458 OA
BRANCH  27  28
ATOM     28  C   UNL     1      -3.683   4.002   5.829  0.00  0.00    +0.177 C 
ATOM     29  C   UNL     1      -3.517   5.352   5.101  0.00  0.00    +0.044 C 
ATOM     30  C   UNL     1      -4.564   6.303   5.615  0.00  0.00    +0.004 C 
ATOM     31  C   UNL     1      -4.045   7.185   6.766  0.00  0.00    +0.000 C 
ATOM     32  C   UNL     1      -3.180   6.404   7.774  0.00  0.00    +0.000 C 
ATOM     33  C   UNL     1      -3.748   5.047   8.090  0.00  0.00    +0.004 C 
ATOM     34  C   UNL     1      -3.087   4.011   7.157  0.00  0.00    +0.044 C 
ENDBRANCH  27  28
ENDBRANCH  25  27
ENDBRANCH   7  25
BRANCH  13  35
ATOM     35  C   UNL     1       1.861   0.165   0.256  0.00  0.00    +0.318 C 
ATOM     36  O   UNL     1       1.993   1.357   0.396  0.00  0.00    -0.250 OA
BRANCH  35  37
ATOM     37  O   UNL     1       2.826  -0.552  -0.341  0.00  0.00    -0.467 OA
ATOM     38  C   UNL     1       3.981   0.160  -0.787  0.00  0.00    +0.280 C 
ENDBRANCH  35  37
ENDBRANCH  13  35
TORSDOF 8
