REMARK  Name = ZINC14544106
REMARK  4 active torsions:
REMARK  status: ('A' for Active; 'I' for Inactive)
REMARK    1  A    between atoms: C_1  and  O_2
REMARK    2  A    between atoms: O_2  and  C_3
REMARK    3  A    between atoms: C_12  and  C_13
REMARK    4  A    between atoms: C_24  and  N_29
REMARK                            x       y       z     vdW  Elec       q    Type
REMARK                         _______ _______ _______ _____ _____    ______ ____
ROOT
ATOM      1  C   UNL     1      -2.560   1.394  -0.003  0.00  0.00    +0.109 C 
ATOM      2  C   UNL     1      -3.062   1.388  -1.450  0.00  0.00    +0.029 C 
ATOM      3  C   UNL     1      -1.865   0.967  -2.353  0.00  0.00    +0.033 C 
ATOM      4  C   UNL     1      -1.093   2.258  -2.536  0.00  0.00    -0.030 C 
ATOM      5  C   UNL     1      -1.867   3.292  -2.312  0.00  0.00    -0.023 C 
ATOM      6  C   UNL     1      -3.279   2.834  -1.937  0.00  0.00    +0.049 C 
ATOM      7  C   UNL     1      -3.904   3.712  -0.900  0.00  0.00    -0.017 A 
ATOM      8  C   UNL     1      -4.379   4.960  -1.282  0.00  0.00    +0.038 A 
ATOM      9  C   UNL     1      -4.964   5.801  -0.358  0.00  0.00    +0.127 A 
ATOM     10  C   UNL     1      -5.084   5.409   0.964  0.00  0.00    +0.034 A 
ATOM     11  C   UNL     1      -4.615   4.171   1.356  0.00  0.00    +0.025 A 
ATOM     12  C   UNL     1      -4.025   3.325   0.426  0.00  0.00    +0.032 A 
ATOM     13  N   UNL     1      -3.538   2.095   0.836  0.00  0.00    -0.336 N 
ATOM     14  H   UNL     1      -3.859   1.699   1.662  0.00  0.00    +0.147 HD
ENDROOT
BRANCH   1  24
ATOM     15  C   UNL     1      -1.185   3.445   0.326  0.00  0.00    +0.126 A 
ATOM     16  C   UNL     1       0.038   4.120   0.389  0.00  0.00    +0.046 A 
ATOM     17  C   UNL     1       1.212   3.459   0.201  0.00  0.00    +0.012 A 
ATOM     18  C   UNL     1       1.200   2.078  -0.061  0.00  0.00    -0.017 A 
ATOM     19  C   UNL     1       2.393   1.364  -0.260  0.00  0.00    +0.008 A 
ATOM     20  C   UNL     1       2.345   0.027  -0.511  0.00  0.00    +0.001 A 
ATOM     21  C   UNL     1       1.127  -0.648  -0.574  0.00  0.00    +0.001 A 
ATOM     22  C   UNL     1      -0.049   0.010  -0.387  0.00  0.00    +0.009 A 
ATOM     23  C   UNL     1      -0.039   1.392  -0.125  0.00  0.00    -0.009 A 
ATOM     24  C   UNL     1      -1.233   2.105   0.068  0.00  0.00    +0.022 A 
BRANCH  15  26
ATOM     25  C   UNL     1      -2.224   5.513   0.871  0.00  0.00    +0.277 C 
ATOM     26  O   UNL     1      -2.341   4.133   0.518  0.00  0.00    -0.495 OA
ENDBRANCH  15  26
ENDBRANCH   1  24
BRANCH   9  27
ATOM     27  N   UNL     1      -5.465   7.127  -0.782  0.00  0.00    +0.056 N 
ATOM     28  O   UNL     1      -5.982   7.872   0.032  0.00  0.00    -0.126 OA
ATOM     29  O   UNL     1      -5.361   7.475  -1.944  0.00  0.00    -0.126 OA
ENDBRANCH   9  27
TORSDOF 3
