REMARK  Name = ZINC12052924
REMARK  7 active torsions:
REMARK  status: ('A' for Active; 'I' for Inactive)
REMARK    1  A    between atoms: C_1  and  C_2
REMARK    2  A    between atoms: C_14  and  C_15
REMARK    3  A    between atoms: C_14  and  N_55
REMARK    4  A    between atoms: C_15  and  C_16
REMARK    5  A    between atoms: N_18  and  C_19
REMARK    6  A    between atoms: C_19  and  C_20
REMARK    7  A    between atoms: C_22  and  C_26
REMARK                            x       y       z     vdW  Elec       q    Type
REMARK                         _______ _______ _______ _____ _____    ______ ____
ROOT
ATOM      1  C   UNL     1      -6.276   4.144  -2.023  0.00  0.00    +0.212 C 
ATOM      2  O   UNL     1      -6.783   5.246  -2.046  0.00  0.00    -0.276 OA
ATOM      3  N   UNL     1      -7.026   3.052  -2.270  0.00  0.00    -0.310 N 
ATOM      4  H   UNL     1      -6.621   2.171  -2.251  0.00  0.00    +0.149 HD
ENDROOT
BRANCH   1   5
ATOM      5  C   UNL     1      -4.808   3.997  -1.718  0.00  0.00    +0.077 C 
BRANCH   5   6
ATOM      6  C   UNL     1      -4.195   5.378  -1.478  0.00  0.00    -0.069 C 
BRANCH   6  19
ATOM      7  C   UNL     1       0.021   7.818  -1.440  0.00  0.00    +0.050 C 
ATOM      8  C   UNL     1      -0.578   6.422  -1.254  0.00  0.00    +0.154 C 
ATOM      9  C   UNL     1      -2.087   6.528  -1.224  0.00  0.00    -0.034 C 
ATOM     10  C   UNL     1      -2.559   4.535   0.094  0.00  0.00    -0.039 C 
ATOM     11  C   UNL     1      -1.242   3.787   0.034  0.00  0.00    -0.021 A 
ATOM     12  C   UNL     1      -1.231   2.407   0.021  0.00  0.00    +0.025 A 
ATOM     13  C   UNL     1      -0.021   1.732   0.012  0.00  0.00    +0.041 A 
ATOM     14  C   UNL     1       1.168   2.439   0.004  0.00  0.00    +0.023 A 
ATOM     15  C   UNL     1       1.155   3.821   0.003  0.00  0.00    +0.047 A 
ATOM     16  C   UNL     1      -0.057   4.496   0.010  0.00  0.00    +0.122 A 
ATOM     17  O   UNL     1      -0.084   5.857  -0.033  0.00  0.00    -0.491 OA
ATOM     18 CL   UNL     1       0.002  -0.004   0.002  0.00  0.00    -0.084 Cl
ATOM     19  N   UNL     1      -2.757   5.210  -1.211  0.00  0.00    +0.385 N 
ATOM     20  H   UNL     1      -2.349   4.625  -1.950  0.00  0.00    -0.081 HD
ENDBRANCH   6  19
ENDBRANCH   5   6
ENDBRANCH   1   5
BRANCH   3  21
ATOM     21  C   UNL     1      -8.454   3.195  -2.566  0.00  0.00    +0.161 C 
BRANCH  21  22
ATOM     22  C   UNL     1      -9.057   1.835  -2.803  0.00  0.00    +0.080 A 
ATOM     23  C   UNL     1      -9.708   1.056  -1.846  0.00  0.00    +0.054 A 
ATOM     24  C   UNL     1     -10.108  -0.102  -2.451  0.00  0.00    +0.066 A 
ATOM     25  N   UNL     1      -9.712  -0.038  -3.753  0.00  0.00    -0.277 N 
ATOM     26  H   UNL     1      -9.860  -0.740  -4.450  0.00  0.00    +0.189 HD
ATOM     27  N   UNL     1      -9.062   1.189  -3.941  0.00  0.00    -0.177 NA
BRANCH  24  28
ATOM     28  C   UNL     1     -10.838  -1.219  -1.810  0.00  0.00    -0.000 A 
ATOM     29  C   UNL     1     -11.176  -1.151  -0.459  0.00  0.00    +0.010 A 
ATOM     30  C   UNL     1     -11.861  -2.194   0.131  0.00  0.00    +0.001 A 
ATOM     31  C   UNL     1     -12.202  -3.310  -0.612  0.00  0.00    +0.000 A 
ATOM     32  C   UNL     1     -11.864  -3.385  -1.951  0.00  0.00    +0.001 A 
ATOM     33  C   UNL     1     -11.185  -2.347  -2.554  0.00  0.00    +0.010 A 
ENDBRANCH  24  28
ENDBRANCH  21  22
ENDBRANCH   3  21
TORSDOF 6
