REMARK  Name = ZINC16024680
REMARK  10 active torsions:
REMARK  status: ('A' for Active; 'I' for Inactive)
REMARK    1  A    between atoms: C_1  and  C_2
REMARK    2  A    between atoms: C_2  and  C_4
REMARK    3  A    between atoms: C_2  and  O_39
REMARK    4  A    between atoms: N_12  and  C_15
REMARK    5  A    between atoms: C_15  and  C_16
REMARK    6  A    between atoms: C_16  and  C_17
REMARK    7  A    between atoms: C_20  and  O_25
REMARK    8  A    between atoms: C_21  and  O_23
REMARK    9  A    between atoms: O_23  and  C_24
REMARK   10  A    between atoms: O_25  and  C_26
REMARK                            x       y       z     vdW  Elec       q    Type
REMARK                         _______ _______ _______ _____ _____    ______ ____
ROOT
ATOM      1  C   UNL     1      -1.433  -0.534   0.013  0.00  0.00    +0.096 C 
ATOM      2  C   UNL     1      -1.437  -2.077  -0.034  0.00  0.00    +0.109 C 
ATOM      3  C   UNL     1      -2.651  -2.444  -0.932  0.00  0.00    +0.122 C 
ATOM      4  C   UNL     1      -3.594  -3.138   0.024  0.00  0.00    +0.228 C 
ATOM      5  O   UNL     1      -4.681  -3.588  -0.267  0.00  0.00    -0.275 OA
ATOM      6  N   UNL     1      -3.043  -3.178   1.243  0.00  0.00    -0.241 N 
ATOM      7  C   UNL     1      -1.816  -2.613   1.328  0.00  0.00    +0.227 C 
ATOM      8  O   UNL     1      -1.129  -2.542   2.325  0.00  0.00    -0.275 OA
ATOM      9  C   UNL     1      -3.232  -1.095  -1.369  0.00  0.00    +0.136 C 
ATOM     10  N   UNL     1      -2.150  -0.111  -1.219  0.00  0.00    -0.293 NA
ATOM     11  C   UNL     1      -3.755  -1.150  -2.777  0.00  0.00    +0.005 A 
ATOM     12  C   UNL     1      -3.177  -1.444  -3.992  0.00  0.00    +0.008 A 
ATOM     13  C   UNL     1      -3.937  -1.410  -5.147  0.00  0.00    +0.002 A 
ATOM     14  C   UNL     1      -5.279  -1.081  -5.079  0.00  0.00    +0.022 A 
ATOM     15  C   UNL     1      -5.863  -0.785  -3.864  0.00  0.00    +0.062 A 
ATOM     16  C   UNL     1      -5.104  -0.818  -2.695  0.00  0.00    +0.057 A 
ATOM     17  N   UNL     1      -5.459  -0.563  -1.368  0.00  0.00    -0.282 N 
ATOM     18  C   UNL     1      -4.416  -0.706  -0.527  0.00  0.00    +0.243 C 
ATOM     19  O   UNL     1      -4.430  -0.551   0.676  0.00  0.00    -0.273 OA
ATOM     20 CL   UNL     1      -7.547  -0.371  -3.791  0.00  0.00    -0.082 Cl
ATOM     21  H   UNL     1      -2.515   0.825  -1.123  0.00  0.00    +0.124 HD
ATOM     22  H   UNL     1      -6.352  -0.313  -1.085  0.00  0.00    +0.155 HD
ENDROOT
BRANCH   1  24
ATOM     23  C   UNL     1      -0.019   1.526   0.010  0.00  0.00    +0.039 C 
ATOM     24  C   UNL     1       0.002  -0.004   0.002  0.00  0.00    +0.129 C 
BRANCH  24  25
ATOM     25  O   UNL     1       0.693  -0.477   1.160  0.00  0.00    -0.390 OA
ATOM     26  H   UNL     1       1.611  -0.180   1.219  0.00  0.00    +0.210 HD
ENDBRANCH  24  25
ENDBRANCH   1  24
BRANCH   6  27
ATOM     27  C   UNL     1      -3.709  -3.790   2.395  0.00  0.00    +0.121 C 
BRANCH  27  28
ATOM     28  C   UNL     1      -3.330  -5.270   2.477  0.00  0.00    +0.054 C 
BRANCH  28  29
ATOM     29  C   UNL     1      -4.016  -5.900   3.661  0.00  0.00    -0.042 A 
ATOM     30  C   UNL     1      -3.394  -5.904   4.896  0.00  0.00    +0.007 A 
ATOM     31  C   UNL     1      -4.019  -6.481   5.986  0.00  0.00    +0.049 A 
ATOM     32  C   UNL     1      -5.272  -7.056   5.843  0.00  0.00    +0.161 A 
ATOM     33  C   UNL     1      -5.897  -7.051   4.600  0.00  0.00    +0.162 A 
ATOM     34  C   UNL     1      -5.267  -6.467   3.512  0.00  0.00    +0.053 A 
BRANCH  33  35
ATOM     35  O   UNL     1      -7.127  -7.614   4.454  0.00  0.00    -0.491 OA
ATOM     36  C   UNL     1      -7.708  -7.573   3.149  0.00  0.00    +0.277 C 
ENDBRANCH  33  35
BRANCH  32  37
ATOM     37  O   UNL     1      -5.888  -7.623   6.914  0.00  0.00    -0.491 OA
ATOM     38  C   UNL     1      -5.186  -7.592   8.158  0.00  0.00    +0.277 C 
ENDBRANCH  32  37
ENDBRANCH  28  29
ENDBRANCH  27  28
ENDBRANCH   6  27
TORSDOF 7
