REMARK  Name = ZINC13782014
REMARK  9 active torsions:
REMARK  status: ('A' for Active; 'I' for Inactive)
REMARK    1  A    between atoms: C_6  and  C_7
REMARK    2  A    between atoms: C_7  and  N_8
REMARK    3  A    between atoms: N_8  and  C_9
REMARK    4  A    between atoms: C_9  and  C_10
REMARK    5  A    between atoms: C_10  and  N_11
REMARK    6  A    between atoms: N_13  and  C_14
REMARK    7  A    between atoms: C_14  and  C_15
REMARK    8  A    between atoms: C_15  and  C_16
REMARK    9  A    between atoms: C_16  and  N_17
REMARK                            x       y       z     vdW  Elec       q    Type
REMARK                         _______ _______ _______ _____ _____    ______ ____
ROOT
ATOM      1  N   UNL     1      -1.726  -1.017  -1.368  0.00  0.00    -0.309 N 
ATOM      2  C   UNL     1      -2.548  -0.097  -2.010  0.00  0.00    +0.122 A 
ATOM      3  C   UNL     1      -2.865   1.102  -1.380  0.00  0.00    +0.045 A 
ATOM      4  C   UNL     1      -3.683   2.008  -2.030  0.00  0.00    +0.020 A 
ATOM      5  C   UNL     1      -4.158   1.683  -3.294  0.00  0.00    +0.036 A 
ATOM      6  C   UNL     1      -3.803   0.474  -3.860  0.00  0.00    +0.128 A 
ATOM      7  N   UNL     1      -3.016  -0.368  -3.218  0.00  0.00    -0.239 NA
ATOM      8 BR   UNL     1      -5.281   2.883  -4.230  0.00  0.00    -0.049 Br
ENDROOT
BRANCH   1   9
ATOM      9  C   UNL     1      -1.293  -0.775   0.011  0.00  0.00    +0.141 C 
BRANCH   9  15
ATOM     10  C   UNL     1      -0.017   1.378   0.010  0.00  0.00    +0.007 A 
ATOM     11  C   UNL     1       1.171   2.086   0.002  0.00  0.00    +0.022 A 
ATOM     12  C   UNL     1       2.378   1.412  -0.013  0.00  0.00    +0.059 A 
ATOM     13  C   UNL     1       2.397   0.027  -0.021  0.00  0.00    +0.060 A 
ATOM     14  C   UNL     1       1.208  -0.680  -0.013  0.00  0.00    +0.026 A 
ATOM     15  C   UNL     1       0.002  -0.004   0.002  0.00  0.00    -0.029 A 
ATOM     16 CL   UNL     1       3.912  -0.821  -0.040  0.00  0.00    -0.082 Cl
ATOM     17 CL   UNL     1       3.869   2.301  -0.023  0.00  0.00    -0.082 Cl
ENDBRANCH   9  15
ENDBRANCH   1   9
BRANCH   1  18
ATOM     18  C   UNL     1      -1.294  -2.229  -2.069  0.00  0.00    +0.125 C 
BRANCH  18  19
ATOM     19  C   UNL     1      -2.307  -3.348  -1.825  0.00  0.00    +0.122 C 
BRANCH  19  20
ATOM     20  N   UNL     1      -1.875  -4.560  -2.526  0.00  0.00    -0.323 N 
ATOM     21  C   UNL     1      -2.628  -5.697  -2.452  0.00  0.00    +0.139 C 
ATOM     22  N   UNL     1      -2.225  -6.827  -3.106  0.00  0.00    -0.367 N 
ATOM     23  S   UNL     1      -4.033  -5.707  -1.568  0.00  0.00    -0.016 SA
ATOM     24  H   UNL     1      -1.054  -4.554  -3.043  0.00  0.00    +0.148 HD
ATOM     25  H   UNL     1      -1.405  -6.822  -3.623  0.00  0.00    +0.161 HD
BRANCH  22  26
ATOM     26  C   UNL     1      -3.033  -8.047  -3.027  0.00  0.00    +0.112 C 
BRANCH  26  27
ATOM     27  C   UNL     1      -2.364  -9.155  -3.842  0.00  0.00    +0.001 C 
BRANCH  27  28
ATOM     28  C   UNL     1      -3.207 -10.429  -3.760  0.00  0.00    -0.085 C 
BRANCH  28  29
ATOM     29  N   UNL     1      -2.565 -11.493  -4.542  0.00  0.00    +0.378 N 
ATOM     30  H   UNL     1      -2.487 -11.203  -5.505  0.00  0.00    -0.090 HD
ATOM     31  H   UNL     1      -1.644 -11.675  -4.171  0.00  0.00    -0.090 HD
ATOM     32  H   UNL     1      -3.121 -12.334  -4.488  0.00  0.00    -0.090 HD
ENDBRANCH  28  29
ENDBRANCH  27  28
ENDBRANCH  26  27
ENDBRANCH  22  26
ENDBRANCH  19  20
ENDBRANCH  18  19
ENDBRANCH   1  18
TORSDOF 9
