REMARK  Name = ZINC13304048
REMARK  10 active torsions:
REMARK  status: ('A' for Active; 'I' for Inactive)
REMARK    1  A    between atoms: C_4  and  C_7
REMARK    2  A    between atoms: C_7  and  O_8
REMARK    3  A    between atoms: O_8  and  C_9
REMARK    4  A    between atoms: N_11  and  C_12
REMARK    5  A    between atoms: C_12  and  C_14
REMARK    6  A    between atoms: C_12  and  N_18
REMARK    7  A    between atoms: N_18  and  C_19
REMARK    8  A    between atoms: C_19  and  N_21
REMARK    9  A    between atoms: N_21  and  C_22
REMARK   10  A    between atoms: C_25  and  N_29
REMARK                            x       y       z     vdW  Elec       q    Type
REMARK                         _______ _______ _______ _____ _____    ______ ____
ROOT
ATOM      1  C   UNL     1       3.631  -2.348   0.267  0.00  0.00    +0.214 C 
ENDROOT
BRANCH   1   4
ATOM      2  C   UNL     1       2.981  -3.208   2.452  0.00  0.00    +0.402 C 
ATOM      3  O   UNL     1       1.842  -3.311   2.040  0.00  0.00    -0.226 OA
ATOM      4  N   UNL     1       3.950  -2.736   1.643  0.00  0.00    -0.259 N 
ATOM      5  H   UNL     1       4.859  -2.654   1.972  0.00  0.00    +0.154 HD
BRANCH   2   6
ATOM      6  O   UNL     1       3.274  -3.564   3.717  0.00  0.00    -0.446 OA
BRANCH   6   7
ATOM      7  C   UNL     1       2.180  -4.063   4.531  0.00  0.00    +0.269 C 
BRANCH   7  11
ATOM      8  C   UNL     1       3.637  -5.044   8.425  0.00  0.00    +0.000 A 
ATOM      9  C   UNL     1       3.167  -3.771   8.164  0.00  0.00    +0.000 A 
ATOM     10  C   UNL     1       2.696  -3.454   6.903  0.00  0.00    +0.007 A 
ATOM     11  C   UNL     1       2.695  -4.409   5.905  0.00  0.00    -0.010 A 
ATOM     12  C   UNL     1       3.160  -5.684   6.168  0.00  0.00    +0.007 A 
ATOM     13  C   UNL     1       3.636  -6.000   7.427  0.00  0.00    +0.000 A 
ENDBRANCH   7  11
ENDBRANCH   6   7
ENDBRANCH   2   6
ENDBRANCH   1   4
BRANCH   1  14
ATOM     14  C   UNL     1       4.695  -2.907  -0.680  0.00  0.00    +0.225 C 
ATOM     15 CL   UNL     1       6.309  -2.244  -0.228  0.00  0.00    -0.080 Cl
ATOM     16 CL   UNL     1       4.727  -4.705  -0.555  0.00  0.00    -0.080 Cl
ATOM     17 CL   UNL     1       4.302  -2.429  -2.374  0.00  0.00    -0.080 Cl
ENDBRANCH   1  14
BRANCH   1  18
ATOM     18  N   UNL     1       3.605  -0.887   0.165  0.00  0.00    -0.305 N 
ATOM     19  H   UNL     1       4.436  -0.386   0.159  0.00  0.00    +0.150 HD
BRANCH  18  20
ATOM     20  C   UNL     1       2.426  -0.238   0.078  0.00  0.00    +0.136 C 
ATOM     21  S   UNL     1       0.960  -1.122   0.088  0.00  0.00    -0.019 S 
BRANCH  20  22
ATOM     22  N   UNL     1       2.403   1.106  -0.015  0.00  0.00    -0.296 N 
ATOM     23  H   UNL     1       3.233   1.602  -0.084  0.00  0.00    +0.154 HD
BRANCH  22  24
ATOM     24  C   UNL     1       1.179   1.786  -0.014  0.00  0.00    +0.051 A 
ATOM     25  C   UNL     1       0.142   1.353  -0.829  0.00  0.00    +0.027 A 
ATOM     26  C   UNL     1      -1.062   2.030  -0.830  0.00  0.00    +0.034 A 
ATOM     27  C   UNL     1      -1.239   3.131  -0.013  0.00  0.00    +0.128 A 
ATOM     28  C   UNL     1      -0.209   3.566   0.800  0.00  0.00    +0.054 A 
ATOM     29  C   UNL     1       1.001   2.896   0.802  0.00  0.00    +0.064 A 
ATOM     30 CL   UNL     1       2.295   3.443   1.822  0.00  0.00    -0.082 Cl
BRANCH  27  31
ATOM     31  N   UNL     1      -2.533   3.850  -0.013  0.00  0.00    +0.056 N 
ATOM     32  O   UNL     1      -2.689   4.824   0.703  0.00  0.00    -0.126 OA
ATOM     33  O   UNL     1      -3.442   3.469  -0.728  0.00  0.00    -0.126 OA
ENDBRANCH  27  31
ENDBRANCH  22  24
ENDBRANCH  20  22
ENDBRANCH  18  20
ENDBRANCH   1  18
TORSDOF 10
