REMARK  Name = ZINC39855843
REMARK  8 active torsions:
REMARK  status: ('A' for Active; 'I' for Inactive)
REMARK    1  A    between atoms: C_1  and  C_2
REMARK    2  A    between atoms: C_6  and  C_7
REMARK    3  A    between atoms: N_9  and  C_10
REMARK    4  A    between atoms: C_15  and  N_16
REMARK    5  A    between atoms: C_20  and  C_31
REMARK    6  A    between atoms: C_20  and  C_32
REMARK    7  A    between atoms: N_23  and  N_24
REMARK    8  A    between atoms: N_24  and  C_25
REMARK                            x       y       z     vdW  Elec       q    Type
REMARK                         _______ _______ _______ _____ _____    ______ ____
ROOT
ATOM      1  C   UNL     1      -0.026   1.501   0.010  0.00  0.00    +0.048 C 
ATOM      2  C   UNL     1       0.011  -0.006   0.002  0.00  0.00    +0.009 A 
ATOM      3  C   UNL     1       0.034  -0.839  -1.122  0.00  0.00    +0.042 A 
ATOM      4  C   UNL     1       0.064  -2.138  -0.673  0.00  0.00    +0.116 A 
ATOM      5  O   UNL     1       0.063  -2.113   0.658  0.00  0.00    -0.454 OA
ATOM      6  C   UNL     1       0.036  -0.832   1.091  0.00  0.00    +0.193 A 
ATOM      7  C   UNL     1       0.089  -3.327  -1.600  0.00  0.00    +0.081 C 
ATOM      8  C   UNL     1      -0.432  -2.908  -2.978  0.00  0.00    -0.023 C 
ATOM      9  C   UNL     1       0.328  -1.682  -3.494  0.00  0.00    +0.064 C 
ATOM     10  C   UNL     1       0.031  -0.513  -2.566  0.00  0.00    +0.070 C 
ATOM     11  N   UNL     1      -0.207   0.683  -3.009  0.00  0.00    -0.186 NA
ATOM     12  C   UNL     1      -1.921  -2.571  -2.873  0.00  0.00    +0.011 C 
ATOM     13  C   UNL     1      -0.247  -4.067  -3.960  0.00  0.00    +0.011 C 
ENDROOT
BRANCH   6  14
ATOM     14  C   UNL     1       0.030  -0.401   2.494  0.00  0.00    +0.284 C 
ATOM     15  O   UNL     1       0.001   0.784   2.766  0.00  0.00    -0.266 OA
ATOM     16  N   UNL     1       0.056  -1.319   3.480  0.00  0.00    -0.277 N 
ATOM     17  H   UNL     1      -0.002  -2.263   3.266  0.00  0.00    +0.155 HD
BRANCH  16  18
ATOM     18  C   UNL     1       0.168  -0.910   4.813  0.00  0.00    +0.064 A 
ATOM     19  C   UNL     1       0.760   0.309   5.119  0.00  0.00    +0.025 A 
ATOM     20  C   UNL     1       0.868   0.710   6.436  0.00  0.00    +0.002 A 
ATOM     21  C   UNL     1       0.388  -0.100   7.449  0.00  0.00    +0.002 A 
ATOM     22  C   UNL     1      -0.202  -1.313   7.147  0.00  0.00    +0.034 A 
ATOM     23  C   UNL     1      -0.318  -1.718   5.832  0.00  0.00    +0.147 A 
BRANCH  23  24
ATOM     24  N   UNL     1      -0.955  -3.015   5.509  0.00  0.00    +0.058 N 
ATOM     25  O   UNL     1      -1.458  -3.677   6.388  0.00  0.00    -0.126 OA
ATOM     26  O   UNL     1      -0.973  -3.412   4.368  0.00  0.00    -0.126 OA
ENDBRANCH  23  24
ENDBRANCH  16  18
ENDBRANCH   6  14
BRANCH  11  27
ATOM     27  N   UNL     1      -0.197   0.935  -4.387  0.00  0.00    -0.238 N 
ATOM     28  H   UNL     1      -0.011   0.216  -5.010  0.00  0.00    +0.174 HD
BRANCH  27  29
ATOM     29  C   UNL     1      -0.454   2.221  -4.863  0.00  0.00    +0.048 A 
ATOM     30  C   UNL     1      -0.714   3.255  -3.971  0.00  0.00    +0.025 A 
ATOM     31  C   UNL     1      -0.967   4.527  -4.446  0.00  0.00    +0.002 A 
ATOM     32  C   UNL     1      -0.962   4.772  -5.807  0.00  0.00    +0.000 A 
ATOM     33  C   UNL     1      -0.704   3.746  -6.698  0.00  0.00    +0.002 A 
ATOM     34  C   UNL     1      -0.444   2.473  -6.230  0.00  0.00    +0.025 A 
ENDBRANCH  27  29
ENDBRANCH  11  27
TORSDOF 5
