REMARK  Name = ZINC49716249
REMARK  2 active torsions:
REMARK  status: ('A' for Active; 'I' for Inactive)
REMARK    1  A    between atoms: C_8  and  N_12
REMARK    2  A    between atoms: C_9  and  C_10
REMARK                            x       y       z     vdW  Elec       q    Type
REMARK                         _______ _______ _______ _____ _____    ______ ____
ROOT
ATOM      1  C   UNL     1      -0.016   1.359   0.009  0.00  0.00    +0.005 A 
ATOM      2  C   UNL     1       1.192   2.068   0.002  0.00  0.00    +0.018 A 
ATOM      3  C   UNL     1       2.369   1.401  -0.013  0.00  0.00    +0.093 A 
ATOM      4  N   UNL     1       2.396   0.042  -0.021  0.00  0.00    -0.296 N 
ATOM      5  C   UNL     1       1.236  -0.678  -0.014  0.00  0.00    +0.140 A 
ATOM      6  C   UNL     1       0.002  -0.004   0.002  0.00  0.00    +0.047 A 
ATOM      7  N   UNL     1       1.533  -1.978  -0.024  0.00  0.00    -0.212 NA
ATOM      8  C   UNL     1       2.850  -2.142  -0.038  0.00  0.00    +0.151 A 
ATOM      9  C   UNL     1       3.442  -0.872  -0.037  0.00  0.00    +0.127 A 
ENDROOT
BRANCH   8  10
ATOM     10  N   UNL     1       3.520  -3.354  -0.051  0.00  0.00    -0.310 N 
ATOM     11  C   UNL     1       4.984  -3.553  -0.060  0.00  0.00    +0.110 C 
ATOM     12  C   UNL     1       5.188  -5.100  -0.097  0.00  0.00    +0.008 C 
ATOM     13  C   UNL     1       4.765  -5.569   1.330  0.00  0.00    +0.007 C 
ATOM     14  C   UNL     1       3.243  -5.295   1.382  0.00  0.00    +0.023 C 
ATOM     15  C   UNL     1       2.904  -4.713  -0.052  0.00  0.00    +0.075 C 
ATOM     16  C   UNL     1       3.928  -5.506  -0.943  0.00  0.00    +0.027 C 
ENDBRANCH   8  10
BRANCH   9  17
ATOM     17  C   UNL     1       4.809  -0.583  -0.050  0.00  0.00    +0.280 C 
ATOM     18  O   UNL     1       5.187   0.574  -0.046  0.00  0.00    -0.294 OA
ENDBRANCH   9  17
TORSDOF 2
