REMARK  Name = ZINC39974534
REMARK  12 active torsions:
REMARK  status: ('A' for Active; 'I' for Inactive)
REMARK    1  A    between atoms: C_1  and  C_2
REMARK    2  A    between atoms: C_2  and  C_4
REMARK    3  A    between atoms: C_2  and  N_14
REMARK    4  A    between atoms: C_7  and  C_10
REMARK    5  A    between atoms: C_10  and  C_11
REMARK    6  A    between atoms: C_10  and  C_12
REMARK    7  A    between atoms: C_10  and  C_13
REMARK    8  A    between atoms: N_14  and  C_15
REMARK    9  A    between atoms: C_15  and  N_17
REMARK   10  A    between atoms: N_17  and  C_18
REMARK   11  A    between atoms: C_21  and  S_24
REMARK   12  A    between atoms: S_24  and  N_27
REMARK                            x       y       z     vdW  Elec       q    Type
REMARK                         _______ _______ _______ _____ _____    ______ ____
ROOT
ATOM      1  C   UNL     1       0.033  -2.176  -4.642  0.00  0.00    +0.033 A 
ATOM      2  C   UNL     1      -0.415  -0.959  -5.139  0.00  0.00    +0.025 A 
ATOM      3  C   UNL     1      -1.170  -0.922  -6.295  0.00  0.00    +0.030 A 
ATOM      4  C   UNL     1      -1.481  -2.096  -6.957  0.00  0.00    +0.109 A 
ATOM      5  C   UNL     1      -1.037  -3.310  -6.464  0.00  0.00    +0.030 A 
ATOM      6  C   UNL     1      -0.277  -3.352  -5.312  0.00  0.00    +0.025 A 
ENDROOT
BRANCH   4   7
ATOM      7  S   UNL     1      -2.446  -2.045  -8.431  0.00  0.00    +0.075 S 
ATOM      8  O   UNL     1      -3.058  -3.321  -8.559  0.00  0.00    -0.150 OA
ATOM      9  O   UNL     1      -3.197  -0.840  -8.383  0.00  0.00    -0.150 OA
BRANCH   7  10
ATOM     10  N   UNL     1      -1.393  -1.897  -9.700  0.00  0.00    -0.203 N 
ATOM     11  C   UNL     1      -1.102  -0.578 -10.278  0.00  0.00    +0.132 C 
ATOM     12  C   UNL     1      -1.142  -0.716 -11.806  0.00  0.00    +0.025 C 
ATOM     13  C   UNL     1      -0.034  -1.675 -12.243  0.00  0.00    +0.038 C 
ATOM     14  C   UNL     1      -0.107  -2.958 -11.458  0.00  0.00    -0.025 A 
ATOM     15  C   UNL     1      -0.761  -3.024 -10.236  0.00  0.00    +0.054 A 
ATOM     16  C   UNL     1      -0.801  -4.222  -9.530  0.00  0.00    +0.025 A 
ATOM     17  C   UNL     1      -0.186  -5.347 -10.043  0.00  0.00    +0.002 A 
ATOM     18  C   UNL     1       0.469  -5.281 -11.259  0.00  0.00    +0.000 A 
ATOM     19  C   UNL     1       0.501  -4.091 -11.969  0.00  0.00    +0.005 A 
ENDBRANCH   7  10
ENDBRANCH   4   7
BRANCH   1  20
ATOM     20  N   UNL     1       0.798  -2.216  -3.472  0.00  0.00    -0.297 N 
ATOM     21  H   UNL     1       1.597  -2.764  -3.434  0.00  0.00    +0.154 HD
BRANCH  20  22
ATOM     22  C   UNL     1       0.424  -1.494  -2.397  0.00  0.00    +0.135 C 
ATOM     23  S   UNL     1      -0.924  -0.443  -2.498  0.00  0.00    -0.019 S 
BRANCH  22  24
ATOM     24  N   UNL     1       1.112  -1.598  -1.243  0.00  0.00    -0.320 N 
ATOM     25  H   UNL     1       1.876  -2.193  -1.185  0.00  0.00    +0.148 HD
BRANCH  24  27
ATOM     26  C   UNL     1       1.335   0.580  -0.152  0.00  0.00    +0.033 C 
ATOM     27  C   UNL     1       0.706  -0.813  -0.074  0.00  0.00    +0.099 C 
BRANCH  27  28
ATOM     28  C   UNL     1       1.171  -1.504   1.182  0.00  0.00    -0.027 A 
ATOM     29  C   UNL     1       2.418  -2.097   1.223  0.00  0.00    +0.006 A 
ATOM     30  C   UNL     1       2.845  -2.731   2.375  0.00  0.00    +0.004 A 
ATOM     31  C   UNL     1       2.023  -2.772   3.486  0.00  0.00    -0.042 A 
ATOM     32  C   UNL     1       0.775  -2.178   3.445  0.00  0.00    +0.004 A 
ATOM     33  C   UNL     1       0.351  -1.540   2.294  0.00  0.00    +0.006 A 
BRANCH  31  34
ATOM     34  C   UNL     1       2.487  -3.464   4.742  0.00  0.00    -0.013 C 
ATOM     35  C   UNL     1       3.764  -2.793   5.251  0.00  0.00    +0.015 C 
ATOM     36  C   UNL     1       1.397  -3.364   5.811  0.00  0.00    +0.015 C 
ATOM     37  C   UNL     1       2.770  -4.936   4.438  0.00  0.00    +0.015 C 
ENDBRANCH  31  34
ENDBRANCH  27  28
ENDBRANCH  24  27
ENDBRANCH  22  24
ENDBRANCH  20  22
ENDBRANCH   1  20
TORSDOF 8
