REMARK  Name = ZINC09281487
REMARK  13 active torsions:
REMARK  status: ('A' for Active; 'I' for Inactive)
REMARK    1  A    between atoms: C_1  and  C_2
REMARK    2  A    between atoms: C_6  and  N_8
REMARK    3  A    between atoms: C_13  and  C_27
REMARK    4  A    between atoms: N_15  and  C_21
REMARK    5  A    between atoms: C_29  and  C_38
REMARK    6  A    between atoms: C_30  and  O_37
REMARK    7  A    between atoms: C_31  and  C_33
REMARK    8  A    between atoms: C_33  and  C_34
REMARK    9  A    between atoms: C_33  and  C_35
REMARK   10  A    between atoms: C_33  and  C_36
REMARK   11  A    between atoms: C_38  and  C_39
REMARK   12  A    between atoms: C_38  and  C_40
REMARK   13  A    between atoms: C_38  and  C_41
REMARK                            x       y       z     vdW  Elec       q    Type
REMARK                         _______ _______ _______ _____ _____    ______ ____
ROOT
ATOM      1  N   UNL     1       0.389  -2.696   2.847  0.00  0.00    -0.208 N 
ATOM      2  C   UNL     1       0.441  -4.031   2.929  0.00  0.00    +0.235 C 
ATOM      3  O   UNL     1       0.707  -4.779   2.013  0.00  0.00    -0.274 OA
ATOM      4  C   UNL     1       0.116  -4.460   4.341  0.00  0.00    +0.145 C 
ATOM      5  C   UNL     1      -1.243  -5.197   4.352  0.00  0.00    +0.157 C 
ATOM      6  N   UNL     1      -1.959  -4.544   5.475  0.00  0.00    -0.244 N 
ATOM      7  O   UNL     1      -1.597  -3.165   5.379  0.00  0.00    -0.257 OA
ATOM      8  C   UNL     1      -0.174  -3.118   5.067  0.00  0.00    +0.249 C 
ATOM      9  C   UNL     1       0.067  -2.082   3.991  0.00  0.00    +0.259 C 
ATOM     10  O   UNL     1      -0.020  -0.882   4.141  0.00  0.00    -0.272 OA
ENDROOT
BRANCH   1  16
ATOM     11  C   UNL     1      -1.187   0.166  -0.829  0.00  0.00    +0.044 C 
ATOM     12  C   UNL     1      -0.089  -0.603  -0.141  0.00  0.00    -0.049 A 
ATOM     13  C   UNL     1       1.184  -0.622  -0.680  0.00  0.00    +0.003 A 
ATOM     14  C   UNL     1       2.194  -1.327  -0.052  0.00  0.00    +0.002 A 
ATOM     15  C   UNL     1       1.933  -2.016   1.117  0.00  0.00    +0.024 A 
ATOM     16  C   UNL     1       0.657  -1.999   1.661  0.00  0.00    +0.044 A 
ATOM     17  C   UNL     1      -0.354  -1.285   1.031  0.00  0.00    +0.027 A 
ENDBRANCH   1  16
BRANCH   6  18
ATOM     18  C   UNL     1      -2.800  -5.143   6.416  0.00  0.00    +0.065 A 
ATOM     19  C   UNL     1      -2.533  -5.010   7.773  0.00  0.00    +0.028 A 
ATOM     20  C   UNL     1      -3.367  -5.603   8.700  0.00  0.00    +0.002 A 
ATOM     21  C   UNL     1      -4.466  -6.329   8.280  0.00  0.00    +0.000 A 
ATOM     22  C   UNL     1      -4.735  -6.463   6.930  0.00  0.00    +0.002 A 
ATOM     23  C   UNL     1      -3.909  -5.868   5.997  0.00  0.00    +0.028 A 
ENDBRANCH   6  18
BRANCH   5  24
ATOM     24  C   UNL     1      -1.051  -6.667   4.619  0.00  0.00    -0.021 A 
ATOM     25  C   UNL     1      -0.668  -7.096   5.876  0.00  0.00    +0.013 A 
ATOM     26  C   UNL     1      -0.491  -8.444   6.123  0.00  0.00    +0.000 A 
ATOM     27  C   UNL     1      -0.698  -9.367   5.108  0.00  0.00    +0.124 A 
ATOM     28  C   UNL     1      -1.083  -8.934   3.848  0.00  0.00    +0.000 A 
ATOM     29  C   UNL     1      -1.264  -7.585   3.607  0.00  0.00    +0.013 A 
BRANCH  28  30
ATOM     30  C   UNL     1      -1.308  -9.934   2.743  0.00  0.00    -0.009 C 
ATOM     31  C   UNL     1      -1.722  -9.198   1.466  0.00  0.00    +0.015 C 
ATOM     32  C   UNL     1      -0.016 -10.712   2.487  0.00  0.00    +0.015 C 
ATOM     33  C   UNL     1      -2.417 -10.906   3.153  0.00  0.00    +0.015 C 
ENDBRANCH  28  30
BRANCH  26  34
ATOM     34  C   UNL     1      -0.073  -8.911   7.493  0.00  0.00    -0.009 C 
ATOM     35  C   UNL     1       0.087  -7.702   8.418  0.00  0.00    +0.015 C 
ATOM     36  C   UNL     1      -1.140  -9.850   8.060  0.00  0.00    +0.015 C 
ATOM     37  C   UNL     1       1.260  -9.656   7.393  0.00  0.00    +0.015 C 
ENDBRANCH  26  34
BRANCH  27  38
ATOM     38  O   UNL     1      -0.524 -10.693   5.348  0.00  0.00    -0.506 OA
ATOM     39  H   UNL     1      -1.322 -11.146   5.653  0.00  0.00    +0.292 HD
ENDBRANCH  27  38
ENDBRANCH   5  24
TORSDOF 6
