REMARK  Name = ZINC43093185
REMARK  7 active torsions:
REMARK  status: ('A' for Active; 'I' for Inactive)
REMARK    1  A    between atoms: C_1  and  C_2
REMARK    2  A    between atoms: C_6  and  C_23
REMARK    3  A    between atoms: N_9  and  C_10
REMARK    4  A    between atoms: C_10  and  C_12
REMARK    5  A    between atoms: C_10  and  C_19
REMARK    6  A    between atoms: C_19  and  C_21
REMARK    7  A    between atoms: C_19  and  N_22
REMARK                            x       y       z     vdW  Elec       q    Type
REMARK                         _______ _______ _______ _____ _____    ______ ____
ROOT
ATOM      1  C   UNL     1       0.257   0.031   2.272  0.00  0.00    -0.051 C 
ENDROOT
BRANCH   1   8
ATOM      2  C   UNL     1      -0.738   0.933  -0.195  0.00  0.00    -0.013 C 
ATOM      3  C   UNL     1      -0.070  -0.437  -0.057  0.00  0.00    -0.071 C 
ATOM      4  C   UNL     1       0.628  -0.798  -1.369  0.00  0.00    -0.015 C 
ATOM      5  C   UNL     1       1.295  -2.169  -1.227  0.00  0.00    +0.009 C 
ATOM      6  C   UNL     1       2.267  -2.133  -0.044  0.00  0.00    +0.058 C 
ATOM      7  C   UNL     1       1.508  -1.722   1.220  0.00  0.00    -0.065 C 
ATOM      8  N   UNL     1       0.917  -0.392   1.029  0.00  0.00    +0.385 N 
ATOM      9  H   UNL     1       1.643   0.268   0.795  0.00  0.00    -0.081 HD
BRANCH   6  10
ATOM     10  C   UNL     1       3.361  -1.134  -0.322  0.00  0.00    +0.212 C 
ATOM     11  O   UNL     1       3.588  -0.247   0.474  0.00  0.00    -0.276 OA
ATOM     12  N   UNL     1       4.085  -1.227  -1.454  0.00  0.00    -0.329 N 
ATOM     13  H   UNL     1       3.903  -1.936  -2.090  0.00  0.00    +0.145 HD
ATOM     14  H   UNL     1       4.790  -0.584  -1.633  0.00  0.00    +0.145 HD
ENDBRANCH   6  10
ENDBRANCH   1   8
BRANCH   1  15
ATOM     15  C   UNL     1      -1.018  -0.752   2.455  0.00  0.00    -0.049 A 
ATOM     16  C   UNL     1      -1.222  -1.918   1.741  0.00  0.00    +0.003 A 
ATOM     17  C   UNL     1      -2.391  -2.636   1.909  0.00  0.00    +0.000 A 
ATOM     18  C   UNL     1      -3.357  -2.188   2.791  0.00  0.00    +0.001 A 
ATOM     19  C   UNL     1      -3.154  -1.023   3.505  0.00  0.00    +0.015 A 
ATOM     20  C   UNL     1      -1.982  -0.306   3.341  0.00  0.00    +0.019 A 
ATOM     21 BR   UNL     1      -1.701   1.285   4.323  0.00  0.00    -0.050 Br
ENDBRANCH   1  15
BRANCH   1  22
ATOM     22  C   UNL     1       1.188  -0.227   3.458  0.00  0.00    -0.088 C 
ATOM     23  C   UNL     1       2.498   0.536   3.253  0.00  0.00    -0.016 C 
BRANCH  22  24
ATOM     24  N   UNL     1       0.543   0.230   4.696  0.00  0.00    +0.379 N 
ATOM     25  H   UNL     1      -0.321  -0.274   4.831  0.00  0.00    -0.090 HD
ATOM     26  H   UNL     1       1.157   0.060   5.478  0.00  0.00    -0.090 HD
ATOM     27  H   UNL     1       0.349   1.218   4.629  0.00  0.00    -0.090 HD
ENDBRANCH  22  24
ENDBRANCH   1  22
TORSDOF 5
