REMARK  Name = ZINC12559626
REMARK  8 active torsions:
REMARK  status: ('A' for Active; 'I' for Inactive)
REMARK    1  A    between atoms: C_1  and  N_2
REMARK    2  A    between atoms: C_6  and  C_7
REMARK    3  A    between atoms: C_7  and  C_9
REMARK    4  A    between atoms: C_7  and  N_16
REMARK    5  A    between atoms: N_16  and  C_17
REMARK    6  A    between atoms: C_20  and  S_26
REMARK    7  A    between atoms: C_22  and  N_23
REMARK    8  A    between atoms: S_26  and  C_29
REMARK                            x       y       z     vdW  Elec       q    Type
REMARK                         _______ _______ _______ _____ _____    ______ ____
ROOT
ATOM      1  N   UNL     1      -0.732  -1.044   3.793  0.00  0.00    -0.329 N 
ATOM      2  H   UNL     1      -0.295  -1.762   4.278  0.00  0.00    +0.147 HD
ENDROOT
BRANCH   1   3
ATOM      3  C   UNL     1      -2.123  -1.032   3.666  0.00  0.00    +0.059 A 
ATOM      4  C   UNL     1      -2.759   0.053   3.076  0.00  0.00    +0.027 A 
ATOM      5  C   UNL     1      -4.134   0.061   2.951  0.00  0.00    +0.029 A 
ATOM      6  C   UNL     1      -4.879  -1.009   3.414  0.00  0.00    +0.100 A 
ATOM      7  C   UNL     1      -4.249  -2.090   4.003  0.00  0.00    +0.062 A 
ATOM      8  C   UNL     1      -2.873  -2.108   4.125  0.00  0.00    +0.149 A 
BRANCH   8   9
ATOM      9  N   UNL     1      -2.199  -3.268   4.750  0.00  0.00    +0.058 N 
ATOM     10  O   UNL     1      -1.139  -3.656   4.317  0.00  0.00    -0.126 OA
ATOM     11  O   UNL     1      -2.709  -3.828   5.692  0.00  0.00    -0.126 OA
ENDBRANCH   8   9
BRANCH   6  12
ATOM     12  S   UNL     1      -6.633  -0.995   3.253  0.00  0.00    +0.091 S 
ATOM     13  O   UNL     1      -7.100  -1.834   4.301  0.00  0.00    -0.161 OA
ATOM     14  O   UNL     1      -6.982   0.382   3.218  0.00  0.00    -0.161 OA
BRANCH  12  15
ATOM     15  C   UNL     1      -6.960  -1.764   1.643  0.00  0.00    +0.526 C 
ATOM     16  F   UNL     1      -6.451  -3.067   1.637  0.00  0.00    -0.150 F 
ATOM     17  F   UNL     1      -8.340  -1.801   1.416  0.00  0.00    -0.150 F 
ATOM     18  F   UNL     1      -6.342  -1.016   0.635  0.00  0.00    -0.150 F 
ENDBRANCH  12  15
ENDBRANCH   6  12
ENDBRANCH   1   3
BRANCH   1  19
ATOM     19  C   UNL     1       0.067   0.028   3.194  0.00  0.00    +0.165 C 
BRANCH  19  25
ATOM     20  C   UNL     1       0.255   2.050   0.854  0.00  0.00    +0.150 C 
ATOM     21  N   UNL     1       0.419   0.598   0.741  0.00  0.00    -0.337 N 
ATOM     22  C   UNL     1       0.685  -0.102  -0.404  0.00  0.00    +0.104 A 
ATOM     23  C   UNL     1       0.756  -1.402  -0.059  0.00  0.00    +0.102 A 
ATOM     24  N   UNL     1       0.538  -1.492   1.262  0.00  0.00    -0.348 N 
ATOM     25  C   UNL     1       0.341  -0.298   1.748  0.00  0.00    +0.112 A 
ATOM     26  H   UNL     1       0.533  -2.316   1.775  0.00  0.00    +0.167 HD
ENDBRANCH  19  25
BRANCH  19  27
ATOM     27  C   UNL     1       1.373   0.155   3.936  0.00  0.00    -0.020 A 
ATOM     28  C   UNL     1       2.046  -0.979   4.349  0.00  0.00    +0.009 A 
ATOM     29  C   UNL     1       3.244  -0.864   5.029  0.00  0.00    +0.038 A 
ATOM     30  C   UNL     1       3.769   0.389   5.297  0.00  0.00    +0.123 A 
ATOM     31  C   UNL     1       3.093   1.525   4.883  0.00  0.00    +0.038 A 
ATOM     32  C   UNL     1       1.899   1.407   4.198  0.00  0.00    +0.009 A 
ATOM     33  F   UNL     1       4.939   0.504   5.962  0.00  0.00    -0.205 F 
ENDBRANCH  19  27
ENDBRANCH   1  19
TORSDOF 7
