REMARK  Name = ZINC09560494
REMARK  13 active torsions:
REMARK  status: ('A' for Active; 'I' for Inactive)
REMARK    1  A    between atoms: C_1  and  C_2
REMARK    2  A    between atoms: C_2  and  C_3
REMARK    3  A    between atoms: C_9  and  C_10
REMARK    4  A    between atoms: C_9  and  N_82
REMARK    5  A    between atoms: C_10  and  C_11
REMARK    6  A    between atoms: C_11  and  N_12
REMARK    7  A    between atoms: C_13  and  C_15
REMARK    8  A    between atoms: C_30  and  O_39
REMARK    9  A    between atoms: C_31  and  O_36
REMARK   10  A    between atoms: O_36  and  C_37
REMARK   11  A    between atoms: C_37  and  C_38
REMARK   12  A    between atoms: O_39  and  C_40
REMARK   13  A    between atoms: C_40  and  C_41
REMARK                            x       y       z     vdW  Elec       q    Type
REMARK                         _______ _______ _______ _____ _____    ______ ____
ROOT
ATOM      1  C   UNL     1      -2.545   0.158  -1.292  0.00  0.00    +0.130 C 
ATOM      2  C   UNL     1      -3.885   0.841  -1.299  0.00  0.00    -0.021 A 
ATOM      3  C   UNL     1      -4.960   0.286  -1.959  0.00  0.00    +0.005 A 
ATOM      4  C   UNL     1      -6.173   0.952  -1.987  0.00  0.00    +0.000 A 
ATOM      5  C   UNL     1      -6.314   2.175  -1.355  0.00  0.00    +0.001 A 
ATOM      6  C   UNL     1      -5.248   2.736  -0.681  0.00  0.00    +0.013 A 
ATOM      7  C   UNL     1      -4.027   2.066  -0.645  0.00  0.00    +0.041 A 
ATOM      8  C   UNL     1      -2.871   2.628   0.080  0.00  0.00    +0.247 C 
ATOM      9  O   UNL     1      -2.889   3.786   0.449  0.00  0.00    -0.270 OA
ATOM     10  N   UNL     1      -1.788   1.851   0.334  0.00  0.00    -0.289 N 
ATOM     11  C   UNL     1      -1.816   0.432   0.025  0.00  0.00    +0.123 C 
ATOM     12  C   UNL     1      -0.443  -0.177  -0.053  0.00  0.00    -0.019 A 
ATOM     13  C   UNL     1      -0.357  -1.543  -0.302  0.00  0.00    +0.055 A 
ATOM     14  C   UNL     1       0.873  -2.169  -0.372  0.00  0.00    +0.162 A 
ATOM     15  C   UNL     1       2.036  -1.425  -0.191  0.00  0.00    +0.162 A 
ATOM     16  C   UNL     1       1.946  -0.068   0.054  0.00  0.00    +0.053 A 
ATOM     17  C   UNL     1       0.707   0.557   0.119  0.00  0.00    -0.037 A 
ATOM     18  C   UNL     1       0.676   2.038   0.370  0.00  0.00    +0.054 C 
ATOM     19  C   UNL     1      -0.639   2.487   0.970  0.00  0.00    +0.113 C 
ENDROOT
BRANCH   1  21
ATOM     20  N   UNL     1      -2.151   0.531  -3.706  0.00  0.00    -0.315 N 
ATOM     21  C   UNL     1      -1.715   0.677  -2.439  0.00  0.00    +0.223 C 
ATOM     22  O   UNL     1      -0.656   1.225  -2.221  0.00  0.00    -0.275 OA
ATOM     23  H   UNL     1      -2.998   0.092  -3.880  0.00  0.00    +0.149 HD
BRANCH  20  24
ATOM     24  C   UNL     1      -1.345   1.035  -4.820  0.00  0.00    +0.102 C 
BRANCH  24  25
ATOM     25  C   UNL     1      -2.061   0.743  -6.140  0.00  0.00    +0.000 C 
BRANCH  25  26
ATOM     26  C   UNL     1      -1.219   1.270  -7.304  0.00  0.00    -0.077 C 
BRANCH  26  32
ATOM     27  C   UNL     1      -1.038   1.287  -9.718  0.00  0.00    -0.069 C 
ATOM     28  C   UNL     1      -1.730   0.848 -11.011  0.00  0.00    -0.015 C 
ATOM     29  C   UNL     1      -3.061   1.592 -11.149  0.00  0.00    -0.003 C 
ATOM     30  C   UNL     1      -3.928   1.305  -9.920  0.00  0.00    -0.019 C 
ATOM     31  C   UNL     1      -3.172   1.730  -8.659  0.00  0.00    -0.078 C 
ATOM     32  N   UNL     1      -1.913   0.961  -8.572  0.00  0.00    +0.382 N 
ATOM     33  H   UNL     1      -2.132  -0.042  -8.595  0.00  0.00    -0.081 HD
BRANCH  27  35
ATOM     34  C   UNL     1       1.205   0.874 -10.738  0.00  0.00    +0.002 C 
ATOM     35  C   UNL     1       0.283   0.531  -9.566  0.00  0.00    -0.019 C 
ENDBRANCH  27  35
ENDBRANCH  26  32
ENDBRANCH  25  26
ENDBRANCH  24  25
ENDBRANCH  20  24
ENDBRANCH   1  21
BRANCH  15  36
ATOM     36  O   UNL     1       3.252  -2.031  -0.254  0.00  0.00    -0.489 OA
BRANCH  36  37
ATOM     37  C   UNL     1       4.400  -1.203  -0.057  0.00  0.00    +0.226 C 
ATOM     38  C   UNL     1       5.667  -2.054  -0.163  0.00  0.00    +0.048 C 
ENDBRANCH  36  37
ENDBRANCH  15  36
BRANCH  14  39
ATOM     39  O   UNL     1       0.947  -3.505  -0.618  0.00  0.00    -0.489 OA
BRANCH  39  40
ATOM     40  C   UNL     1      -0.288  -4.201  -0.794  0.00  0.00    +0.226 C 
ATOM     41  C   UNL     1      -0.005  -5.681  -1.058  0.00  0.00    +0.048 C 
ENDBRANCH  39  40
ENDBRANCH  14  39
TORSDOF 10
