REMARK  Name = ZINC63272600
REMARK  10 active torsions:
REMARK  status: ('A' for Active; 'I' for Inactive)
REMARK    1  A    between atoms: C_1  and  C_2
REMARK    2  A    between atoms: C_3  and  C_32
REMARK    3  A    between atoms: N_6  and  C_21
REMARK    4  A    between atoms: C_10  and  N_11
REMARK    5  A    between atoms: N_11  and  C_12
REMARK    6  A    between atoms: C_15  and  N_18
REMARK    7  A    between atoms: N_18  and  C_19
REMARK    8  A    between atoms: N_18  and  C_20
REMARK    9  A    between atoms: C_21  and  C_22
REMARK   10  A    between atoms: C_22  and  C_23
REMARK                            x       y       z     vdW  Elec       q    Type
REMARK                         _______ _______ _______ _____ _____    ______ ____
ROOT
ATOM      1  C   UNL     1      -0.137   1.489   0.006  0.00  0.00    +0.046 C 
ATOM      2  C   UNL     1      -0.011  -0.013   0.002  0.00  0.00    -0.015 C 
ATOM      3  C   UNL     1       0.038  -0.715  -1.194  0.00  0.00    +0.118 C 
ATOM      4  C   UNL     1       0.160  -2.173  -1.171  0.00  0.00    +0.264 C 
ATOM      5  O   UNL     1       0.203  -2.790  -2.220  0.00  0.00    -0.269 OA
ATOM      6  N   UNL     1       0.226  -2.841  -0.006  0.00  0.00    -0.233 N 
ATOM      7  C   UNL     1       0.182  -2.196   1.173  0.00  0.00    +0.255 C 
ATOM      8  O   UNL     1       0.244  -2.828   2.212  0.00  0.00    -0.269 OA
ATOM      9  C   UNL     1       0.066  -0.732   1.215  0.00  0.00    +0.055 C 
ATOM     10  C   UNL     1       0.026  -0.063   2.435  0.00  0.00    +0.085 C 
ENDROOT
BRANCH  10  11
ATOM     11  N   UNL     1      -0.055  -0.760   3.582  0.00  0.00    -0.320 N 
ATOM     12  H   UNL     1      -0.042  -1.730   3.562  0.00  0.00    +0.152 HD
BRANCH  11  13
ATOM     13  C   UNL     1      -0.158  -0.087   4.804  0.00  0.00    +0.031 A 
ATOM     14  C   UNL     1      -0.182   1.302   4.832  0.00  0.00    +0.025 A 
ATOM     15  C   UNL     1      -0.285   1.966   6.037  0.00  0.00    +0.025 A 
ATOM     16  C   UNL     1      -0.363   1.246   7.223  0.00  0.00    +0.029 A 
ATOM     17  C   UNL     1      -0.338  -0.142   7.195  0.00  0.00    +0.025 A 
ATOM     18  C   UNL     1      -0.242  -0.807   5.989  0.00  0.00    +0.025 A 
BRANCH  16  19
ATOM     19  N   UNL     1      -0.465   1.919   8.444  0.00  0.00    -0.336 N 
ATOM     20  C   UNL     1      -0.490   3.384   8.474  0.00  0.00    +0.129 C 
ATOM     21  C   UNL     1      -0.547   1.160   9.694  0.00  0.00    +0.129 C 
ENDBRANCH  16  19
ENDBRANCH  11  13
ENDBRANCH  10  11
BRANCH   3  22
ATOM     22  C   UNL     1      -0.032  -0.017  -2.443  0.00  0.00    +0.105 C 
ATOM     23  N   UNL     1      -0.087   0.537  -3.433  0.00  0.00    -0.191 NA
ENDBRANCH   3  22
BRANCH   6  24
ATOM     24  C   UNL     1       0.349  -4.300  -0.021  0.00  0.00    +0.121 C 
BRANCH  24  25
ATOM     25  C   UNL     1       1.829  -4.688  -0.039  0.00  0.00    +0.052 C 
BRANCH  25  26
ATOM     26  C   UNL     1       1.955  -6.189  -0.055  0.00  0.00    -0.040 C 
ATOM     27  C   UNL     1       2.112  -6.981  -1.141  0.00  0.00    -0.001 A 
ATOM     28  C   UNL     1       2.208  -6.692  -2.576  0.00  0.00    +0.010 A 
ATOM     29  C   UNL     1       2.365  -7.718  -3.443  0.00  0.00    +0.001 A 
ATOM     30  C   UNL     1       2.439  -9.048  -3.005  0.00  0.00    +0.002 A 
ATOM     31  C   UNL     1       2.359  -9.392  -1.702  0.00  0.00    +0.026 A 
ATOM     32  C   UNL     1       2.193  -8.393  -0.704  0.00  0.00    +0.043 A 
ATOM     33  N   UNL     1       2.091  -8.472   0.601  0.00  0.00    -0.380 N 
ATOM     34  C   UNL     1       1.938  -7.116   1.140  0.00  0.00    +0.144 C 
ATOM     35  H   UNL     1       2.115  -9.289   1.122  0.00  0.00    +0.160 HD
ENDBRANCH  25  26
ENDBRANCH  24  25
ENDBRANCH   6  24
TORSDOF 7
