REMARK  Name = ZINC66405812
REMARK  9 active torsions:
REMARK  status: ('A' for Active; 'I' for Inactive)
REMARK    1  A    between atoms: C_1  and  C_2
REMARK    2  A    between atoms: C_5  and  N_8
REMARK    3  A    between atoms: C_9  and  C_11
REMARK    4  A    between atoms: C_11  and  C_23
REMARK    5  A    between atoms: C_12  and  C_13
REMARK    6  A    between atoms: C_18  and  C_19
REMARK    7  A    between atoms: C_19  and  C_20
REMARK    8  A    between atoms: C_19  and  C_21
REMARK    9  A    between atoms: C_19  and  C_22
REMARK                            x       y       z     vdW  Elec       q    Type
REMARK                         _______ _______ _______ _____ _____    ______ ____
ROOT
ATOM      1  C   UNL     1      -0.080  -6.372   1.155  0.00  0.00    +0.114 C 
ATOM      2  C   UNL     1       0.320  -7.016   2.308  0.00  0.00    +0.035 C 
ENDROOT
BRANCH   2   3
ATOM      3  C   UNL     1       0.317  -6.299   3.584  0.00  0.00    +0.017 A 
ATOM      4  C   UNL     1       0.772  -5.008   3.806  0.00  0.00    +0.113 A 
ATOM      5  N   UNL     1       0.589  -4.738   5.108  0.00  0.00    -0.284 N 
ATOM      6  H   UNL     1       0.816  -3.906   5.551  0.00  0.00    +0.188 HD
ATOM      7  N   UNL     1       0.015  -5.858   5.720  0.00  0.00    -0.178 NA
ATOM      8  C   UNL     1      -0.157  -6.791   4.825  0.00  0.00    +0.075 A 
BRANCH   8   9
ATOM      9  C   UNL     1      -0.752  -8.153   5.069  0.00  0.00    +0.007 C 
ATOM     10  C   UNL     1       0.274  -9.230   4.711  0.00  0.00    +0.017 C 
ATOM     11  C   UNL     1      -1.137  -8.285   6.544  0.00  0.00    +0.017 C 
ATOM     12  C   UNL     1      -1.999  -8.328   4.200  0.00  0.00    +0.017 C 
ENDBRANCH   8   9
ENDBRANCH   2   3
BRANCH   1  14
ATOM     13  N   UNL     1      -0.948  -4.348   0.103  0.00  0.00    -0.281 N 
ATOM     14  C   UNL     1      -0.689  -5.037   1.232  0.00  0.00    +0.259 C 
ATOM     15  O   UNL     1      -0.961  -4.554   2.315  0.00  0.00    -0.269 OA
ATOM     16  H   UNL     1      -0.790  -4.758  -0.762  0.00  0.00    +0.155 HD
BRANCH  13  21
ATOM     17  C   UNL     1      -2.958   0.947   0.408  0.00  0.00    +0.044 C 
ATOM     18  C   UNL     1      -2.424  -0.460   0.327  0.00  0.00    -0.050 A 
ATOM     19  C   UNL     1      -1.544  -0.807  -0.682  0.00  0.00    +0.005 A 
ATOM     20  C   UNL     1      -1.053  -2.095  -0.759  0.00  0.00    +0.023 A 
ATOM     21  C   UNL     1      -1.443  -3.043   0.178  0.00  0.00    +0.034 A 
ATOM     22  C   UNL     1      -2.327  -2.691   1.190  0.00  0.00    +0.023 A 
ATOM     23  C   UNL     1      -2.810  -1.399   1.265  0.00  0.00    +0.005 A 
ENDBRANCH  13  21
ENDBRANCH   1  14
BRANCH   1  24
ATOM     24  C   UNL     1       0.100  -7.005  -0.117  0.00  0.00    +0.104 C 
ATOM     25  N   UNL     1       0.242  -7.508  -1.126  0.00  0.00    -0.191 NA
ENDBRANCH   1  24
TORSDOF 5
