REMARK  Name = ZINC52569924
REMARK  10 active torsions:
REMARK  status: ('A' for Active; 'I' for Inactive)
REMARK    1  A    between atoms: C_1  and  C_2
REMARK    2  A    between atoms: C_5  and  C_12
REMARK    3  A    between atoms: C_14  and  O_24
REMARK    4  A    between atoms: C_17  and  C_18
REMARK    5  A    between atoms: C_22  and  C_23
REMARK    6  A    between atoms: O_24  and  C_25
REMARK    7  A    between atoms: C_25  and  C_26
REMARK    8  A    between atoms: C_26  and  C_28
REMARK    9  A    between atoms: C_26  and  N_38
REMARK   10  A    between atoms: C_28  and  C_29
REMARK                            x       y       z     vdW  Elec       q    Type
REMARK                         _______ _______ _______ _____ _____    ______ ____
ROOT
ATOM      1  C   UNL     1      -5.778   1.948  -0.025  0.00  0.00    +0.012 A 
ATOM      2  C   UNL     1      -6.045   0.749   0.636  0.00  0.00    +0.057 A 
ATOM      3  C   UNL     1      -7.004   0.749   1.642  0.00  0.00    +0.139 A 
ATOM      4  C   UNL     1      -7.662   1.931   1.956  0.00  0.00    +0.157 A 
ATOM      5  N   UNL     1      -7.391   3.051   1.317  0.00  0.00    -0.251 NA
ATOM      6  C   UNL     1      -6.482   3.103   0.354  0.00  0.00    +0.082 A 
ENDROOT
BRANCH   1  11
ATOM      7  C   UNL     1      -0.251   0.741  -0.861  0.00  0.00    +0.068 C 
ATOM      8  C   UNL     1      -1.103   1.297  -1.974  0.00  0.00    +0.067 A 
ATOM      9  C   UNL     1      -2.518   1.643  -1.883  0.00  0.00    +0.023 A 
ATOM     10  C   UNL     1      -3.466   1.587  -0.857  0.00  0.00    +0.020 A 
ATOM     11  C   UNL     1      -4.765   2.004  -1.106  0.00  0.00    -0.015 A 
ATOM     12  C   UNL     1      -5.122   2.477  -2.375  0.00  0.00    +0.010 A 
ATOM     13  C   UNL     1      -4.203   2.534  -3.380  0.00  0.00    +0.028 A 
ATOM     14  C   UNL     1      -2.891   2.122  -3.155  0.00  0.00    +0.066 A 
ATOM     15  N   UNL     1      -1.771   2.062  -3.942  0.00  0.00    -0.277 N 
ATOM     16  N   UNL     1      -0.706   1.560  -3.186  0.00  0.00    -0.178 NA
ATOM     17  H   UNL     1      -1.723   2.327  -4.873  0.00  0.00    +0.189 HD
ENDBRANCH   1  11
BRANCH   6  18
ATOM     18  C   UNL     1      -6.209   4.388  -0.331  0.00  0.00    +0.042 A 
ATOM     19  C   UNL     1      -4.896   4.988  -0.599  0.00  0.00    +0.051 A 
ATOM     20  C   UNL     1      -5.141   6.145  -1.237  0.00  0.00    +0.196 A 
ATOM     21  O   UNL     1      -6.467   6.295  -1.378  0.00  0.00    -0.467 OA
ATOM     22  C   UNL     1      -7.122   5.253  -0.847  0.00  0.00    +0.111 A 
ATOM     23  C   UNL     1      -8.618   5.072  -0.825  0.00  0.00    +0.087 C 
ENDBRANCH   6  18
BRANCH   3  24
ATOM     24  O   UNL     1      -7.296  -0.397   2.311  0.00  0.00    -0.492 OA
BRANCH  24  25
ATOM     25  C   UNL     1      -8.293  -0.317   3.332  0.00  0.00    +0.213 C 
BRANCH  25  26
ATOM     26  C   UNL     1      -8.483  -1.695   3.969  0.00  0.00    -0.033 C 
BRANCH  26  27
ATOM     27  N   UNL     1      -7.249  -2.089   4.661  0.00  0.00    +0.382 N 
ATOM     28  H   UNL     1      -7.375  -2.998   5.081  0.00  0.00    -0.089 HD
ATOM     29  H   UNL     1      -6.489  -2.127   3.998  0.00  0.00    -0.089 HD
ATOM     30  H   UNL     1      -7.036  -1.413   5.379  0.00  0.00    -0.089 HD
ENDBRANCH  26  27
BRANCH  26  31
ATOM     31  C   UNL     1      -9.636  -1.638   4.973  0.00  0.00    +0.020 C 
BRANCH  31  32
ATOM     32  C   UNL     1      -9.904  -3.020   5.510  0.00  0.00    -0.043 C 
ATOM     33  C   UNL     1      -9.419  -3.558   6.652  0.00  0.00    -0.001 A 
ATOM     34  C   UNL     1      -8.530  -3.036   7.697  0.00  0.00    +0.010 A 
ATOM     35  C   UNL     1      -8.215  -3.829   8.747  0.00  0.00    +0.001 A 
ATOM     36  C   UNL     1      -8.715  -5.133   8.861  0.00  0.00    +0.002 A 
ATOM     37  C   UNL     1      -9.537  -5.682   7.942  0.00  0.00    +0.026 A 
ATOM     38  C   UNL     1      -9.934  -4.938   6.797  0.00  0.00    +0.043 A 
ATOM     39  N   UNL     1     -10.707  -5.242   5.783  0.00  0.00    -0.380 N 
ATOM     40  C   UNL     1     -10.775  -4.086   4.882  0.00  0.00    +0.144 C 
ATOM     41  H   UNL     1     -11.161  -6.089   5.652  0.00  0.00    +0.160 HD
ENDBRANCH  31  32
ENDBRANCH  26  31
ENDBRANCH  25  26
ENDBRANCH  24  25
ENDBRANCH   3  24
TORSDOF 8
