REMARK  Name = ZINC22877032
REMARK  9 active torsions:
REMARK  status: ('A' for Active; 'I' for Inactive)
REMARK    1  A    between atoms: C_1  and  C_2
REMARK    2  A    between atoms: C_2  and  O_3
REMARK    3  A    between atoms: O_3  and  C_4
REMARK    4  A    between atoms: C_7  and  S_10
REMARK    5  A    between atoms: S_10  and  N_13
REMARK    6  A    between atoms: N_13  and  C_14
REMARK    7  A    between atoms: C_17  and  C_20
REMARK    8  A    between atoms: N_22  and  N_23
REMARK    9  A    between atoms: C_24  and  C_26
REMARK                            x       y       z     vdW  Elec       q    Type
REMARK                         _______ _______ _______ _____ _____    ______ ____
ROOT
ATOM      1  C   UNL     1      -4.828  -0.568   0.044  0.00  0.00    +0.048 A 
ATOM      2  C   UNL     1      -4.826   0.822   0.125  0.00  0.00    +0.025 A 
ATOM      3  C   UNL     1      -3.634   1.509   0.147  0.00  0.00    +0.015 A 
ATOM      4  C   UNL     1      -2.425   0.810   0.088  0.00  0.00    +0.038 A 
ATOM      5  C   UNL     1      -2.430  -0.585   0.001  0.00  0.00    +0.015 A 
ATOM      6  C   UNL     1      -3.626  -1.267  -0.015  0.00  0.00    +0.025 A 
ENDROOT
BRANCH   4   7
ATOM      7  C   UNL     1      -1.145   1.544   0.111  0.00  0.00    +0.260 C 
ATOM      8  O   UNL     1      -1.142   2.758   0.181  0.00  0.00    -0.269 OA
ATOM      9  N   UNL     1       0.020   0.869   0.053  0.00  0.00    -0.230 N 
ATOM     10  H   UNL     1       0.017  -0.229  -0.006  0.00  0.00    +0.173 HD
BRANCH   9  11
ATOM     11  N   UNL     1       1.235   1.566   0.069  0.00  0.00    -0.230 N 
ATOM     12  C   UNL     1       2.400   0.892   0.006  0.00  0.00    +0.267 C 
ATOM     13  O   UNL     1       2.397  -0.323  -0.065  0.00  0.00    -0.268 OA
ATOM     14  H   UNL     1       1.238   2.665   0.133  0.00  0.00    +0.173 HD
BRANCH  12  15
ATOM     15  C   UNL     1       3.675   1.623   0.022  0.00  0.00    +0.076 A 
ATOM     16  C   UNL     1       4.939   1.125  -0.027  0.00  0.00    +0.029 A 
ATOM     17  C   UNL     1       6.040   1.999  -0.004  0.00  0.00    -0.010 A 
ATOM     18  C   UNL     1       7.420   1.675  -0.051  0.00  0.00    +0.009 A 
ATOM     19  C   UNL     1       8.365   2.650  -0.013  0.00  0.00    +0.001 A 
ATOM     20  C   UNL     1       8.021   3.994   0.072  0.00  0.00    +0.001 A 
ATOM     21  C   UNL     1       6.690   4.354   0.120  0.00  0.00    +0.015 A 
ATOM     22  C   UNL     1       5.720   3.375   0.083  0.00  0.00    +0.020 A 
ATOM     23  S   UNL     1       3.945   3.385   0.120  0.00  0.00    -0.084 S 
ENDBRANCH  12  15
ENDBRANCH   9  11
ENDBRANCH   4   7
BRANCH   1  24
ATOM     24  N   UNL     1      -6.034  -1.260   0.022  0.00  0.00    -0.216 N 
ATOM     25  H   UNL     1      -6.829  -1.003   0.738  0.00  0.00    +0.174 HD
BRANCH  24  26
ATOM     26  S   UNL     1      -6.274  -2.470  -1.083  0.00  0.00    +0.072 S 
ATOM     27  O   UNL     1      -5.170  -3.356  -0.961  0.00  0.00    -0.150 OA
ATOM     28  O   UNL     1      -7.619  -2.902  -0.925  0.00  0.00    -0.150 OA
BRANCH  26  32
ATOM     29  C   UNL     1      -5.989  -0.602  -5.198  0.00  0.00    +0.121 A 
ATOM     30  C   UNL     1      -4.875  -1.203  -4.629  0.00  0.00    +0.047 A 
ATOM     31  C   UNL     1      -4.965  -1.772  -3.373  0.00  0.00    +0.032 A 
ATOM     32  C   UNL     1      -6.163  -1.743  -2.684  0.00  0.00    +0.109 A 
ATOM     33  C   UNL     1      -7.276  -1.150  -3.252  0.00  0.00    +0.032 A 
ATOM     34  C   UNL     1      -7.190  -0.575  -4.505  0.00  0.00    +0.047 A 
BRANCH  29  35
ATOM     35  O   UNL     1      -5.903  -0.041  -6.433  0.00  0.00    -0.492 OA
BRANCH  35  37
ATOM     36  C   UNL     1      -6.800   1.133  -8.345  0.00  0.00    +0.048 C 
ATOM     37  C   UNL     1      -7.089   0.559  -6.957  0.00  0.00    +0.225 C 
ENDBRANCH  35  37
ENDBRANCH  29  35
ENDBRANCH  26  32
ENDBRANCH  24  26
ENDBRANCH   1  24
TORSDOF 8
