REMARK  Name = ZINC64701878
REMARK  8 active torsions:
REMARK  status: ('A' for Active; 'I' for Inactive)
REMARK    1  A    between atoms: C_7  and  C_10
REMARK    2  A    between atoms: C_10  and  C_11
REMARK    3  A    between atoms: C_11  and  C_13
REMARK    4  A    between atoms: C_11  and  N_28
REMARK    5  A    between atoms: N_15  and  C_16
REMARK    6  A    between atoms: C_16  and  C_17
REMARK    7  A    between atoms: C_17  and  C_18
REMARK    8  A    between atoms: C_29  and  C_31
REMARK                            x       y       z     vdW  Elec       q    Type
REMARK                         _______ _______ _______ _____ _____    ______ ____
ROOT
ATOM      1  C   UNL     1       0.576  -3.621  -1.486  0.00  0.00    +0.163 C 
ENDROOT
BRANCH   1   2
ATOM      2  C   UNL     1      -0.522  -4.607  -1.793  0.00  0.00    +0.234 C 
ATOM      3  O   UNL     1      -0.258  -5.660  -2.334  0.00  0.00    -0.274 OA
ATOM      4  N   UNL     1      -1.797  -4.319  -1.465  0.00  0.00    -0.313 N 
ATOM      5  H   UNL     1      -2.009  -3.477  -1.032  0.00  0.00    +0.149 HD
BRANCH   4   6
ATOM      6  C   UNL     1      -2.864  -5.278  -1.763  0.00  0.00    +0.109 C 
BRANCH   6   7
ATOM      7  C   UNL     1      -4.205  -4.711  -1.293  0.00  0.00    +0.054 C 
BRANCH   7   8
ATOM      8  C   UNL     1      -5.303  -5.697  -1.600  0.00  0.00    -0.042 A 
ATOM      9  C   UNL     1      -5.961  -5.641  -2.814  0.00  0.00    +0.007 A 
ATOM     10  C   UNL     1      -6.969  -6.543  -3.098  0.00  0.00    +0.050 A 
ATOM     11  C   UNL     1      -7.323  -7.506  -2.166  0.00  0.00    +0.162 A 
ATOM     12  C   UNL     1      -6.659  -7.564  -0.946  0.00  0.00    +0.162 A 
ATOM     13  C   UNL     1      -5.646  -6.659  -0.669  0.00  0.00    +0.053 A 
ATOM     14  O   UNL     1      -6.985  -8.507  -0.020  0.00  0.00    -0.485 OA
ATOM     15  C   UNL     1      -8.248  -9.161  -0.184  0.00  0.00    +0.270 C 
ATOM     16  C   UNL     1      -8.391  -9.569  -1.656  0.00  0.00    +0.270 C 
ATOM     17  O   UNL     1      -8.320  -8.385  -2.458  0.00  0.00    -0.485 OA
ENDBRANCH   7   8
ENDBRANCH   6   7
ENDBRANCH   4   6
ENDBRANCH   1   2
BRANCH   1  18
ATOM     18  N   UNL     1       1.860  -4.164  -1.937  0.00  0.00    -0.300 N 
ATOM     19  C   UNL     1       2.854  -3.329  -2.298  0.00  0.00    +0.245 C 
ATOM     20  O   UNL     1       2.686  -2.126  -2.251  0.00  0.00    -0.270 OA
ATOM     21  H   UNL     1       1.994  -5.124  -1.974  0.00  0.00    +0.150 HD
BRANCH  19  22
ATOM     22  C   UNL     1       4.149  -3.877  -2.752  0.00  0.00    +0.037 A 
ATOM     23  C   UNL     1       4.343  -5.258  -2.813  0.00  0.00    +0.016 A 
ATOM     24  C   UNL     1       5.553  -5.764  -3.237  0.00  0.00    +0.039 A 
ATOM     25  C   UNL     1       6.577  -4.903  -3.603  0.00  0.00    +0.123 A 
ATOM     26  C   UNL     1       6.390  -3.531  -3.544  0.00  0.00    +0.039 A 
ATOM     27  C   UNL     1       5.182  -3.015  -3.127  0.00  0.00    +0.016 A 
ATOM     28  F   UNL     1       7.761  -5.404  -4.017  0.00  0.00    -0.205 F 
ENDBRANCH  19  22
ENDBRANCH   1  18
BRANCH   1  29
ATOM     29  C   UNL     1       0.629  -3.370   0.022  0.00  0.00    +0.065 C 
BRANCH  29  36
ATOM     30  C   UNL     1       4.573  -5.191   1.500  0.00  0.00    +0.001 A 
ATOM     31  C   UNL     1       4.418  -6.436   2.124  0.00  0.00    +0.002 A 
ATOM     32  C   UNL     1       3.216  -7.033   2.273  0.00  0.00    +0.026 A 
ATOM     33  C   UNL     1       2.036  -6.404   1.787  0.00  0.00    +0.043 A 
ATOM     34  N   UNL     1       0.778  -6.773   1.809  0.00  0.00    -0.380 N 
ATOM     35  C   UNL     1      -0.025  -5.731   1.160  0.00  0.00    +0.144 C 
ATOM     36  C   UNL     1       0.952  -4.658   0.735  0.00  0.00    -0.039 C 
ATOM     37  C   UNL     1       2.173  -5.088   1.123  0.00  0.00    -0.001 A 
ATOM     38  C   UNL     1       3.516  -4.508   1.003  0.00  0.00    +0.010 A 
ATOM     39  H   UNL     1       0.436  -7.597   2.190  0.00  0.00    +0.160 HD
ENDBRANCH  29  36
ENDBRANCH   1  29
TORSDOF 8
