REMARK  Name = ZINC58019885
REMARK  7 active torsions:
REMARK  status: ('A' for Active; 'I' for Inactive)
REMARK    1  A    between atoms: C_1  and  C_2
REMARK    2  A    between atoms: C_2  and  C_4
REMARK    3  A    between atoms: C_2  and  N_14
REMARK    4  A    between atoms: C_15  and  C_17
REMARK    5  A    between atoms: C_17  and  N_18
REMARK    6  A    between atoms: N_21  and  C_24
REMARK    7  A    between atoms: C_29  and  O_30
REMARK                            x       y       z     vdW  Elec       q    Type
REMARK                         _______ _______ _______ _____ _____    ______ ____
ROOT
ATOM      1  N   UNL     1       0.754  -0.619   1.099  0.00  0.00    -0.308 N 
ATOM      2  C   UNL     1       2.101  -0.643   1.062  0.00  0.00    +0.228 C 
ATOM      3  O   UNL     1       2.691  -0.156   0.121  0.00  0.00    -0.274 OA
ATOM      4  H   UNL     1       0.282  -1.009   1.851  0.00  0.00    +0.149 HD
ENDROOT
BRANCH   1   6
ATOM      5  C   UNL     1      -0.150   1.495   0.266  0.00  0.00    +0.033 C 
ATOM      6  C   UNL     1       0.002  -0.004   0.002  0.00  0.00    +0.101 C 
BRANCH   6   7
ATOM      7  C   UNL     1      -1.362  -0.638  -0.090  0.00  0.00    -0.020 A 
ATOM      8  C   UNL     1      -1.935  -1.192   1.014  0.00  0.00    +0.006 A 
ATOM      9  C   UNL     1      -3.195  -1.783   0.948  0.00  0.00    +0.001 A 
ATOM     10  C   UNL     1      -3.889  -1.824  -0.222  0.00  0.00    +0.008 A 
ATOM     11  C   UNL     1      -3.330  -1.263  -1.382  0.00  0.00    -0.018 A 
ATOM     12  C   UNL     1      -2.051  -0.657  -1.314  0.00  0.00    -0.013 A 
ATOM     13  C   UNL     1      -1.495  -0.090  -2.474  0.00  0.00    +0.009 A 
ATOM     14  C   UNL     1      -2.192  -0.127  -3.642  0.00  0.00    +0.001 A 
ATOM     15  C   UNL     1      -3.452  -0.717  -3.708  0.00  0.00    +0.001 A 
ATOM     16  C   UNL     1      -4.017  -1.288  -2.608  0.00  0.00    +0.008 A 
ENDBRANCH   6   7
ENDBRANCH   1   6
BRANCH   2  17
ATOM     17  C   UNL     1       2.874  -1.276   2.190  0.00  0.00    +0.180 C 
BRANCH  17  18
ATOM     18  N   UNL     1       4.314  -1.174   1.915  0.00  0.00    -0.291 NA
ATOM     19  C   UNL     1       4.753   0.227   1.923  0.00  0.00    +0.104 C 
ATOM     20  C   UNL     1       6.211   0.304   1.456  0.00  0.00    +0.120 C 
ATOM     21  N   UNL     1       7.016  -0.605   2.285  0.00  0.00    -0.325 N 
ATOM     22  C   UNL     1       6.561  -1.995   2.437  0.00  0.00    +0.120 C 
ATOM     23  C   UNL     1       5.090  -1.982   2.865  0.00  0.00    +0.104 C 
BRANCH  21  24
ATOM     24  C   UNL     1       8.185  -0.159   2.913  0.00  0.00    +0.072 A 
ATOM     25  C   UNL     1       8.127   0.372   4.194  0.00  0.00    +0.027 A 
ATOM     26  C   UNL     1       9.283   0.811   4.812  0.00  0.00    +0.002 A 
ATOM     27  C   UNL     1      10.497   0.723   4.158  0.00  0.00    +0.004 A 
ATOM     28  C   UNL     1      10.562   0.194   2.881  0.00  0.00    +0.047 A 
ATOM     29  C   UNL     1       9.410  -0.253   2.257  0.00  0.00    +0.138 A 
BRANCH  29  30
ATOM     30  O   UNL     1       9.473  -0.777   1.004  0.00  0.00    -0.505 OA
ATOM     31  H   UNL     1       9.369  -0.124   0.298  0.00  0.00    +0.292 HD
ENDBRANCH  29  30
ENDBRANCH  21  24
ENDBRANCH  17  18
ENDBRANCH   2  17
TORSDOF 6
