REMARK  Name = ZINC35955433
REMARK  7 active torsions:
REMARK  status: ('A' for Active; 'I' for Inactive)
REMARK    1  A    between atoms: C_4  and  S_7
REMARK    2  A    between atoms: S_7  and  N_10
REMARK    3  A    between atoms: N_10  and  C_11
REMARK    4  A    between atoms: N_10  and  C_19
REMARK    5  A    between atoms: C_11  and  C_12
REMARK    6  A    between atoms: C_25  and  N_27
REMARK    7  A    between atoms: C_28  and  C_30
REMARK                            x       y       z     vdW  Elec       q    Type
REMARK                         _______ _______ _______ _____ _____    ______ ____
ROOT
ATOM      1  N   UNL     1       4.425  -1.132   1.440  0.00  0.00    -0.167 NA
ENDROOT
BRANCH   1   2
ATOM      2  C   UNL     1       5.474  -0.232   1.926  0.00  0.00    +0.100 C 
ATOM      3  C   UNL     1       6.787  -1.006   2.064  0.00  0.00    +0.022 C 
ATOM      4  C   UNL     1       7.882  -0.067   2.572  0.00  0.00    +0.002 C 
ATOM      5  C   UNL     1       7.478   0.498   3.936  0.00  0.00    +0.002 C 
ATOM      6  C   UNL     1       6.165   1.272   3.798  0.00  0.00    +0.024 C 
ATOM      7  C   UNL     1       5.070   0.332   3.290  0.00  0.00    +0.092 C 
BRANCH   7   8
ATOM      8  N   UNL     1       3.813   1.073   3.158  0.00  0.00    -0.311 N 
ATOM      9  C   UNL     1       3.006   1.226   4.227  0.00  0.00    +0.215 C 
ATOM     10  O   UNL     1       3.320   0.750   5.297  0.00  0.00    -0.276 OA
ATOM     11  H   UNL     1       3.561   1.453   2.302  0.00  0.00    +0.149 HD
BRANCH   9  12
ATOM     12  C   UNL     1       1.713   1.988   4.092  0.00  0.00    +0.058 C 
ATOM     13  C   UNL     1       2.009   3.423   3.646  0.00  0.00    +0.009 C 
ATOM     14  C   UNL     1       0.697   4.210   3.588  0.00  0.00    -0.018 C 
ATOM     15  C   UNL     1       0.015   4.157   4.957  0.00  0.00    -0.083 C 
ATOM     16  N   UNL     1      -0.266   2.761   5.313  0.00  0.00    +0.380 N 
ATOM     17  C   UNL     1       0.993   2.016   5.441  0.00  0.00    -0.070 C 
ATOM     18  H   UNL     1      -0.763   2.733   6.191  0.00  0.00    -0.086 HD
ATOM     19  H   UNL     1      -0.833   2.338   4.594  0.00  0.00    -0.086 HD
ENDBRANCH   9  12
ENDBRANCH   7   8
ENDBRANCH   1   2
BRANCH   1  20
ATOM     20  S   UNL     1       3.779  -0.911  -0.069  0.00  0.00    +0.061 S 
ATOM     21  O   UNL     1       3.256  -2.168  -0.475  0.00  0.00    -0.153 OA
ATOM     22  O   UNL     1       4.754  -0.210  -0.829  0.00  0.00    -0.153 OA
BRANCH  20  26
ATOM     23  C   UNL     1       0.241   1.876   0.383  0.00  0.00    +0.000 A 
ATOM     24  C   UNL     1       1.502   2.392   0.145  0.00  0.00    +0.002 A 
ATOM     25  C   UNL     1       2.582   1.541   0.007  0.00  0.00    +0.028 A 
ATOM     26  C   UNL     1       2.402   0.174   0.108  0.00  0.00    +0.105 A 
ATOM     27  C   UNL     1       1.142  -0.342   0.347  0.00  0.00    +0.028 A 
ATOM     28  C   UNL     1       0.061   0.509   0.484  0.00  0.00    +0.002 A 
ENDBRANCH  20  26
ENDBRANCH   1  20
BRANCH   1  29
ATOM     29  C   UNL     1       3.948  -2.228   2.288  0.00  0.00    +0.145 C 
BRANCH  29  30
ATOM     30  C   UNL     1       4.825  -3.437   2.087  0.00  0.00    -0.032 A 
ATOM     31  C   UNL     1       4.607  -4.277   1.010  0.00  0.00    +0.006 A 
ATOM     32  C   UNL     1       5.411  -5.386   0.825  0.00  0.00    +0.020 A 
ATOM     33  C   UNL     1       6.433  -5.656   1.718  0.00  0.00    +0.041 A 
ATOM     34  C   UNL     1       6.651  -4.815   2.795  0.00  0.00    +0.020 A 
ATOM     35  C   UNL     1       5.850  -3.703   2.975  0.00  0.00    +0.006 A 
ATOM     36 CL   UNL     1       7.443  -7.049   1.486  0.00  0.00    -0.084 Cl
ENDBRANCH  29  30
ENDBRANCH   1  29
TORSDOF 7
