REMARK  Name = ZINC16608515
REMARK  10 active torsions:
REMARK  status: ('A' for Active; 'I' for Inactive)
REMARK    1  A    between atoms: C_1  and  C_2
REMARK    2  A    between atoms: C_2  and  C_3
REMARK    3  A    between atoms: C_6  and  N_9
REMARK    4  A    between atoms: N_12  and  C_13
REMARK    5  A    between atoms: C_13  and  C_15
REMARK    6  A    between atoms: C_13  and  C_20
REMARK    7  A    between atoms: C_15  and  C_17
REMARK    8  A    between atoms: C_15  and  C_18
REMARK    9  A    between atoms: C_18  and  C_19
REMARK   10  A    between atoms: C_26  and  C_28
REMARK                            x       y       z     vdW  Elec       q    Type
REMARK                         _______ _______ _______ _____ _____    ______ ____
ROOT
ATOM      1  C   UNL     1       3.554   6.261   0.316  0.00  0.00    +0.163 C 
ENDROOT
BRANCH   1   2
ATOM      2  C   UNL     1       3.304   7.571   1.017  0.00  0.00    +0.239 C 
ATOM      3  O   UNL     1       2.187   7.854   1.394  0.00  0.00    -0.273 OA
ATOM      4  N   UNL     1       4.323   8.429   1.225  0.00  0.00    -0.262 N 
ATOM      5  C   UNL     1       4.093   9.637   1.872  0.00  0.00    +0.188 A 
ATOM      6  N   UNL     1       2.968  10.141   2.361  0.00  0.00    -0.125 NA
ATOM      7  N   UNL     1       2.932  11.268   2.926  0.00  0.00    -0.140 NA
ATOM      8  C   UNL     1       4.019  12.017   3.066  0.00  0.00    +0.134 A 
ATOM      9  S   UNL     1       5.233  10.953   2.290  0.00  0.00    -0.030 S 
ATOM     10  H   UNL     1       5.217   8.202   0.924  0.00  0.00    +0.157 HD
BRANCH   8  11
ATOM     11  C   UNL     1       4.183  13.347   3.690  0.00  0.00    +0.013 A 
ATOM     12  C   UNL     1       5.439  13.954   3.724  0.00  0.00    +0.014 A 
ATOM     13  C   UNL     1       5.590  15.195   4.306  0.00  0.00    +0.050 A 
ATOM     14  C   UNL     1       4.496  15.844   4.860  0.00  0.00    +0.166 A 
ATOM     15  C   UNL     1       3.238  15.243   4.829  0.00  0.00    +0.167 A 
ATOM     16  C   UNL     1       3.080  14.001   4.242  0.00  0.00    +0.060 A 
ATOM     17  O   UNL     1       2.342  16.077   5.432  0.00  0.00    -0.453 OA
ATOM     18  C   UNL     1       2.980  17.367   5.467  0.00  0.00    +0.466 C 
ATOM     19  O   UNL     1       4.385  17.054   5.483  0.00  0.00    -0.453 OA
ENDBRANCH   8  11
ENDBRANCH   1   2
BRANCH   1  23
ATOM     20  N   UNL     1       1.162   3.485   0.010  0.00  0.00    -0.269 N 
ATOM     21  C   UNL     1       2.318   4.172   0.104  0.00  0.00    +0.304 C 
ATOM     22  O   UNL     1       3.379   3.579   0.091  0.00  0.00    -0.252 OA
ATOM     23  N   UNL     1       2.297   5.515   0.213  0.00  0.00    -0.288 N 
ATOM     24  H   UNL     1       0.319   3.961  -0.058  0.00  0.00    +0.156 HD
ATOM     25  H   UNL     1       1.450   5.988   0.224  0.00  0.00    +0.151 HD
BRANCH  20  29
ATOM     26  C   UNL     1       1.207  -0.681   0.006  0.00  0.00    -0.048 A 
ATOM     27  C   UNL     1       2.145   0.019   0.742  0.00  0.00    +0.005 A 
ATOM     28  C   UNL     1       2.133   1.400   0.745  0.00  0.00    +0.023 A 
ATOM     29  C   UNL     1       1.177   2.086   0.009  0.00  0.00    +0.035 A 
ATOM     30  C   UNL     1       0.235   1.381  -0.730  0.00  0.00    +0.023 A 
ATOM     31  C   UNL     1       0.253  -0.000  -0.729  0.00  0.00    +0.005 A 
BRANCH  26  33
ATOM     32  C   UNL     1       0.344  -2.708   1.143  0.00  0.00    +0.009 C 
ATOM     33  C   UNL     1       1.223  -2.188   0.005  0.00  0.00    +0.032 C 
ENDBRANCH  26  33
ENDBRANCH  20  29
ENDBRANCH   1  23
BRANCH   1  34
ATOM     34  C   UNL     1       4.103   6.530  -1.087  0.00  0.00    +0.015 C 
ATOM     35  C   UNL     1       4.357   5.199  -1.799  0.00  0.00    +0.010 C 
BRANCH  34  36
ATOM     36  C   UNL     1       3.087   7.350  -1.884  0.00  0.00    +0.002 C 
ATOM     37  C   UNL     1       3.687   7.725  -3.241  0.00  0.00    +0.004 C 
ENDBRANCH  34  36
ENDBRANCH   1  34
TORSDOF 7
