REMARK  Name = ZINC28057176
REMARK  2 active torsions:
REMARK  status: ('A' for Active; 'I' for Inactive)
REMARK    1  A    between atoms: C_5  and  C_7
REMARK    2  A    between atoms: C_18  and  C_20
REMARK                            x       y       z     vdW  Elec       q    Type
REMARK                         _______ _______ _______ _____ _____    ______ ____
ROOT
ATOM      1  C   UNL     1       2.453   4.124  -0.007  0.00  0.00    +0.177 C 
ATOM      2  C   UNL     1       2.518   4.894   1.289  0.00  0.00    +0.026 C 
ATOM      3  C   UNL     1       2.347   6.216   1.344  0.00  0.00    +0.050 C 
ATOM      4  C   UNL     1       2.409   6.882   2.667  0.00  0.00    +0.038 A 
ATOM      5  C   UNL     1       2.573   8.257   2.782  0.00  0.00    +0.013 A 
ATOM      6  C   UNL     1       2.623   8.834   4.036  0.00  0.00    +0.001 A 
ATOM      7  C   UNL     1       2.511   8.050   5.171  0.00  0.00    +0.004 A 
ATOM      8  C   UNL     1       2.348   6.680   5.066  0.00  0.00    +0.046 A 
ATOM      9  C   UNL     1       2.296   6.089   3.817  0.00  0.00    +0.131 A 
ATOM     10  O   UNL     1       2.139   4.749   3.671  0.00  0.00    -0.479 OA
ATOM     11  C   UNL     1       2.799   4.134   2.565  0.00  0.00    +0.234 C 
ATOM     12  N   UNL     1       2.120   6.989   0.199  0.00  0.00    -0.282 N 
ATOM     13  C   UNL     1       2.338   6.386  -1.029  0.00  0.00    +0.240 A 
ATOM     14  N   UNL     1       2.501   5.041  -1.137  0.00  0.00    -0.201 N 
ATOM     15  N   UNL     1       2.705   4.799  -2.495  0.00  0.00    -0.042 NA
ATOM     16  N   UNL     1       2.649   5.949  -3.086  0.00  0.00    -0.021 NA
ATOM     17  N   UNL     1       2.432   6.886  -2.228  0.00  0.00    -0.092 NA
ATOM     18  H   UNL     1       1.783   8.031   0.296  0.00  0.00    +0.155 HD
ENDROOT
BRANCH   1  23
ATOM     19  C   UNL     1      -1.224   3.270  -0.039  0.00  0.00    +0.001 A 
ATOM     20  C   UNL     1      -1.188   1.892  -0.153  0.00  0.00    +0.003 A 
ATOM     21  C   UNL     1       0.026   1.235  -0.210  0.00  0.00    +0.039 A 
ATOM     22  C   UNL     1       1.207   1.957  -0.165  0.00  0.00    +0.129 A 
ATOM     23  C   UNL     1       1.169   3.337  -0.057  0.00  0.00    +0.017 A 
ATOM     24  C   UNL     1      -0.046   3.992   0.006  0.00  0.00    +0.009 A 
ATOM     25  F   UNL     1       2.394   1.316  -0.226  0.00  0.00    -0.205 F 
ENDBRANCH   1  23
BRANCH  11  26
ATOM     26  C   UNL     1       4.285   4.121   2.819  0.00  0.00    -0.003 A 
ATOM     27  C   UNL     1       4.915   5.257   3.291  0.00  0.00    +0.010 A 
ATOM     28  C   UNL     1       6.277   5.245   3.528  0.00  0.00    +0.039 A 
ATOM     29  C   UNL     1       7.011   4.097   3.283  0.00  0.00    +0.123 A 
ATOM     30  C   UNL     1       6.380   2.961   2.805  0.00  0.00    +0.039 A 
ATOM     31  C   UNL     1       5.017   2.974   2.573  0.00  0.00    +0.010 A 
ATOM     32  F   UNL     1       8.343   4.085   3.510  0.00  0.00    -0.205 F 
ENDBRANCH  11  26
TORSDOF 2
