REMARK  Name = ZINC14165981
REMARK  5 active torsions:
REMARK  status: ('A' for Active; 'I' for Inactive)
REMARK    1  A    between atoms: C_1  and  C_2
REMARK    2  A    between atoms: C_6  and  N_8
REMARK    3  A    between atoms: N_8  and  S_9
REMARK    4  A    between atoms: S_9  and  C_12
REMARK    5  A    between atoms: C_25  and  C_28
REMARK                            x       y       z     vdW  Elec       q    Type
REMARK                         _______ _______ _______ _____ _____    ______ ____
ROOT
ATOM      1  C   UNL     1      -2.691   5.797  -0.589  0.00  0.00    +0.109 A 
ATOM      2  C   UNL     1      -3.338   6.722   0.210  0.00  0.00    +0.030 A 
ATOM      3  C   UNL     1      -4.654   6.514   0.571  0.00  0.00    +0.025 A 
ATOM      4  C   UNL     1      -5.323   5.378   0.132  0.00  0.00    +0.031 A 
ATOM      5  C   UNL     1      -4.678   4.447  -0.667  0.00  0.00    -0.018 A 
ATOM      6  C   UNL     1      -3.357   4.671  -1.029  0.00  0.00    +0.034 A 
ATOM      7  C   UNL     1      -5.348   3.211  -1.140  0.00  0.00    +0.049 C 
ATOM      8  C   UNL     1      -5.707   3.316  -2.625  0.00  0.00    -0.023 C 
ATOM      9  C   UNL     1      -6.852   2.724  -2.862  0.00  0.00    -0.030 C 
ATOM     10  C   UNL     1      -7.420   2.133  -1.586  0.00  0.00    +0.033 C 
ATOM     11  C   UNL     1      -6.707   2.944  -0.464  0.00  0.00    +0.029 C 
ATOM     12  C   UNL     1      -7.473   4.259  -0.295  0.00  0.00    +0.105 C 
ATOM     13  N   UNL     1      -6.658   5.183   0.502  0.00  0.00    -0.336 N 
ATOM     14  H   UNL     1      -7.035   5.646   1.266  0.00  0.00    +0.147 HD
ENDROOT
BRANCH  12  15
ATOM     15  C   UNL     1      -7.747   4.865  -1.647  0.00  0.00    -0.026 A 
ATOM     16  C   UNL     1      -6.752   5.566  -2.305  0.00  0.00    +0.007 A 
ATOM     17  C   UNL     1      -7.000   6.117  -3.548  0.00  0.00    +0.022 A 
ATOM     18  C   UNL     1      -8.248   5.978  -4.130  0.00  0.00    +0.059 A 
ATOM     19  C   UNL     1      -9.245   5.281  -3.469  0.00  0.00    +0.060 A 
ATOM     20  C   UNL     1      -8.993   4.725  -2.227  0.00  0.00    +0.027 A 
ATOM     21 CL   UNL     1     -10.811   5.105  -4.198  0.00  0.00    -0.082 Cl
ATOM     22 CL   UNL     1      -8.562   6.675  -5.688  0.00  0.00    -0.082 Cl
ENDBRANCH  12  15
BRANCH   1  23
ATOM     23  S   UNL     1      -1.012   6.061  -1.054  0.00  0.00    +0.072 S 
ATOM     24  O   UNL     1      -0.764   7.452  -0.909  0.00  0.00    -0.150 OA
ATOM     25  O   UNL     1      -0.819   5.377  -2.284  0.00  0.00    -0.150 OA
BRANCH  23  26
ATOM     26  N   UNL     1      -0.067   5.293   0.068  0.00  0.00    -0.216 N 
ATOM     27  H   UNL     1       0.531   5.807   0.632  0.00  0.00    +0.174 HD
BRANCH  26  33
ATOM     28  C   UNL     1       1.035   0.821  -1.647  0.00  0.00    +0.044 C 
ATOM     29  C   UNL     1       0.394   1.711  -0.614  0.00  0.00    -0.049 A 
ATOM     30  C   UNL     1      -0.259   1.153   0.470  0.00  0.00    +0.003 A 
ATOM     31  C   UNL     1      -0.854   1.966   1.417  0.00  0.00    +0.002 A 
ATOM     32  C   UNL     1      -0.787   3.340   1.290  0.00  0.00    +0.024 A 
ATOM     33  C   UNL     1      -0.132   3.904   0.203  0.00  0.00    +0.048 A 
ATOM     34  C   UNL     1       0.459   3.084  -0.750  0.00  0.00    +0.027 A 
ENDBRANCH  26  33
ENDBRANCH  23  26
ENDBRANCH   1  23
TORSDOF 4
