REMARK  Name = ZINC64352898
REMARK  10 active torsions:
REMARK  status: ('A' for Active; 'I' for Inactive)
REMARK    1  A    between atoms: C_1  and  N_2
REMARK    2  A    between atoms: N_2  and  C_3
REMARK    3  A    between atoms: C_6  and  C_11
REMARK    4  A    between atoms: C_11  and  O_12
REMARK    5  A    between atoms: O_12  and  C_13
REMARK    6  A    between atoms: C_13  and  C_15
REMARK    7  A    between atoms: C_15  and  C_17
REMARK    8  A    between atoms: C_15  and  N_27
REMARK    9  A    between atoms: C_17  and  C_18
REMARK   10  A    between atoms: C_28  and  C_30
REMARK                            x       y       z     vdW  Elec       q    Type
REMARK                         _______ _______ _______ _____ _____    ______ ____
ROOT
ATOM      1  C   UNL     1      -2.229  -6.737   2.999  0.00  0.00    +0.186 C 
ENDROOT
BRANCH   1   2
ATOM      2  N   UNL     1      -2.498  -8.174   2.902  0.00  0.00    -0.298 N 
ATOM      3  C   UNL     1      -2.287  -8.973   3.967  0.00  0.00    +0.245 C 
ATOM      4  O   UNL     1      -1.873  -8.501   5.008  0.00  0.00    -0.270 OA
ATOM      5  H   UNL     1      -2.829  -8.551   2.071  0.00  0.00    +0.150 HD
BRANCH   3   6
ATOM      6  C   UNL     1      -2.559 -10.422   3.869  0.00  0.00    +0.037 A 
ATOM      7  C   UNL     1      -3.030 -10.967   2.673  0.00  0.00    +0.016 A 
ATOM      8  C   UNL     1      -3.282 -12.319   2.587  0.00  0.00    +0.039 A 
ATOM      9  C   UNL     1      -3.069 -13.138   3.686  0.00  0.00    +0.123 A 
ATOM     10  C   UNL     1      -2.602 -12.601   4.876  0.00  0.00    +0.039 A 
ATOM     11  C   UNL     1      -2.341 -11.251   4.971  0.00  0.00    +0.016 A 
ATOM     12  F   UNL     1      -3.319 -14.463   3.597  0.00  0.00    -0.205 F 
ENDBRANCH   3   6
ENDBRANCH   1   2
BRANCH   1  13
ATOM     13  C   UNL     1      -1.890  -6.197   1.633  0.00  0.00    +0.328 C 
ATOM     14  O   UNL     1      -1.876  -6.936   0.677  0.00  0.00    -0.249 OA
BRANCH  13  15
ATOM     15  O   UNL     1      -1.605  -4.894   1.479  0.00  0.00    -0.455 OA
BRANCH  15  16
ATOM     16  C   UNL     1      -1.293  -4.450   0.157  0.00  0.00    +0.308 C 
BRANCH  16  22
ATOM     17  C   UNL     1       2.069   0.640   0.628  0.00  0.00    +0.132 C 
ATOM     18  N   UNL     1       1.784  -0.797   0.601  0.00  0.00    -0.306 N 
ATOM     19  C   UNL     1       2.869  -1.763   0.792  0.00  0.00    +0.132 C 
ATOM     20  C   UNL     1       0.493  -1.241   0.395  0.00  0.00    +0.222 A 
ATOM     21  N   UNL     1       0.233  -2.546   0.376  0.00  0.00    -0.196 NA
ATOM     22  C   UNL     1      -1.003  -2.972   0.179  0.00  0.00    +0.173 A 
ATOM     23  N   UNL     1      -1.984  -2.104   0.001  0.00  0.00    -0.196 NA
ATOM     24  C   UNL     1      -1.731  -0.798   0.019  0.00  0.00    +0.217 A 
ATOM     25  N   UNL     1      -0.491  -0.366   0.222  0.00  0.00    -0.181 NA
ATOM     26  N   UNL     1      -2.756   0.107  -0.167  0.00  0.00    -0.327 N 
ATOM     27  H   UNL     1      -3.662  -0.209  -0.312  0.00  0.00    +0.145 HD
ATOM     28  H   UNL     1      -2.571   1.059  -0.154  0.00  0.00    +0.145 HD
ENDBRANCH  16  22
ENDBRANCH  15  16
ENDBRANCH  13  15
ENDBRANCH   1  13
BRANCH   1  29
ATOM     29  C   UNL     1      -3.468  -6.021   3.538  0.00  0.00    +0.067 C 
BRANCH  29  30
ATOM     30  C   UNL     1      -4.641  -6.294   2.632  0.00  0.00    -0.039 C 
ATOM     31  C   UNL     1      -5.572  -7.265   2.776  0.00  0.00    -0.001 A 
ATOM     32  C   UNL     1      -5.763  -8.317   3.782  0.00  0.00    +0.010 A 
ATOM     33  C   UNL     1      -6.813  -9.160   3.657  0.00  0.00    +0.001 A 
ATOM     34  C   UNL     1      -7.720  -9.056   2.593  0.00  0.00    +0.002 A 
ATOM     35  C   UNL     1      -7.610  -8.116   1.631  0.00  0.00    +0.026 A 
ATOM     36  C   UNL     1      -6.543  -7.175   1.663  0.00  0.00    +0.043 A 
ATOM     37  N   UNL     1      -6.226  -6.188   0.862  0.00  0.00    -0.380 N 
ATOM     38  C   UNL     1      -5.018  -5.535   1.379  0.00  0.00    +0.144 C 
ATOM     39  H   UNL     1      -6.710  -5.930   0.062  0.00  0.00    +0.160 HD
ENDBRANCH  29  30
ENDBRANCH   1  29
TORSDOF 8
