REMARK  Name = ZINC33479045
REMARK  10 active torsions:
REMARK  status: ('A' for Active; 'I' for Inactive)
REMARK    1  A    between atoms: C_1  and  C_2
REMARK    2  A    between atoms: C_2  and  N_3
REMARK    3  A    between atoms: C_4  and  N_28
REMARK    4  A    between atoms: C_5  and  C_13
REMARK    5  A    between atoms: C_6  and  C_12
REMARK    6  A    between atoms: C_7  and  C_10
REMARK    7  A    between atoms: N_17  and  C_21
REMARK    8  A    between atoms: C_21  and  C_22
REMARK    9  A    between atoms: N_31  and  C_34
REMARK   10  A    between atoms: C_34  and  C_35
REMARK                            x       y       z     vdW  Elec       q    Type
REMARK                         _______ _______ _______ _____ _____    ______ ____
ROOT
ATOM      1  N   UNL     1      -0.647   1.509   1.280  0.00  0.00    -0.295 N 
ATOM      2  C   UNL     1      -1.601   0.758   1.889  0.00  0.00    +0.112 A 
ATOM      3  C   UNL     1      -2.343   1.280   2.962  0.00  0.00    +0.019 A 
ATOM      4  C   UNL     1      -2.090   2.589   3.405  0.00  0.00    -0.017 A 
ATOM      5  C   UNL     1      -1.107   3.338   2.764  0.00  0.00    +0.120 A 
ATOM      6  C   UNL     1      -0.383   2.763   1.688  0.00  0.00    +0.270 A 
ATOM      7  O   UNL     1       0.482   3.412   1.127  0.00  0.00    -0.266 OA
ATOM      8  C   UNL     1      -2.870   3.173   4.554  0.00  0.00    +0.046 C 
ENDROOT
BRANCH   3   9
ATOM      9  C   UNL     1      -3.370   0.465   3.614  0.00  0.00    +0.032 C 
ATOM     10  C   UNL     1      -3.201   0.059   4.902  0.00  0.00    +0.077 C 
ATOM     11  C   UNL     1      -4.020  -0.797   5.699  0.00  0.00    +0.259 C 
ATOM     12  O   UNL     1      -5.041  -1.284   5.250  0.00  0.00    -0.269 OA
ATOM     13  N   UNL     1      -3.635  -1.044   6.940  0.00  0.00    -0.251 N 
ATOM     14  C   UNL     1      -2.501  -0.503   7.437  0.00  0.00    +0.121 C 
ATOM     15  S   UNL     1      -1.821  -0.684   8.998  0.00  0.00    -0.027 S 
ATOM     16  S   UNL     1      -1.889   0.445   6.053  0.00  0.00    -0.061 S 
BRANCH  13  17
ATOM     17  C   UNL     1      -4.450  -1.917   7.787  0.00  0.00    +0.150 C 
BRANCH  17  18
ATOM     18  C   UNL     1      -3.993  -3.344   7.625  0.00  0.00    -0.030 A 
ATOM     19  C   UNL     1      -4.564  -4.147   6.655  0.00  0.00    +0.005 A 
ATOM     20  C   UNL     1      -4.141  -5.454   6.503  0.00  0.00    +0.000 A 
ATOM     21  C   UNL     1      -3.154  -5.962   7.327  0.00  0.00    +0.000 A 
ATOM     22  C   UNL     1      -2.587  -5.160   8.300  0.00  0.00    +0.000 A 
ATOM     23  C   UNL     1      -3.006  -3.852   8.449  0.00  0.00    +0.005 A 
ENDBRANCH  17  18
ENDBRANCH  13  17
ENDBRANCH   3   9
BRANCH   2  24
ATOM     24  N   UNL     1      -1.842  -0.512   1.454  0.00  0.00    -0.320 N 
ATOM     25  C   UNL     1      -3.192  -0.628   0.887  0.00  0.00    +0.088 C 
ATOM     26  C   UNL     1      -3.393  -2.044   0.340  0.00  0.00    -0.060 C 
ATOM     27  N   UNL     1      -3.195  -3.017   1.423  0.00  0.00    +0.382 N 
ATOM     28  C   UNL     1      -1.845  -2.901   1.991  0.00  0.00    -0.060 C 
ATOM     29  C   UNL     1      -1.643  -1.486   2.538  0.00  0.00    +0.088 C 
ATOM     30  H   UNL     1      -3.919  -2.791   2.220  0.00  0.00    -0.082 HD
BRANCH  27  31
ATOM     31  C   UNL     1      -3.454  -4.385   0.956  0.00  0.00    -0.082 C 
ATOM     32  C   UNL     1      -4.936  -4.533   0.605  0.00  0.00    -0.017 C 
ENDBRANCH  27  31
ENDBRANCH   2  24
BRANCH   1  34
ATOM     33  C   UNL     1      -0.541   1.349  -1.158  0.00  0.00    +0.027 C 
ATOM     34  C   UNL     1       0.112   0.941   0.164  0.00  0.00    +0.123 C 
ENDBRANCH   1  34
BRANCH   5  35
ATOM     35  C   UNL     1      -0.826   4.676   3.190  0.00  0.00    +0.105 C 
ATOM     36  N   UNL     1      -0.603   5.737   3.529  0.00  0.00    -0.191 NA
ENDBRANCH   5  35
TORSDOF 7
