REMARK  Name = ZINC44177768
REMARK  2 active torsions:
REMARK  status: ('A' for Active; 'I' for Inactive)
REMARK    1  A    between atoms: N_9  and  C_13
REMARK    2  A    between atoms: C_19  and  O_21
REMARK                            x       y       z     vdW  Elec       q    Type
REMARK                         _______ _______ _______ _____ _____    ______ ____
ROOT
ATOM      1  C   UNL     1      -0.576  -2.553   1.249  0.00  0.00    +0.091 C 
ATOM      2  C   UNL     1      -0.487  -4.078   1.333  0.00  0.00    +0.086 C 
ATOM      3  C   UNL     1      -1.898  -4.668   1.382  0.00  0.00    +0.172 C 
ATOM      4  C   UNL     1      -2.672  -4.268   0.125  0.00  0.00    +0.067 C 
ATOM      5  C   UNL     1      -2.757  -2.742   0.043  0.00  0.00    +0.038 C 
ATOM      6  C   UNL     1      -1.345  -2.155  -0.012  0.00  0.00    +0.132 C 
ATOM      7  O   UNL     1      -2.583  -4.170   2.543  0.00  0.00    -0.346 OA
ATOM      8  C   UNL     1      -3.398  -5.279   2.994  0.00  0.00    +0.191 C 
ATOM      9  C   UNL     1      -2.481  -6.489   2.687  0.00  0.00    +0.191 C 
ATOM     10  O   UNL     1      -1.821  -6.096   1.466  0.00  0.00    -0.346 OA
ENDROOT
BRANCH   1  17
ATOM     11  C   UNL     1       1.792  -2.349   4.830  0.00  0.00    +0.002 C 
ATOM     12  C   UNL     1       3.200  -1.766   4.695  0.00  0.00    +0.003 C 
ATOM     13  C   UNL     1       3.844  -2.289   3.409  0.00  0.00    +0.033 C 
ATOM     14  C   UNL     1       3.000  -1.873   2.205  0.00  0.00    +0.135 C 
ATOM     15  C   UNL     1       1.583  -2.434   2.345  0.00  0.00    +0.086 C 
ATOM     16  C   UNL     1       0.947  -1.921   3.630  0.00  0.00    +0.021 C 
ATOM     17  N   UNL     1       0.778  -1.986   1.196  0.00  0.00    -0.289 NA
ATOM     18  C   UNL     1       0.733  -0.517   1.140  0.00  0.00    +0.113 C 
ATOM     19  C   UNL     1       2.157   0.031   1.026  0.00  0.00    +0.175 C 
ATOM     20  O   UNL     1       2.931  -0.448   2.130  0.00  0.00    -0.374 OA
ENDBRANCH   1  17
BRANCH   6  21
ATOM     21  O   UNL     1      -0.665  -2.659  -1.163  0.00  0.00    -0.390 OA
ATOM     22  H   UNL     1      -1.097  -2.444  -2.001  0.00  0.00    +0.210 HD
ENDBRANCH   6  21
TORSDOF 2
