REMARK  Name = ZINC16079844
REMARK  7 active torsions:
REMARK  status: ('A' for Active; 'I' for Inactive)
REMARK    1  A    between atoms: C_1  and  C_2
REMARK    2  A    between atoms: C_2  and  O_3
REMARK    3  A    between atoms: O_3  and  C_4
REMARK    4  A    between atoms: C_4  and  C_6
REMARK    5  A    between atoms: C_16  and  C_18
REMARK    6  A    between atoms: C_27  and  C_28
REMARK    7  A    between atoms: C_27  and  N_63
REMARK                            x       y       z     vdW  Elec       q    Type
REMARK                         _______ _______ _______ _____ _____    ______ ____
ROOT
ATOM      1  C   UNL     1       3.500   8.196  -0.045  0.00  0.00    +0.101 C 
ATOM      2  C   UNL     1       4.216   7.621  -1.270  0.00  0.00    +0.033 C 
ATOM      3  C   UNL     1       4.108   6.095  -1.249  0.00  0.00    +0.107 C 
ATOM      4  N   UNL     1       4.716   5.577  -0.017  0.00  0.00    -0.315 N 
ATOM      5  C   UNL     1       4.015   6.078   1.173  0.00  0.00    +0.107 C 
ATOM      6  C   UNL     1       4.120   7.604   1.224  0.00  0.00    +0.033 C 
ATOM      7  C   UNL     1       4.752   4.192  -0.025  0.00  0.00    +0.127 A 
ATOM      8  C   UNL     1       5.976   3.514   0.012  0.00  0.00    -0.003 A 
ATOM      9  C   UNL     1       5.967   2.138   0.006  0.00  0.00    +0.047 A 
ATOM     10  N   UNL     1       4.805   1.498  -0.033  0.00  0.00    -0.232 NA
ATOM     11  C   UNL     1       3.660   2.164  -0.075  0.00  0.00    +0.162 A 
ATOM     12  N   UNL     1       3.627   3.490  -0.068  0.00  0.00    -0.212 NA
ATOM     13  C   UNL     1       7.243   1.339   0.051  0.00  0.00    +0.037 C 
ATOM     14  C   UNL     1       8.428   2.231  -0.322  0.00  0.00    -0.072 C 
ATOM     15  C   UNL     1       7.254   4.305   0.051  0.00  0.00    -0.037 C 
ATOM     16  N   UNL     1       8.361   3.447   0.512  0.00  0.00    +0.386 N 
ATOM     17  H   UNL     1       8.191   3.175   1.488  0.00  0.00    -0.081 HD
ENDROOT
BRANCH  11  18
ATOM     18  C   UNL     1       2.385   1.408  -0.125  0.00  0.00    +0.019 A 
ATOM     19  C   UNL     1       1.169   2.089  -0.165  0.00  0.00    +0.011 A 
ATOM     20  C   UNL     1      -0.014   1.381  -0.212  0.00  0.00    +0.001 A 
ATOM     21  C   UNL     1       0.005  -0.003  -0.221  0.00  0.00    +0.000 A 
ATOM     22  C   UNL     1       1.208  -0.684  -0.181  0.00  0.00    +0.001 A 
ATOM     23  C   UNL     1       2.398   0.015  -0.134  0.00  0.00    +0.011 A 
ENDBRANCH  11  18
BRANCH   1  24
ATOM     24  C   UNL     1       3.653   9.695  -0.029  0.00  0.00    +0.310 C 
ATOM     25  O   UNL     1       4.272  10.248  -0.907  0.00  0.00    -0.251 OA
BRANCH  24  26
ATOM     26  O   UNL     1       3.103  10.416   0.960  0.00  0.00    -0.465 OA
BRANCH  26  28
ATOM     27  C   UNL     1       2.597  12.501   2.112  0.00  0.00    +0.048 C 
ATOM     28  C   UNL     1       3.291  11.855   0.911  0.00  0.00    +0.229 C 
ENDBRANCH  26  28
ENDBRANCH  24  26
ENDBRANCH   1  24
BRANCH  16  29
ATOM     29  C   UNL     1       9.641   4.188   0.435  0.00  0.00    -0.035 C 
BRANCH  29  30
ATOM     30  C   UNL     1      10.719   3.370   1.098  0.00  0.00    -0.025 A 
ATOM     31  C   UNL     1      11.547   2.447   0.552  0.00  0.00    +0.011 A 
ATOM     32  C   UNL     1      12.475   1.817   1.361  0.00  0.00    +0.028 A 
ATOM     33  C   UNL     1      12.520   2.133   2.679  0.00  0.00    +0.078 A 
ATOM     34  S   UNL     1      11.231   3.361   2.808  0.00  0.00    -0.084 S 
ATOM     35 CL   UNL     1      13.562   1.507   3.919  0.00  0.00    -0.076 Cl
ENDBRANCH  29  30
ENDBRANCH  16  29
TORSDOF 6
