REMARK  Name = ZINC46141049
REMARK  10 active torsions:
REMARK  status: ('A' for Active; 'I' for Inactive)
REMARK    1  A    between atoms: C_1  and  C_2
REMARK    2  A    between atoms: C_5  and  C_8
REMARK    3  A    between atoms: N_10  and  C_11
REMARK    4  A    between atoms: N_10  and  C_21
REMARK    5  A    between atoms: C_11  and  C_12
REMARK    6  A    between atoms: C_12  and  N_13
REMARK    7  A    between atoms: C_18  and  C_20
REMARK    8  A    between atoms: C_21  and  C_22
REMARK    9  A    between atoms: C_22  and  S_23
REMARK   10  A    between atoms: S_23  and  N_26
REMARK                            x       y       z     vdW  Elec       q    Type
REMARK                         _______ _______ _______ _____ _____    ______ ____
ROOT
ATOM      1  C   UNL     1      -0.015  -4.268  -0.056  0.00  0.00    +0.247 C 
ATOM      2  O   UNL     1       0.094  -3.058  -0.070  0.00  0.00    -0.270 OA
ATOM      3  N   UNL     1      -0.020  -4.930   1.118  0.00  0.00    -0.298 N 
ENDROOT
BRANCH   1   8
ATOM      4  C   UNL     1      -0.510  -7.172  -5.000  0.00  0.00    +0.044 C 
ATOM      5  C   UNL     1      -0.381  -6.411  -3.705  0.00  0.00    -0.050 A 
ATOM      6  C   UNL     1      -1.122  -5.261  -3.505  0.00  0.00    +0.004 A 
ATOM      7  C   UNL     1      -1.008  -4.560  -2.322  0.00  0.00    +0.013 A 
ATOM      8  C   UNL     1      -0.143  -5.014  -1.326  0.00  0.00    +0.037 A 
ATOM      9  C   UNL     1       0.602  -6.176  -1.534  0.00  0.00    +0.013 A 
ATOM     10  C   UNL     1       0.475  -6.870  -2.719  0.00  0.00    +0.004 A 
ENDBRANCH   1   8
BRANCH   3  11
ATOM     11  C   UNL     1      -0.011  -6.395   1.133  0.00  0.00    +0.089 C 
BRANCH  11  12
ATOM     12  C   UNL     1       1.417  -6.893   1.368  0.00  0.00    -0.059 C 
BRANCH  12  13
ATOM     13  N   UNL     1       1.452  -8.356   1.242  0.00  0.00    +0.382 N 
ATOM     14  C   UNL     1       0.641  -8.958   2.307  0.00  0.00    -0.078 C 
ATOM     15  C   UNL     1       0.608 -10.478   2.132  0.00  0.00    -0.019 C 
ATOM     16  C   UNL     1       2.036 -11.025   2.204  0.00  0.00    -0.003 C 
ATOM     17  C   UNL     1       2.891 -10.337   1.137  0.00  0.00    -0.016 C 
ATOM     18  C   UNL     1       2.840  -8.822   1.349  0.00  0.00    -0.072 C 
ATOM     19  C   UNL     1       3.693  -8.129   0.284  0.00  0.00    -0.013 C 
ATOM     20  H   UNL     1       1.076  -8.624   0.344  0.00  0.00    -0.081 HD
ENDBRANCH  12  13
ENDBRANCH  11  12
ENDBRANCH   3  11
BRANCH   3  21
ATOM     21  C   UNL     1      -0.036  -4.185   2.379  0.00  0.00    +0.132 C 
BRANCH  21  22
ATOM     22  C   UNL     1      -1.478  -3.829   2.744  0.00  0.00    +0.204 C 
BRANCH  22  23
ATOM     23  S   UNL     1      -1.497  -2.906   4.305  0.00  0.00    +0.033 S 
ATOM     24  O   UNL     1      -1.103  -3.750   5.378  0.00  0.00    -0.158 OA
ATOM     25  O   UNL     1      -0.895  -1.631   4.128  0.00  0.00    -0.158 OA
BRANCH  23  26
ATOM     26  N   UNL     1      -3.096  -2.582   4.589  0.00  0.00    -0.185 NA
ATOM     27  C   UNL     1      -3.722  -1.354   4.074  0.00  0.00    +0.090 C 
ATOM     28  C   UNL     1      -5.011  -1.736   3.339  0.00  0.00    -0.065 C 
ATOM     29  N   UNL     1      -5.868  -2.525   4.234  0.00  0.00    +0.381 N 
ATOM     30  C   UNL     1      -5.210  -3.795   4.566  0.00  0.00    -0.065 C 
ATOM     31  C   UNL     1      -3.933  -3.517   5.357  0.00  0.00    +0.090 C 
ATOM     32  H   UNL     1      -6.037  -2.003   5.081  0.00  0.00    -0.086 HD
ATOM     33  H   UNL     1      -6.747  -2.712   3.776  0.00  0.00    -0.086 HD
ENDBRANCH  23  26
ENDBRANCH  22  23
ENDBRANCH  21  22
ENDBRANCH   3  21
TORSDOF 8
