REMARK  Name = ZINC35454742
REMARK  4 active torsions:
REMARK  status: ('A' for Active; 'I' for Inactive)
REMARK    1  A    between atoms: C_5  and  O_7
REMARK    2  A    between atoms: O_7  and  C_8
REMARK    3  A    between atoms: C_9  and  C_16
REMARK    4  A    between atoms: C_16  and  N_17
REMARK                            x       y       z     vdW  Elec       q    Type
REMARK                         _______ _______ _______ _____ _____    ______ ____
ROOT
ATOM      1  C   UNL     1       0.049  -2.697   0.092  0.00  0.00    +0.241 A 
ATOM      2  C   UNL     1      -0.106  -4.031   0.203  0.00  0.00    +0.070 A 
ATOM      3  N   UNL     1      -1.475  -4.291   0.295  0.00  0.00    -0.296 N 
ATOM      4  C   UNL     1      -2.307  -5.382   0.422  0.00  0.00    +0.100 A 
ATOM      5  C   UNL     1      -3.629  -5.228   0.479  0.00  0.00    +0.067 A 
ATOM      6  S   UNL     1      -3.799  -3.454   0.352  0.00  0.00    -0.058 S 
ATOM      7  C   UNL     1      -2.070  -3.060   0.231  0.00  0.00    +0.181 A 
ATOM      8  N   UNL     1      -1.167  -2.127   0.117  0.00  0.00    -0.186 NA
ENDROOT
BRANCH   1   9
ATOM      9  O   UNL     1       1.235  -2.039  -0.021  0.00  0.00    -0.435 OA
BRANCH   9  14
ATOM     10  C   UNL     1       0.031   1.370   0.385  0.00  0.00    +0.004 A 
ATOM     11  C   UNL     1       1.181   2.084   0.106  0.00  0.00    +0.001 A 
ATOM     12  C   UNL     1       2.350   1.419  -0.215  0.00  0.00    +0.018 A 
ATOM     13  C   UNL     1       2.371   0.038  -0.258  0.00  0.00    +0.056 A 
ATOM     14  C   UNL     1       1.217  -0.681   0.021  0.00  0.00    +0.143 A 
ATOM     15  C   UNL     1       0.046  -0.011   0.343  0.00  0.00    +0.047 A 
ATOM     16  I   UNL     1       4.142  -0.969  -0.746  0.00  0.00    -0.040 I 
ENDBRANCH   9  14
ENDBRANCH   1   9
BRANCH   2  17
ATOM     17  C   UNL     1       0.999  -5.056   0.223  0.00  0.00    -0.026 C 
BRANCH  17  18
ATOM     18  N   UNL     1       1.285  -5.495  -1.149  0.00  0.00    +0.382 N 
ATOM     19  H   UNL     1       0.454  -5.903  -1.552  0.00  0.00    -0.090 HD
ATOM     20  H   UNL     1       1.572  -4.702  -1.703  0.00  0.00    -0.090 HD
ATOM     21  H   UNL     1       2.024  -6.182  -1.135  0.00  0.00    -0.090 HD
ENDBRANCH  17  18
ENDBRANCH   2  17
TORSDOF 4
