REMARK  Name = ZINC22936293
REMARK  11 active torsions:
REMARK  status: ('A' for Active; 'I' for Inactive)
REMARK    1  A    between atoms: C_1  and  C_2
REMARK    2  A    between atoms: C_2  and  N_3
REMARK    3  A    between atoms: C_7  and  C_9
REMARK    4  A    between atoms: C_9  and  N_10
REMARK    5  A    between atoms: N_10  and  C_11
REMARK    6  A    between atoms: C_11  and  C_12
REMARK    7  A    between atoms: C_14  and  O_29
REMARK    8  A    between atoms: C_15  and  O_19
REMARK    9  A    between atoms: O_19  and  C_20
REMARK   10  A    between atoms: C_20  and  C_21
REMARK   11  A    between atoms: O_29  and  C_30
REMARK                            x       y       z     vdW  Elec       q    Type
REMARK                         _______ _______ _______ _____ _____    ______ ____
ROOT
ATOM      1  C   UNL     1      -1.775  -1.459   4.958  0.00  0.00    -0.059 A 
ATOM      2  C   UNL     1      -0.746  -2.044   5.674  0.00  0.00    +0.051 A 
ATOM      3  C   UNL     1      -0.227  -1.406   6.789  0.00  0.00    +0.163 A 
ATOM      4  C   UNL     1      -0.743  -0.176   7.187  0.00  0.00    +0.181 A 
ATOM      5  C   UNL     1      -1.774   0.405   6.465  0.00  0.00    +0.086 A 
ATOM      6  C   UNL     1      -2.284  -0.235   5.349  0.00  0.00    +0.025 A 
ATOM      7 CL   UNL     1      -2.422   1.938   6.958  0.00  0.00    -0.080 Cl
ENDROOT
BRANCH   3   8
ATOM      8  O   UNL     1       0.784  -1.980   7.494  0.00  0.00    -0.491 OA
ATOM      9  C   UNL     1       1.264  -3.243   7.027  0.00  0.00    +0.277 C 
ENDBRANCH   3   8
BRANCH   1  10
ATOM     10  C   UNL     1      -2.338  -2.155   3.746  0.00  0.00    -0.047 C 
BRANCH  10  11
ATOM     11  N   UNL     1      -1.591  -1.738   2.551  0.00  0.00    +0.381 N 
ATOM     12  H   UNL     1      -0.619  -1.985   2.660  0.00  0.00    -0.086 HD
ATOM     13  H   UNL     1      -1.673  -0.739   2.434  0.00  0.00    -0.086 HD
BRANCH  11  14
ATOM     14  C   UNL     1      -2.139  -2.417   1.369  0.00  0.00    -0.098 C 
BRANCH  14  19
ATOM     15  N   UNL     1      -1.376  -0.512   0.012  0.00  0.00    +0.380 N 
ATOM     16  C   UNL     1      -2.052  -0.144  -1.250  0.00  0.00    -0.079 C 
ATOM     17  C   UNL     1      -1.892  -1.386  -2.162  0.00  0.00    -0.020 C 
ATOM     18  C   UNL     1      -2.041  -2.545  -1.141  0.00  0.00    -0.019 C 
ATOM     19  C   UNL     1      -1.362  -1.983   0.125  0.00  0.00    -0.086 C 
ATOM     20  H   UNL     1      -1.879  -0.117   0.793  0.00  0.00    -0.082 HD
BRANCH  15  22
ATOM     21  C   UNL     1      -0.019   1.526   0.010  0.00  0.00    -0.017 C 
ATOM     22  C   UNL     1       0.002  -0.004   0.002  0.00  0.00    -0.082 C 
ENDBRANCH  15  22
ENDBRANCH  14  19
ENDBRANCH  11  14
ENDBRANCH  10  11
ENDBRANCH   1  10
BRANCH   4  23
ATOM     23  O   UNL     1      -0.238   0.453   8.281  0.00  0.00    -0.482 OA
BRANCH  23  24
ATOM     24  C   UNL     1       0.855   1.349   8.067  0.00  0.00    +0.266 C 
BRANCH  24  25
ATOM     25  C   UNL     1       1.278   1.948   9.383  0.00  0.00    +0.008 A 
ATOM     26  C   UNL     1       0.624   1.591  10.548  0.00  0.00    +0.010 A 
ATOM     27  C   UNL     1       1.012   2.140  11.755  0.00  0.00    +0.020 A 
ATOM     28  C   UNL     1       2.055   3.048  11.800  0.00  0.00    +0.042 A 
ATOM     29  C   UNL     1       2.711   3.405  10.635  0.00  0.00    +0.040 A 
ATOM     30  C   UNL     1       2.325   2.852   9.427  0.00  0.00    +0.049 A 
ATOM     31 CL   UNL     1       3.151   3.295   7.966  0.00  0.00    -0.083 Cl
ATOM     32 CL   UNL     1       2.542   3.738  13.316  0.00  0.00    -0.083 Cl
ENDBRANCH  24  25
ENDBRANCH  23  24
ENDBRANCH   4  23
TORSDOF 9
