REMARK  Name = ZINC06501468
REMARK  5 active torsions:
REMARK  status: ('A' for Active; 'I' for Inactive)
REMARK    1  A    between atoms: C_1  and  C_2
REMARK    2  A    between atoms: C_5  and  O_9
REMARK    3  A    between atoms: O_9  and  C_10
REMARK    4  A    between atoms: C_10  and  C_11
REMARK    5  A    between atoms: N_13  and  N_14
REMARK                            x       y       z     vdW  Elec       q    Type
REMARK                         _______ _______ _______ _____ _____    ______ ____
ROOT
ATOM      1  C   UNL     1       1.141   2.087   0.002  0.00  0.00    +0.270 C 
ATOM      2  O   UNL     1       2.200   1.494  -0.011  0.00  0.00    -0.270 OA
ATOM      3  N   UNL     1      -0.017   1.397   0.010  0.00  0.00    -0.204 N 
ATOM      4  H   UNL     1      -0.864   1.870   0.016  0.00  0.00    +0.177 HD
ENDROOT
BRANCH   3   5
ATOM      5  N   UNL     1       0.002  -0.004   0.002  0.00  0.00    -0.184 NA
ATOM      6  C   UNL     1      -1.113  -0.668   0.009  0.00  0.00    +0.067 C 
ATOM      7  C   UNL     1      -2.450   0.044   0.032  0.00  0.00    +0.058 C 
ATOM      8  C   UNL     1      -3.352  -0.700   1.019  0.00  0.00    +0.011 C 
ATOM      9  C   UNL     1      -3.602  -2.118   0.514  0.00  0.00    +0.036 C 
ATOM     10  C   UNL     1      -2.309  -2.839   0.248  0.00  0.00    -0.038 A 
ATOM     11  C   UNL     1      -1.123  -2.147   0.001  0.00  0.00    +0.001 A 
ATOM     12  C   UNL     1       0.057  -2.846  -0.254  0.00  0.00    +0.010 A 
ATOM     13  C   UNL     1       0.050  -4.226  -0.258  0.00  0.00    +0.001 A 
ATOM     14  C   UNL     1      -1.126  -4.911  -0.008  0.00  0.00    +0.000 A 
ATOM     15  C   UNL     1      -2.298  -4.222   0.243  0.00  0.00    +0.004 A 
ENDBRANCH   3   5
BRANCH   1  16
ATOM     16  C   UNL     1       1.121   3.593   0.011  0.00  0.00    +0.326 C 
BRANCH  16  17
ATOM     17  O   UNL     1       2.461   4.088   0.001  0.00  0.00    -0.482 OA
BRANCH  17  22
ATOM     18  C   UNL     1       3.123   9.682   0.027  0.00  0.00    +0.044 C 
ATOM     19  C   UNL     1       2.946   8.185   0.019  0.00  0.00    -0.049 A 
ATOM     20  C   UNL     1       1.675   7.640   0.028  0.00  0.00    +0.007 A 
ATOM     21  C   UNL     1       1.510   6.269   0.021  0.00  0.00    +0.047 A 
ATOM     22  C   UNL     1       2.621   5.438   0.006  0.00  0.00    +0.135 A 
ATOM     23  C   UNL     1       3.896   5.987   0.003  0.00  0.00    +0.060 A 
ATOM     24  C   UNL     1       4.055   7.360   0.005  0.00  0.00    +0.022 A 
ATOM     25 BR   UNL     1       5.413   4.858  -0.010  0.00  0.00    -0.047 Br
ENDBRANCH  17  22
ENDBRANCH  16  17
ENDBRANCH   1  16
TORSDOF 4
