REMARK  Name = ZINC15735516
REMARK  7 active torsions:
REMARK  status: ('A' for Active; 'I' for Inactive)
REMARK    1  A    between atoms: C_1  and  O_2
REMARK    2  A    between atoms: O_2  and  C_3
REMARK    3  A    between atoms: C_7  and  C_9
REMARK    4  A    between atoms: N_29  and  C_30
REMARK    5  A    between atoms: C_34  and  C_36
REMARK    6  A    between atoms: C_36  and  O_38
REMARK    7  A    between atoms: O_38  and  C_39
REMARK                            x       y       z     vdW  Elec       q    Type
REMARK                         _______ _______ _______ _____ _____    ______ ____
ROOT
ATOM      1  C   UNL     1       1.327   3.575  -0.271  0.00  0.00    +0.155 C 
ATOM      2  C   UNL     1       0.996   2.114  -0.226  0.00  0.00    +0.049 A 
ATOM      3  C   UNL     1       1.797   1.054  -0.407  0.00  0.00    +0.025 A 
ATOM      4  C   UNL     1       0.990  -0.103  -0.343  0.00  0.00    +0.020 A 
ATOM      5  C   UNL     1      -0.281   0.300  -0.112  0.00  0.00    +0.092 A 
ATOM      6  N   UNL     1      -0.281   1.649  -0.014  0.00  0.00    -0.312 N 
ATOM      7  C   UNL     1      -1.295   2.552   0.283  0.00  0.00    +0.090 A 
ATOM      8  C   UNL     1      -1.167   3.579   1.166  0.00  0.00    +0.005 A 
ATOM      9  C   UNL     1      -2.282   4.430   1.316  0.00  0.00    -0.030 A 
ATOM     10  C   UNL     1      -3.404   4.131   0.610  0.00  0.00    -0.005 A 
ATOM     11  S   UNL     1      -2.952   2.684  -0.314  0.00  0.00    -0.075 S 
ATOM     12  C   UNL     1      -4.707   4.862   0.614  0.00  0.00    +0.043 C 
ATOM     13  C   UNL     1      -4.718   5.820   1.815  0.00  0.00    +0.005 C 
ATOM     14  C   UNL     1      -3.393   6.588   1.843  0.00  0.00    +0.005 C 
ATOM     15  C   UNL     1      -2.253   5.648   2.236  0.00  0.00    +0.036 C 
ATOM     16  C   UNL     1       0.123   3.769   1.932  0.00  0.00    +0.148 C 
ATOM     17  N   UNL     1       1.239   4.201   1.071  0.00  0.00    -0.268 N 
ATOM     18  C   UNL     1       2.135   5.119   1.483  0.00  0.00    +0.308 C 
ATOM     19  O   UNL     1       3.045   5.453   0.748  0.00  0.00    -0.252 OA
ATOM     20  N   UNL     1       2.024   5.666   2.709  0.00  0.00    -0.269 N 
ATOM     21  H   UNL     1       1.339   5.352   3.321  0.00  0.00    +0.156 HD
ENDROOT
BRANCH   1  26
ATOM     22  C   UNL     1      -0.984   4.258  -3.181  0.00  0.00    +0.120 A 
ATOM     23  C   UNL     1      -1.405   5.550  -2.900  0.00  0.00    +0.045 A 
ATOM     24  C   UNL     1      -0.941   6.196  -1.770  0.00  0.00    +0.004 A 
ATOM     25  C   UNL     1      -0.057   5.556  -0.920  0.00  0.00    +0.006 A 
ATOM     26  C   UNL     1       0.364   4.269  -1.199  0.00  0.00    -0.018 A 
ATOM     27  C   UNL     1      -0.093   3.621  -2.330  0.00  0.00    +0.051 A 
BRANCH  22  29
ATOM     28  C   UNL     1      -2.350   4.340  -5.125  0.00  0.00    +0.277 C 
ATOM     29  O   UNL     1      -1.439   3.621  -4.291  0.00  0.00    -0.495 OA
ENDBRANCH  22  29
ENDBRANCH   1  26
BRANCH  20  30
ATOM     30  C   UNL     1       2.895   6.689   3.101  0.00  0.00    +0.036 A 
ATOM     31  C   UNL     1       2.433   7.726   3.903  0.00  0.00    +0.023 A 
ATOM     32  C   UNL     1       3.291   8.736   4.297  0.00  0.00    +0.003 A 
ATOM     33  C   UNL     1       4.609   8.728   3.888  0.00  0.00    +0.015 A 
ATOM     34  C   UNL     1       5.081   7.693   3.077  0.00  0.00    +0.061 A 
ATOM     35  C   UNL     1       4.217   6.671   2.684  0.00  0.00    +0.038 A 
BRANCH  34  36
ATOM     36  C   UNL     1       6.492   7.681   2.637  0.00  0.00    +0.339 C 
ATOM     37  O   UNL     1       6.900   6.781   1.932  0.00  0.00    -0.245 OA
BRANCH  36  38
ATOM     38  O   UNL     1       7.324   8.670   3.018  0.00  0.00    -0.464 OA
ATOM     39  C   UNL     1       8.696   8.593   2.548  0.00  0.00    +0.280 C 
ENDBRANCH  36  38
ENDBRANCH  34  36
ENDBRANCH  20  30
TORSDOF 5
