REMARK  Name = ZINC14457798
REMARK  9 active torsions:
REMARK  status: ('A' for Active; 'I' for Inactive)
REMARK    1  A    between atoms: C_1  and  C_2
REMARK    2  A    between atoms: C_5  and  N_9
REMARK    3  A    between atoms: C_6  and  C_8
REMARK    4  A    between atoms: N_9  and  S_10
REMARK    5  A    between atoms: S_10  and  C_13
REMARK    6  A    between atoms: C_26  and  C_29
REMARK    7  A    between atoms: C_30  and  C_37
REMARK    8  A    between atoms: C_32  and  C_36
REMARK    9  A    between atoms: C_34  and  C_35
REMARK                            x       y       z     vdW  Elec       q    Type
REMARK                         _______ _______ _______ _____ _____    ______ ____
ROOT
ATOM      1  C   UNL     1       0.898  -0.665  -0.298  0.00  0.00    +0.109 A 
ATOM      2  C   UNL     1       2.091  -0.132   0.154  0.00  0.00    +0.030 A 
ATOM      3  C   UNL     1       2.265   1.236   0.200  0.00  0.00    +0.025 A 
ATOM      4  C   UNL     1       1.244   2.088  -0.205  0.00  0.00    +0.031 A 
ATOM      5  C   UNL     1       0.034   1.540  -0.646  0.00  0.00    -0.018 A 
ATOM      6  C   UNL     1      -0.126   0.172  -0.697  0.00  0.00    +0.034 A 
ATOM      7  C   UNL     1      -1.042   2.481  -1.026  0.00  0.00    +0.049 C 
ATOM      8  C   UNL     1      -2.110   2.108  -1.988  0.00  0.00    -0.023 C 
ATOM      9  C   UNL     1      -2.493   3.199  -2.640  0.00  0.00    -0.030 C 
ATOM     10  C   UNL     1      -1.669   4.402  -2.175  0.00  0.00    +0.033 C 
ATOM     11  C   UNL     1      -0.381   3.725  -1.690  0.00  0.00    +0.029 C 
ATOM     12  C   UNL     1       0.389   4.417  -0.579  0.00  0.00    +0.105 C 
ATOM     13  N   UNL     1       1.455   3.471  -0.182  0.00  0.00    -0.336 N 
ATOM     14  H   UNL     1       2.317   3.817   0.098  0.00  0.00    +0.147 HD
ENDROOT
BRANCH  12  15
ATOM     15  C   UNL     1       0.994   5.702  -1.083  0.00  0.00    -0.021 A 
ATOM     16  C   UNL     1       2.017   5.666  -2.013  0.00  0.00    -0.045 A 
ATOM     17  C   UNL     1       2.569   6.844  -2.479  0.00  0.00    +0.007 A 
ATOM     18  C   UNL     1       2.105   8.058  -2.009  0.00  0.00    -0.050 A 
ATOM     19  C   UNL     1       1.086   8.094  -1.075  0.00  0.00    +0.007 A 
ATOM     20  C   UNL     1       0.531   6.916  -0.612  0.00  0.00    -0.045 A 
ATOM     21  C   UNL     1      -0.580   6.955   0.406  0.00  0.00    +0.044 C 
ATOM     22  C   UNL     1       2.710   9.343  -2.513  0.00  0.00    +0.044 C 
ATOM     23  C   UNL     1       2.526   4.342  -2.522  0.00  0.00    +0.044 C 
ENDBRANCH  12  15
BRANCH   1  24
ATOM     24  S   UNL     1       0.684  -2.413  -0.365  0.00  0.00    +0.072 S 
ATOM     25  O   UNL     1       1.592  -2.970   0.577  0.00  0.00    -0.150 OA
ATOM     26  O   UNL     1      -0.715  -2.653  -0.308  0.00  0.00    -0.150 OA
BRANCH  24  27
ATOM     27  N   UNL     1       1.190  -2.912  -1.861  0.00  0.00    -0.216 N 
ATOM     28  H   UNL     1       0.572  -3.367  -2.455  0.00  0.00    +0.174 HD
BRANCH  27  33
ATOM     29  C   UNL     1       6.531  -1.961  -3.513  0.00  0.00    +0.044 C 
ATOM     30  C   UNL     1       5.111  -2.213  -3.074  0.00  0.00    -0.050 A 
ATOM     31  C   UNL     1       4.837  -2.481  -1.745  0.00  0.00    +0.005 A 
ATOM     32  C   UNL     1       3.538  -2.713  -1.339  0.00  0.00    +0.025 A 
ATOM     33  C   UNL     1       2.505  -2.677  -2.268  0.00  0.00    +0.051 A 
ATOM     34  C   UNL     1       2.784  -2.413  -3.603  0.00  0.00    -0.028 A 
ATOM     35  C   UNL     1       4.086  -2.176  -4.001  0.00  0.00    +0.008 A 
ATOM     36  C   UNL     1       1.668  -2.379  -4.614  0.00  0.00    +0.046 C 
ENDBRANCH  27  33
ENDBRANCH  24  27
ENDBRANCH   1  24
TORSDOF 4
