REMARK  Name = ZINC16430241
REMARK  17 active torsions:
REMARK  status: ('A' for Active; 'I' for Inactive)
REMARK    1  A    between atoms: C_1  and  C_2
REMARK    2  A    between atoms: C_2  and  C_3
REMARK    3  A    between atoms: C_6  and  N_9
REMARK    4  A    between atoms: C_19  and  C_20
REMARK    5  A    between atoms: C_20  and  C_22
REMARK    6  A    between atoms: C_20  and  N_24
REMARK    7  A    between atoms: C_22  and  C_23
REMARK    8  A    between atoms: N_24  and  C_25
REMARK    9  A    between atoms: C_25  and  C_26
REMARK   10  A    between atoms: C_26  and  N_82
REMARK   11  A    between atoms: C_27  and  N_82
REMARK   12  A    between atoms: C_28  and  N_82
REMARK   13  A    between atoms: C_29  and  C_31
REMARK   14  A    between atoms: C_34  and  C_37
REMARK   15  A    between atoms: C_37  and  C_38
REMARK   16  A    between atoms: C_37  and  C_39
REMARK   17  A    between atoms: C_37  and  C_40
REMARK                            x       y       z     vdW  Elec       q    Type
REMARK                         _______ _______ _______ _____ _____    ______ ____
ROOT
ATOM      1  C   UNL     1      -0.032   1.408   4.054  0.00  0.00    +0.143 C 
ENDROOT
BRANCH   1  12
ATOM      2  N   UNL     1      -0.732   0.720   6.314  0.00  0.00    -0.263 N 
ATOM      3  C   UNL     1      -1.609   0.669   7.343  0.00  0.00    +0.266 A 
ATOM      4  O   UNL     1      -1.341   0.080   8.374  0.00  0.00    -0.267 OA
ATOM      5  C   UNL     1      -2.899   1.354   7.168  0.00  0.00    +0.065 A 
ATOM      6  C   UNL     1      -3.870   1.362   8.167  0.00  0.00    +0.015 A 
ATOM      7  C   UNL     1      -5.061   2.018   7.950  0.00  0.00    +0.001 A 
ATOM      8  C   UNL     1      -5.299   2.672   6.748  0.00  0.00    +0.002 A 
ATOM      9  C   UNL     1      -4.353   2.676   5.748  0.00  0.00    +0.028 A 
ATOM     10  C   UNL     1      -3.137   2.017   5.944  0.00  0.00    +0.078 A 
ATOM     11  N   UNL     1      -2.175   2.000   4.988  0.00  0.00    -0.231 NA
ATOM     12  C   UNL     1      -1.047   1.383   5.168  0.00  0.00    +0.138 A 
BRANCH   2  16
ATOM     13  C   UNL     1       2.964  -1.174   6.656  0.00  0.00    -0.047 A 
ATOM     14  C   UNL     1       2.781   0.085   7.199  0.00  0.00    +0.005 A 
ATOM     15  C   UNL     1       1.557   0.715   7.087  0.00  0.00    +0.026 A 
ATOM     16  C   UNL     1       0.510   0.084   6.428  0.00  0.00    +0.051 A 
ATOM     17  C   UNL     1       0.696  -1.182   5.888  0.00  0.00    +0.026 A 
ATOM     18  C   UNL     1       1.924  -1.805   5.998  0.00  0.00    +0.005 A 
BRANCH  13  20
ATOM     19  C   UNL     1       4.331  -2.689   8.065  0.00  0.00    +0.009 C 
ATOM     20  C   UNL     1       4.301  -1.859   6.780  0.00  0.00    +0.032 C 
ENDBRANCH  13  20
ENDBRANCH   2  16
ENDBRANCH   1  12
BRANCH   1  21
ATOM     21  N   UNL     1       0.415   2.785   3.831  0.00  0.00    -0.289 N 
ATOM     22  C   UNL     1       1.717   3.103   3.976  0.00  0.00    +0.247 C 
ATOM     23  O   UNL     1       2.536   2.229   4.180  0.00  0.00    -0.270 OA
BRANCH  22  24
ATOM     24  C   UNL     1       2.148   4.514   3.886  0.00  0.00    +0.037 A 
ATOM     25  C   UNL     1       1.625   5.345   2.893  0.00  0.00    +0.013 A 
ATOM     26  C   UNL     1       2.029   6.662   2.818  0.00  0.00    +0.005 A 
ATOM     27  C   UNL     1       2.956   7.157   3.717  0.00  0.00    -0.042 A 
ATOM     28  C   UNL     1       3.481   6.338   4.701  0.00  0.00    +0.005 A 
ATOM     29  C   UNL     1       3.083   5.020   4.790  0.00  0.00    +0.013 A 
BRANCH  27  30
ATOM     30  C   UNL     1       3.396   8.596   3.626  0.00  0.00    -0.013 C 
ATOM     31  C   UNL     1       4.906   8.653   3.390  0.00  0.00    +0.015 C 
ATOM     32  C   UNL     1       2.672   9.277   2.462  0.00  0.00    +0.015 C 
ATOM     33  C   UNL     1       3.055   9.317   4.931  0.00  0.00    +0.015 C 
ENDBRANCH  27  30
ENDBRANCH  22  24
BRANCH  21  34
ATOM     34  C   UNL     1      -0.553   3.817   3.451  0.00  0.00    +0.090 C 
BRANCH  34  35
ATOM     35  C   UNL     1      -0.829   3.729   1.949  0.00  0.00    -0.060 C 
BRANCH  35  38
ATOM     36  C   UNL     1      -1.911   4.869   0.107  0.00  0.00    -0.097 C 
ATOM     37  C   UNL     1      -3.110   4.507   2.179  0.00  0.00    -0.097 C 
ATOM     38  N   UNL     1      -1.790   4.789   1.578  0.00  0.00    +0.377 N 
ATOM     39  H   UNL     1      -1.447   5.689   1.933  0.00  0.00    -0.083 HD
ENDBRANCH  35  38
ENDBRANCH  34  35
ENDBRANCH  21  34
ENDBRANCH   1  21
BRANCH   1  40
ATOM     40  C   UNL     1      -0.668   0.864   2.773  0.00  0.00    +0.027 C 
ATOM     41  C   UNL     1       0.344   0.943   1.628  0.00  0.00    +0.006 C 
ENDBRANCH   1  40
TORSDOF 10
