REMARK  Name = ZINC51604369
REMARK  6 active torsions:
REMARK  status: ('A' for Active; 'I' for Inactive)
REMARK    1  A    between atoms: C_1  and  C_2
REMARK    2  A    between atoms: C_7  and  N_12
REMARK    3  A    between atoms: C_9  and  C_11
REMARK    4  A    between atoms: C_13  and  C_26
REMARK    5  A    between atoms: C_15  and  C_23
REMARK    6  A    between atoms: C_17  and  C_22
REMARK                            x       y       z     vdW  Elec       q    Type
REMARK                         _______ _______ _______ _____ _____    ______ ____
ROOT
ATOM      1  N   UNL     1       1.212  -2.703   2.203  0.00  0.00    -0.295 N 
ATOM      2  C   UNL     1       0.624  -3.481   3.279  0.00  0.00    +0.087 C 
ATOM      3  C   UNL     1       1.372  -3.409   4.599  0.00  0.00    +0.125 C 
ATOM      4  C   UNL     1       2.323  -2.221   4.696  0.00  0.00    +0.010 C 
ATOM      5  C   UNL     1       3.266  -2.209   3.490  0.00  0.00    +0.100 C 
ATOM      6  C   UNL     1       2.431  -2.163   2.240  0.00  0.00    +0.216 C 
ATOM      7  O   UNL     1       2.876  -1.626   1.255  0.00  0.00    -0.276 OA
ATOM      8  C   UNL     1       1.553  -0.903   4.775  0.00  0.00    +0.009 C 
ATOM      9  C   UNL     1      -0.835  -3.056   3.481  0.00  0.00    +0.029 C 
ENDROOT
BRANCH   1  15
ATOM     10  C   UNL     1      -0.542   0.678  -0.950  0.00  0.00    +0.008 C 
ATOM     11  C   UNL     1      -0.472  -0.815  -0.620  0.00  0.00    -0.009 C 
ATOM     12  C   UNL     1       0.189  -1.563  -1.780  0.00  0.00    +0.003 C 
ATOM     13  C   UNL     1       0.259  -3.055  -1.450  0.00  0.00    +0.002 C 
ATOM     14  C   UNL     1       1.083  -3.258  -0.176  0.00  0.00    +0.023 C 
ATOM     15  C   UNL     1       0.422  -2.509   0.983  0.00  0.00    +0.079 C 
ATOM     16  C   UNL     1       0.352  -1.017   0.653  0.00  0.00    +0.009 C 
ATOM     17  C   UNL     1      -0.308  -0.269   1.812  0.00  0.00    +0.009 C 
ENDBRANCH   1  15
BRANCH   3  18
ATOM     18  C   UNL     1       0.374  -3.339   5.734  0.00  0.00    +0.361 C 
ATOM     19  O   UNL     1       0.226  -4.295   6.476  0.00  0.00    -0.246 OA
ATOM     20  O   UNL     1      -0.283  -2.326   5.908  0.00  0.00    -0.246 OA
ENDBRANCH   3  18
TORSDOF 2
