REMARK  Name = ZINC01012156
REMARK  6 active torsions:
REMARK  status: ('A' for Active; 'I' for Inactive)
REMARK    1  A    between atoms: C_1  and  C_2
REMARK    2  A    between atoms: N_6  and  C_7
REMARK    3  A    between atoms: C_7  and  C_8
REMARK    4  A    between atoms: C_11  and  C_16
REMARK    5  A    between atoms: C_11  and  O_20
REMARK    6  A    between atoms: C_13  and  C_15
REMARK                            x       y       z     vdW  Elec       q    Type
REMARK                         _______ _______ _______ _____ _____    ______ ____
ROOT
ATOM      1  C   UNL     1      -1.388  -0.233   2.978  0.00  0.00    +0.259 C 
ATOM      2  O   UNL     1      -2.313  -0.483   2.235  0.00  0.00    -0.272 OA
ATOM      3  N   UNL     1      -1.627   0.163   4.243  0.00  0.00    -0.151 N 
ATOM      4  C   UNL     1      -2.957   0.327   4.854  0.00  0.00    +0.256 C 
ATOM      5  C   UNL     1      -2.632   0.788   6.289  0.00  0.00    +0.118 C 
ATOM      6  C   UNL     1      -1.121   0.831   6.321  0.00  0.00    +0.039 C 
ATOM      7  N   UNL     1      -0.658   0.478   5.193  0.00  0.00    -0.184 NA
ATOM      8  C   UNL     1      -0.290   1.228   7.514  0.00  0.00    +0.062 C 
ENDROOT
BRANCH   4   9
ATOM      9  C   UNL     1      -3.763   1.395   4.113  0.00  0.00    +0.438 C 
ATOM     10  F   UNL     1      -3.951   1.000   2.784  0.00  0.00    -0.166 F 
ATOM     11  F   UNL     1      -5.007   1.555   4.732  0.00  0.00    -0.166 F 
ATOM     12  F   UNL     1      -3.068   2.609   4.144  0.00  0.00    -0.166 F 
ENDBRANCH   4   9
BRANCH   4  13
ATOM     13  O   UNL     1      -3.661  -0.916   4.871  0.00  0.00    -0.363 OA
ATOM     14  H   UNL     1      -3.826  -1.287   3.993  0.00  0.00    +0.212 HD
ENDBRANCH   4  13
BRANCH   1  15
ATOM     15  C   UNL     1       0.030  -0.365   2.485  0.00  0.00    +0.241 C 
BRANCH  15  21
ATOM     16  C   UNL     1      -0.018   1.503   0.010  0.00  0.00    +0.066 C 
ATOM     17  C   UNL     1       0.002  -0.004   0.002  0.00  0.00    +0.053 A 
ATOM     18  C   UNL     1       0.008  -0.796  -1.096  0.00  0.00    +0.089 A 
ATOM     19  C   UNL     1       0.028  -2.127  -0.665  0.00  0.00    +0.249 A 
ATOM     20  N   UNL     1       0.034  -2.134   0.643  0.00  0.00    -0.145 NA
ATOM     21  N   UNL     1       0.023  -0.806   1.088  0.00  0.00    -0.256 N 
ATOM     22  N   UNL     1       0.040  -3.322  -1.540  0.00  0.00    +0.078 N 
ATOM     23  O   UNL     1       0.033  -3.192  -2.741  0.00  0.00    -0.125 OA
ATOM     24  O   UNL     1       0.058  -4.428  -1.052  0.00  0.00    -0.125 OA
ATOM     25 BR   UNL     1      -0.008  -0.208  -2.893  0.00  0.00    -0.044 Br
ENDBRANCH  15  21
ENDBRANCH   1  15
TORSDOF 4
