REMARK  Name = ZINC64069919
REMARK  7 active torsions:
REMARK  status: ('A' for Active; 'I' for Inactive)
REMARK    1  A    between atoms: C_1  and  C_2
REMARK    2  A    between atoms: C_2  and  C_4
REMARK    3  A    between atoms: C_2  and  S_14
REMARK    4  A    between atoms: C_6  and  C_9
REMARK    5  A    between atoms: S_14  and  C_15
REMARK    6  A    between atoms: C_19  and  C_24
REMARK    7  A    between atoms: N_20  and  C_21
REMARK                            x       y       z     vdW  Elec       q    Type
REMARK                         _______ _______ _______ _____ _____    ______ ____
ROOT
ATOM      1  C   UNL     1       2.653  -0.029   1.258  0.00  0.00    +0.238 C 
ATOM      2  N   UNL     1       3.156  -0.519  -0.036  0.00  0.00    -0.237 N 
ATOM      3  N   UNL     1       3.372   0.611  -0.833  0.00  0.00    -0.169 NA
ATOM      4  C   UNL     1       3.068   1.709  -0.192  0.00  0.00    +0.147 C 
ATOM      5  N   UNL     1       2.616   1.435   1.104  0.00  0.00    -0.282 N 
ATOM      6  H   UNL     1       3.307  -1.444  -0.287  0.00  0.00    +0.171 HD
ENDROOT
BRANCH   4   7
ATOM      7  C   UNL     1       3.183   2.998  -0.734  0.00  0.00    +0.022 C 
ATOM      8  C   UNL     1       3.721   3.349  -1.972  0.00  0.00    +0.006 A 
ATOM      9  C   UNL     1       4.286   2.585  -3.016  0.00  0.00    +0.010 A 
ATOM     10  C   UNL     1       4.739   3.206  -4.136  0.00  0.00    +0.001 A 
ATOM     11  C   UNL     1       4.661   4.593  -4.285  0.00  0.00    +0.002 A 
ATOM     12  C   UNL     1       4.131   5.387  -3.323  0.00  0.00    +0.026 A 
ATOM     13  C   UNL     1       3.637   4.810  -2.125  0.00  0.00    +0.043 A 
ATOM     14  N   UNL     1       3.083   5.354  -1.058  0.00  0.00    -0.380 N 
ATOM     15  C   UNL     1       2.743   4.299  -0.099  0.00  0.00    +0.152 C 
ATOM     16  H   UNL     1       2.924   6.302  -0.931  0.00  0.00    +0.160 HD
ENDBRANCH   4   7
BRANCH   5  17
ATOM     17  C   UNL     1       2.189   2.410   2.111  0.00  0.00    +0.078 C 
ATOM     18  C   UNL     1       3.033   2.530   3.381  0.00  0.00    +0.024 C 
ATOM     19  C   UNL     1       1.655   1.869   3.438  0.00  0.00    +0.024 C 
ENDBRANCH   5  17
BRANCH   1  20
ATOM     20  S   UNL     1       0.989  -0.675   1.579  0.00  0.00    -0.105 S 
BRANCH  20  22
ATOM     21  C   UNL     1      -0.062   1.397   0.136  0.00  0.00    +0.029 C 
ATOM     22  C   UNL     1       0.022  -0.130   0.144  0.00  0.00    +0.135 C 
BRANCH  22  23
ATOM     23  C   UNL     1      -1.367  -0.710   0.224  0.00  0.00    +0.240 A 
ATOM     24  N   UNL     1      -2.015  -1.268  -0.757  0.00  0.00    -0.190 NA
ATOM     25  C   UNL     1      -3.228  -1.675  -0.335  0.00  0.00    +0.209 A 
ATOM     26  N   UNL     1      -3.352  -1.371   0.936  0.00  0.00    -0.056 NA
ATOM     27  O   UNL     1      -2.138  -0.743   1.319  0.00  0.00    -0.337 OA
BRANCH  25  28
ATOM     28  C   UNL     1      -4.247  -2.350  -1.164  0.00  0.00    +0.060 A 
ATOM     29  C   UNL     1      -5.497  -2.787  -0.811  0.00  0.00    +0.019 A 
ATOM     30  C   UNL     1      -6.280  -3.395  -1.765  0.00  0.00    +0.008 A 
ATOM     31  C   UNL     1      -5.793  -3.545  -3.024  0.00  0.00    +0.046 A 
ATOM     32  S   UNL     1      -4.175  -2.803  -2.890  0.00  0.00    -0.093 S 
ENDBRANCH  25  28
ENDBRANCH  22  23
ENDBRANCH  20  22
ENDBRANCH   1  20
TORSDOF 6
