REMARK  Name = ZINC09237392
REMARK  7 active torsions:
REMARK  status: ('A' for Active; 'I' for Inactive)
REMARK    1  A    between atoms: C_1  and  C_2
REMARK    2  A    between atoms: C_5  and  C_8
REMARK    3  A    between atoms: C_10  and  C_20
REMARK    4  A    between atoms: C_16  and  C_19
REMARK    5  A    between atoms: N_22  and  C_23
REMARK    6  A    between atoms: C_25  and  C_30
REMARK    7  A    between atoms: C_28  and  C_29
REMARK                            x       y       z     vdW  Elec       q    Type
REMARK                         _______ _______ _______ _____ _____    ______ ____
ROOT
ATOM      1  C   UNL     1      -0.078   5.756   0.031  0.00  0.00    +0.140 C 
ATOM      2  C   UNL     1      -0.318   6.257   1.461  0.00  0.00    +0.166 C 
ATOM      3  S   UNL     1       0.032   8.042   1.490  0.00  0.00    -0.069 S 
ATOM      4  C   UNL     1      -0.815   8.477   0.004  0.00  0.00    +0.209 A 
ATOM      5  N   UNL     1      -1.130   9.668  -0.425  0.00  0.00    -0.121 NA
ATOM      6  N   UNL     1      -1.730   9.569  -1.561  0.00  0.00    -0.132 NA
ATOM      7  C   UNL     1      -1.830   8.316  -1.910  0.00  0.00    +0.148 A 
ATOM      8  N   UNL     1      -1.256   7.572  -0.919  0.00  0.00    -0.225 N 
ATOM      9  N   UNL     1      -1.147   6.219  -0.856  0.00  0.00    -0.272 N 
ATOM     10  C   UNL     1      -2.461   7.787  -3.172  0.00  0.00    +0.090 C 
ATOM     11  H   UNL     1      -1.051   5.820  -1.777  0.00  0.00    +0.167 HD
ENDROOT
BRANCH   1  16
ATOM     12  C   UNL     1       0.038  -0.021   0.025  0.00  0.00    +0.044 C 
ATOM     13  C   UNL     1       0.008   1.485   0.027  0.00  0.00    -0.050 A 
ATOM     14  C   UNL     1      -1.203   2.152   0.033  0.00  0.00    +0.004 A 
ATOM     15  C   UNL     1      -1.231   3.534   0.039  0.00  0.00    +0.006 A 
ATOM     16  C   UNL     1      -0.048   4.249   0.029  0.00  0.00    -0.024 A 
ATOM     17  C   UNL     1       1.163   3.583   0.018  0.00  0.00    +0.006 A 
ATOM     18  C   UNL     1       1.191   2.200   0.017  0.00  0.00    +0.004 A 
ENDBRANCH   1  16
BRANCH   2  19
ATOM     19  C   UNL     1       0.607   5.543   2.413  0.00  0.00    +0.233 C 
ATOM     20  O   UNL     1       1.726   5.240   2.058  0.00  0.00    -0.274 OA
ATOM     21  N   UNL     1       0.190   5.242   3.659  0.00  0.00    -0.284 N 
ATOM     22  H   UNL     1      -0.675   5.553   3.969  0.00  0.00    +0.155 HD
BRANCH  21  23
ATOM     23  C   UNL     1       1.003   4.478   4.503  0.00  0.00    +0.037 A 
ATOM     24  C   UNL     1       1.949   3.615   3.965  0.00  0.00    +0.027 A 
ATOM     25  C   UNL     1       2.750   2.863   4.802  0.00  0.00    -0.049 A 
ATOM     26  C   UNL     1       2.612   2.969   6.174  0.00  0.00    +0.004 A 
ATOM     27  C   UNL     1       1.671   3.828   6.713  0.00  0.00    +0.005 A 
ATOM     28  C   UNL     1       0.871   4.587   5.881  0.00  0.00    -0.029 A 
ATOM     29  C   UNL     1      -0.150   5.527   6.469  0.00  0.00    +0.045 C 
ATOM     30  C   UNL     1       3.777   1.927   4.219  0.00  0.00    +0.044 C 
ENDBRANCH  21  23
ENDBRANCH   2  19
TORSDOF 3
