REMARK  Name = ZINC65741727
REMARK  6 active torsions:
REMARK  status: ('A' for Active; 'I' for Inactive)
REMARK    1  A    between atoms: C_4  and  C_7
REMARK    2  A    between atoms: C_7  and  C_8
REMARK    3  A    between atoms: C_8  and  C_9
REMARK    4  A    between atoms: C_8  and  N_12
REMARK    5  A    between atoms: C_13  and  C_15
REMARK    6  A    between atoms: C_16  and  C_17
REMARK                            x       y       z     vdW  Elec       q    Type
REMARK                         _______ _______ _______ _____ _____    ______ ____
ROOT
ATOM      1  N   UNL     1       3.229  -1.870   2.059  0.00  0.00    -0.300 N 
ATOM      2  C   UNL     1       3.109  -1.856   3.402  0.00  0.00    +0.238 C 
ATOM      3  O   UNL     1       3.784  -1.091   4.065  0.00  0.00    -0.271 OA
ATOM      4  H   UNL     1       2.691  -2.480   1.530  0.00  0.00    +0.150 HD
ENDROOT
BRANCH   2   5
ATOM      5  C   UNL     1       2.168  -2.761   4.061  0.00  0.00    +0.068 C 
ATOM      6  C   UNL     1       2.048  -2.748   5.405  0.00  0.00    +0.013 C 
BRANCH   6   7
ATOM      7  C   UNL     1       1.102  -3.658   6.068  0.00  0.00    -0.020 A 
ATOM      8  C   UNL     1       0.972  -3.641   7.462  0.00  0.00    +0.057 A 
ATOM      9  C   UNL     1       0.082  -4.497   8.080  0.00  0.00    +0.168 A 
ATOM     10  C   UNL     1      -0.686  -5.377   7.315  0.00  0.00    +0.184 A 
ATOM     11  C   UNL     1      -0.557  -5.394   5.932  0.00  0.00    +0.087 A 
ATOM     12  C   UNL     1       0.326  -4.538   5.307  0.00  0.00    +0.031 A 
ATOM     13 CL   UNL     1      -1.514  -6.491   4.987  0.00  0.00    -0.080 Cl
ATOM     14  O   UNL     1      -1.477  -6.106   8.155  0.00  0.00    -0.451 OA
ATOM     15  C   UNL     1      -0.893  -5.955   9.462  0.00  0.00    +0.466 C 
ATOM     16  O   UNL     1      -0.230  -4.678   9.397  0.00  0.00    -0.453 OA
ENDBRANCH   6   7
ENDBRANCH   2   5
BRANCH   1  17
ATOM     17  C   UNL     1       4.171  -0.963   1.399  0.00  0.00    +0.163 C 
BRANCH  17  18
ATOM     18  C   UNL     1       5.543  -1.588   1.383  0.00  0.00    +0.231 C 
ATOM     19  O   UNL     1       5.715  -2.683   1.875  0.00  0.00    -0.274 OA
ATOM     20  N   UNL     1       6.577  -0.931   0.823  0.00  0.00    -0.328 N 
ATOM     21  H   UNL     1       6.438  -0.055   0.429  0.00  0.00    +0.145 HD
ATOM     22  H   UNL     1       7.459  -1.333   0.812  0.00  0.00    +0.145 HD
ENDBRANCH  17  18
BRANCH  17  23
ATOM     23  C   UNL     1       3.711  -0.707  -0.038  0.00  0.00    +0.067 C 
BRANCH  23  27
ATOM     24  C   UNL     1      -0.017   1.378   0.010  0.00  0.00    +0.000 A 
ATOM     25  C   UNL     1       1.171   2.086   0.002  0.00  0.00    +0.000 A 
ATOM     26  C   UNL     1       2.377   1.411  -0.013  0.00  0.00    +0.004 A 
ATOM     27  C   UNL     1       2.396   0.029  -0.020  0.00  0.00    -0.045 A 
ATOM     28  C   UNL     1       1.208  -0.679  -0.012  0.00  0.00    +0.004 A 
ATOM     29  C   UNL     1       0.002  -0.004   0.002  0.00  0.00    +0.000 A 
ENDBRANCH  23  27
ENDBRANCH  17  23
ENDBRANCH   1  17
TORSDOF 6
