REMARK  Name = ZINC64788900
REMARK  6 active torsions:
REMARK  status: ('A' for Active; 'I' for Inactive)
REMARK    1  A    between atoms: C_1  and  C_2
REMARK    2  A    between atoms: C_2  and  O_3
REMARK    3  A    between atoms: O_3  and  C_4
REMARK    4  A    between atoms: C_7  and  C_10
REMARK    5  A    between atoms: C_16  and  C_18
REMARK    6  A    between atoms: N_24  and  C_27
REMARK                            x       y       z     vdW  Elec       q    Type
REMARK                         _______ _______ _______ _____ _____    ______ ____
ROOT
ATOM      1  C   UNL     1       1.109  -6.040  -1.847  0.00  0.00    +0.132 C 
ATOM      2  C   UNL     1       0.068  -6.542  -2.864  0.00  0.00    +0.082 C 
ATOM      3  C   UNL     1       0.893  -7.141  -3.980  0.00  0.00    +0.041 C 
ATOM      4  N   UNL     1       2.192  -7.014  -3.673  0.00  0.00    -0.264 N 
ATOM      5  N   UNL     1       2.406  -6.384  -2.446  0.00  0.00    -0.215 N 
ATOM      6  C   UNL     1       3.610  -6.130  -1.896  0.00  0.00    +0.229 C 
ATOM      7  O   UNL     1       3.681  -5.574  -0.821  0.00  0.00    -0.274 OA
ATOM      8  C   UNL     1       4.869  -6.537  -2.618  0.00  0.00    +0.111 C 
ATOM      9  C   UNL     1       0.391  -7.726  -5.128  0.00  0.00    +0.118 C 
ATOM     10  C   UNL     1      -1.059  -7.813  -5.375  0.00  0.00    +0.258 C 
ATOM     11  N   UNL     1      -1.477  -8.396  -6.518  0.00  0.00    -0.235 N 
ATOM     12  C   UNL     1      -0.608  -8.888  -7.412  0.00  0.00    +0.316 C 
ATOM     13  O   UNL     1      -1.049  -9.401  -8.421  0.00  0.00    -0.252 OA
ATOM     14  N   UNL     1       0.722  -8.843  -7.252  0.00  0.00    -0.218 N 
ATOM     15  C   UNL     1       1.283  -8.283  -6.160  0.00  0.00    +0.261 C 
ATOM     16  O   UNL     1       2.492  -8.244  -6.029  0.00  0.00    -0.269 OA
ATOM     17  O   UNL     1      -1.858  -7.371  -4.571  0.00  0.00    -0.270 OA
ATOM     18  H   UNL     1      -2.428  -8.461  -6.696  0.00  0.00    +0.159 HD
ATOM     19  H   UNL     1       2.910  -7.328  -4.245  0.00  0.00    +0.170 HD
ENDROOT
BRANCH   1  23
ATOM     20  C   UNL     1       0.777  -1.810  -1.336  0.00  0.00    +0.121 A 
ATOM     21  C   UNL     1       0.243  -2.669  -0.386  0.00  0.00    +0.046 A 
ATOM     22  C   UNL     1       0.351  -4.036  -0.554  0.00  0.00    +0.009 A 
ATOM     23  C   UNL     1       0.992  -4.548  -1.667  0.00  0.00    -0.025 A 
ATOM     24  C   UNL     1       1.525  -3.694  -2.615  0.00  0.00    +0.009 A 
ATOM     25  C   UNL     1       1.414  -2.327  -2.455  0.00  0.00    +0.046 A 
BRANCH  20  26
ATOM     26  O   UNL     1       0.671  -0.465  -1.174  0.00  0.00    -0.492 OA
BRANCH  26  28
ATOM     27  C   UNL     1      -0.019   1.526   0.010  0.00  0.00    +0.048 C 
ATOM     28  C   UNL     1       0.002  -0.004   0.002  0.00  0.00    +0.225 C 
ENDBRANCH  26  28
ENDBRANCH  20  26
ENDBRANCH   1  23
BRANCH  14  29
ATOM     29  C   UNL     1       1.587  -9.410  -8.290  0.00  0.00    +0.086 C 
ATOM     30  C   UNL     1       1.339  -8.684  -9.614  0.00  0.00    +0.023 C 
ATOM     31  C   UNL     1       2.242  -9.276 -10.697  0.00  0.00    +0.002 C 
ATOM     32  C   UNL     1       1.929 -10.764 -10.865  0.00  0.00    +0.000 C 
ATOM     33  C   UNL     1       2.178 -11.490  -9.541  0.00  0.00    +0.002 C 
ATOM     34  C   UNL     1       1.274 -10.898  -8.457  0.00  0.00    +0.023 C 
ENDBRANCH  14  29
TORSDOF 4
