REMARK  Name = ZINC13387172
REMARK  12 active torsions:
REMARK  status: ('A' for Active; 'I' for Inactive)
REMARK    1  A    between atoms: C_1  and  C_2
REMARK    2  A    between atoms: C_2  and  C_4
REMARK    3  A    between atoms: C_2  and  C_10
REMARK    4  A    between atoms: C_4  and  C_5
REMARK    5  A    between atoms: C_5  and  C_6
REMARK    6  A    between atoms: C_6  and  C_7
REMARK    7  A    between atoms: C_7  and  C_8
REMARK    8  A    between atoms: C_7  and  C_9
REMARK    9  A    between atoms: C_16  and  C_37
REMARK   10  A    between atoms: N_25  and  O_26
REMARK   11  A    between atoms: C_29  and  C_36
REMARK   12  A    between atoms: N_33  and  O_34
REMARK                            x       y       z     vdW  Elec       q    Type
REMARK                         _______ _______ _______ _____ _____    ______ ____
ROOT
ATOM      1  C   UNL     1      -1.440  -0.591   0.155  0.00  0.00    -0.002 C 
ATOM      2  C   UNL     1      -1.474  -2.115   0.438  0.00  0.00    +0.004 C 
ATOM      3  C   UNL     1      -2.420  -2.310   1.660  0.00  0.00    +0.004 C 
ATOM      4  C   UNL     1      -3.206  -0.989   1.669  0.00  0.00    -0.001 C 
ATOM      5  C   UNL     1      -2.073   0.031   1.421  0.00  0.00    -0.026 C 
ATOM      6  C   UNL     1      -2.635   1.414   1.238  0.00  0.00    +0.007 C 
ATOM      7  C   UNL     1      -3.680   1.756   2.306  0.00  0.00    +0.005 C 
ATOM      8  C   UNL     1      -3.763   0.725   3.414  0.00  0.00    -0.001 C 
ATOM      9  C   UNL     1      -4.021  -0.679   2.883  0.00  0.00    +0.002 C 
ATOM     10  C   UNL     1      -3.830  -1.694   4.017  0.00  0.00    +0.058 C 
ATOM     11  C   UNL     1      -4.831  -1.298   5.095  0.00  0.00    +0.062 C 
ATOM     12  N   UNL     1      -4.931  -1.944   6.192  0.00  0.00    -0.096 NA
ATOM     13  C   UNL     1      -5.697  -0.098   4.780  0.00  0.00    +0.048 C 
ATOM     14  C   UNL     1      -4.802   1.100   4.471  0.00  0.00    -0.020 C 
ATOM     15  C   UNL     1      -5.646   2.286   4.025  0.00  0.00    +0.013 C 
ATOM     16  C   UNL     1      -6.627   2.693   5.128  0.00  0.00    +0.055 C 
ATOM     17  C   UNL     1      -7.390   1.485   5.614  0.00  0.00    +0.058 C 
ATOM     18  N   UNL     1      -8.664   1.530   5.745  0.00  0.00    -0.097 NA
ATOM     19  C   UNL     1      -6.632   0.217   5.945  0.00  0.00    +0.064 C 
ATOM     20  C   UNL     1      -4.024   1.486   5.732  0.00  0.00    +0.012 C 
ATOM     21  C   UNL     1      -0.996   0.005   2.504  0.00  0.00    +0.012 C 
ENDROOT
BRANCH   1  23
ATOM     22  C   UNL     1       0.002   1.403  -0.261  0.00  0.00    +0.008 C 
ATOM     23  C   UNL     1      -0.001  -0.104   0.003  0.00  0.00    -0.010 C 
BRANCH  23  24
ATOM     24  C   UNL     1       0.661  -0.829  -1.171  0.00  0.00    +0.003 C 
BRANCH  24  25
ATOM     25  C   UNL     1       2.137  -0.435  -1.246  0.00  0.00    +0.001 C 
BRANCH  25  26
ATOM     26  C   UNL     1       2.800  -1.159  -2.419  0.00  0.00    +0.003 C 
BRANCH  26  27
ATOM     27  C   UNL     1       4.276  -0.765  -2.494  0.00  0.00    -0.017 C 
ATOM     28  C   UNL     1       5.003  -1.269  -1.246  0.00  0.00    +0.007 C 
ATOM     29  C   UNL     1       4.908  -1.391  -3.739  0.00  0.00    +0.007 C 
ENDBRANCH  26  27
ENDBRANCH  25  26
ENDBRANCH  24  25
ENDBRANCH  23  24
ENDBRANCH   1  23
BRANCH  12  30
ATOM     30  O   UNL     1      -4.098  -3.063   6.434  0.00  0.00    -0.409 OA
ATOM     31  H   UNL     1      -4.246  -3.487   7.290  0.00  0.00    +0.328 HD
ENDBRANCH  12  30
BRANCH  18  32
ATOM     32  O   UNL     1      -9.366   2.720   5.434  0.00  0.00    -0.409 OA
ATOM     33  H   UNL     1     -10.322   2.658   5.564  0.00  0.00    +0.328 HD
ENDBRANCH  18  32
TORSDOF 7
