REMARK  Name = ZINC16856651
REMARK  13 active torsions:
REMARK  status: ('A' for Active; 'I' for Inactive)
REMARK    1  A    between atoms: C_1  and  C_2
REMARK    2  A    between atoms: C_2  and  C_3
REMARK    3  A    between atoms: C_3  and  C_4
REMARK    4  A    between atoms: C_4  and  C_5
REMARK    5  A    between atoms: C_5  and  O_6
REMARK    6  A    between atoms: O_6  and  C_7
REMARK    7  A    between atoms: C_7  and  C_9
REMARK    8  A    between atoms: C_12  and  N_15
REMARK    9  A    between atoms: C_18  and  C_20
REMARK   10  A    between atoms: C_21  and  C_29
REMARK   11  A    between atoms: C_23  and  C_27
REMARK   12  A    between atoms: C_24  and  N_26
REMARK   13  A    between atoms: C_32  and  O_35
REMARK                            x       y       z     vdW  Elec       q    Type
REMARK                         _______ _______ _______ _____ _____    ______ ____
ROOT
ATOM      1  N   UNL     1       7.440   1.689   2.229  0.00  0.00    -0.200 N 
ATOM      2  C   UNL     1       6.600   2.697   1.901  0.00  0.00    +0.230 A 
ATOM      3  C   UNL     1       6.086   2.417   0.666  0.00  0.00    +0.050 A 
ATOM      4  C   UNL     1       6.628   1.213   0.236  0.00  0.00    +0.068 A 
ATOM      5  N   UNL     1       7.440   0.771   1.167  0.00  0.00    -0.168 NA
ATOM      6  C   UNL     1       6.334   0.531  -1.075  0.00  0.00    +0.068 C 
ATOM      7  C   UNL     1       5.103   3.323  -0.029  0.00  0.00    +0.101 C 
ATOM      8  C   UNL     1       5.063   4.635   0.716  0.00  0.00    +0.098 C 
ATOM      9  C   UNL     1       5.625   4.794   1.934  0.00  0.00    +0.200 C 
ATOM     10  O   UNL     1       6.270   3.813   2.597  0.00  0.00    -0.423 OA
ENDROOT
BRANCH   1  14
ATOM     11  C   UNL     1       9.635   1.368   5.759  0.00  0.00    +0.059 A 
ATOM     12  C   UNL     1       9.121   0.221   5.146  0.00  0.00    +0.017 A 
ATOM     13  C   UNL     1       8.396   0.331   3.981  0.00  0.00    +0.029 A 
ATOM     14  C   UNL     1       8.175   1.582   3.413  0.00  0.00    +0.069 A 
ATOM     15  C   UNL     1       8.690   2.724   4.016  0.00  0.00    +0.029 A 
ATOM     16  C   UNL     1       9.411   2.622   5.185  0.00  0.00    +0.017 A 
BRANCH  11  17
ATOM     17  C   UNL     1      10.411   1.254   7.008  0.00  0.00    +0.339 C 
ATOM     18  O   UNL     1      10.604   0.163   7.506  0.00  0.00    -0.245 OA
BRANCH  17  19
ATOM     19  O   UNL     1      10.906   2.360   7.597  0.00  0.00    -0.461 OA
BRANCH  19  20
ATOM     20  C   UNL     1      11.659   2.173   8.824  0.00  0.00    +0.232 C 
BRANCH  20  21
ATOM     21  C   UNL     1      12.137   3.531   9.341  0.00  0.00    +0.041 C 
BRANCH  21  22
ATOM     22  C   UNL     1      12.931   3.334  10.634  0.00  0.00    +0.003 C 
BRANCH  22  24
ATOM     23  C   UNL     1      14.204   4.495  12.444  0.00  0.00    +0.004 C 
ATOM     24  C   UNL     1      13.409   4.692  11.151  0.00  0.00    -0.003 C 
ENDBRANCH  22  24
ENDBRANCH  21  22
ENDBRANCH  20  21
ENDBRANCH  19  20
ENDBRANCH  17  19
ENDBRANCH  11  17
ENDBRANCH   1  14
BRANCH   7  25
ATOM     25  C   UNL     1       3.735   2.692  -0.019  0.00  0.00    -0.034 A 
ATOM     26  C   UNL     1       3.096   2.409  -1.213  0.00  0.00    +0.008 A 
ATOM     27  C   UNL     1       1.842   1.830  -1.207  0.00  0.00    +0.046 A 
ATOM     28  C   UNL     1       1.223   1.532  -0.001  0.00  0.00    +0.117 A 
ATOM     29  C   UNL     1       1.863   1.822   1.195  0.00  0.00    +0.046 A 
ATOM     30  C   UNL     1       3.119   2.397   1.183  0.00  0.00    +0.008 A 
BRANCH  28  31
ATOM     31  O   UNL     1      -0.011   0.963   0.007  0.00  0.00    -0.507 OA
ATOM     32  H   UNL     1       0.002  -0.004   0.002  0.00  0.00    +0.292 HD
ENDBRANCH  28  31
ENDBRANCH   7  25
BRANCH   9  33
ATOM     33  N   UNL     1       5.532   6.026   2.533  0.00  0.00    -0.328 N 
ATOM     34  H   UNL     1       5.925   6.170   3.408  0.00  0.00    +0.145 HD
ATOM     35  H   UNL     1       5.074   6.752   2.081  0.00  0.00    +0.145 HD
ENDBRANCH   9  33
BRANCH   8  36
ATOM     36  C   UNL     1       4.407   5.753   0.107  0.00  0.00    +0.101 C 
ATOM     37  N   UNL     1       3.887   6.640  -0.375  0.00  0.00    -0.191 NA
ENDBRANCH   8  36
TORSDOF 11
