REMARK  Name = ZINC27200054
REMARK  13 active torsions:
REMARK  status: ('A' for Active; 'I' for Inactive)
REMARK    1  A    between atoms: C_1  and  C_2
REMARK    2  A    between atoms: C_2  and  C_3
REMARK    3  A    between atoms: C_3  and  C_4
REMARK    4  A    between atoms: C_4  and  C_6
REMARK    5  A    between atoms: C_4  and  N_7
REMARK    6  A    between atoms: C_8  and  C_10
REMARK    7  A    between atoms: C_10  and  C_12
REMARK    8  A    between atoms: C_10  and  N_13
REMARK    9  A    between atoms: N_16  and  C_19
REMARK   10  A    between atoms: C_19  and  C_20
REMARK   11  A    between atoms: N_22  and  C_23
REMARK   12  A    between atoms: C_27  and  C_30
REMARK   13  A    between atoms: C_28  and  C_29
REMARK                            x       y       z     vdW  Elec       q    Type
REMARK                         _______ _______ _______ _____ _____    ______ ____
ROOT
ATOM      1  N   UNL     1       4.385   3.160   0.907  0.00  0.00    +0.389 N 
ATOM      2  C   UNL     1       3.430   3.598  -0.122  0.00  0.00    -0.062 C 
ATOM      3  C   UNL     1       2.015   3.186   0.291  0.00  0.00    +0.066 C 
ATOM      4  N   UNL     1       1.964   1.727   0.467  0.00  0.00    -0.298 NA
ATOM      5  C   UNL     1       2.918   1.290   1.495  0.00  0.00    +0.066 C 
ATOM      6  C   UNL     1       4.333   1.702   1.083  0.00  0.00    -0.062 C 
ATOM      7  H   UNL     1       4.095   3.628   1.860  0.00  0.00    -0.081 HD
ENDROOT
BRANCH   1   8
ATOM      8  C   UNL     1       5.747   3.604   0.584  0.00  0.00    +0.016 C 
ATOM      9  C   UNL     1       6.060   3.268  -0.876  0.00  0.00    -0.004 C 
BRANCH   8  11
ATOM     10  N   UNL     1       7.063   5.685   0.820  0.00  0.00    -0.314 N 
ATOM     11  C   UNL     1       5.853   5.093   0.790  0.00  0.00    +0.199 C 
ATOM     12  O   UNL     1       4.849   5.759   0.930  0.00  0.00    -0.278 OA
ATOM     13  H   UNL     1       7.974   5.081   0.692  0.00  0.00    +0.149 HD
BRANCH  10  14
ATOM     14  C   UNL     1       7.166   7.133   1.020  0.00  0.00    +0.070 C 
ATOM     15  C   UNL     1       7.012   7.846  -0.324  0.00  0.00    +0.028 C 
BRANCH  14  16
ATOM     16  C   UNL     1       8.532   7.468   1.623  0.00  0.00    +0.022 C 
BRANCH  16  18
ATOM     17  C   UNL     1      10.003   7.192   3.623  0.00  0.00    +0.004 C 
ATOM     18  C   UNL     1       8.637   6.857   3.021  0.00  0.00    -0.002 C 
ENDBRANCH  16  18
ENDBRANCH  14  16
ENDBRANCH  10  14
ENDBRANCH   8  11
ENDBRANCH   1   8
BRANCH   4  19
ATOM     19  C   UNL     1       0.602   1.284   0.790  0.00  0.00    +0.180 C 
BRANCH  19  20
ATOM     20  C   UNL     1       0.533  -0.220   0.721  0.00  0.00    +0.231 C 
ATOM     21  O   UNL     1       1.523  -0.859   0.432  0.00  0.00    -0.274 OA
ATOM     22  N   UNL     1      -0.627  -0.855   0.982  0.00  0.00    -0.284 N 
ATOM     23  H   UNL     1      -1.499  -0.284   1.333  0.00  0.00    +0.155 HD
BRANCH  22  24
ATOM     24  C   UNL     1      -0.721  -2.240   0.806  0.00  0.00    +0.037 A 
ATOM     25  C   UNL     1       0.184  -2.901  -0.014  0.00  0.00    +0.023 A 
ATOM     26  C   UNL     1       0.088  -4.268  -0.185  0.00  0.00    +0.002 A 
ATOM     27  C   UNL     1      -0.908  -4.978   0.459  0.00  0.00    +0.004 A 
ATOM     28  C   UNL     1      -1.811  -4.323   1.276  0.00  0.00    -0.046 A 
ATOM     29  C   UNL     1      -1.717  -2.957   1.456  0.00  0.00    -0.026 A 
ATOM     30  C   UNL     1      -2.697  -2.245   2.352  0.00  0.00    +0.046 C 
ATOM     31  C   UNL     1      -2.895  -5.102   1.976  0.00  0.00    +0.044 C 
ENDBRANCH  22  24
ENDBRANCH  19  20
ENDBRANCH   4  19
TORSDOF 8
