REMARK  Name = ZINC20142106
REMARK  9 active torsions:
REMARK  status: ('A' for Active; 'I' for Inactive)
REMARK    1  A    between atoms: C_1  and  C_2
REMARK    2  A    between atoms: C_5  and  C_8
REMARK    3  A    between atoms: C_8  and  C_10
REMARK    4  A    between atoms: C_8  and  N_26
REMARK    5  A    between atoms: N_14  and  C_15
REMARK    6  A    between atoms: C_15  and  S_16
REMARK    7  A    between atoms: S_16  and  C_19
REMARK    8  A    between atoms: C_22  and  C_25
REMARK    9  A    between atoms: N_29  and  C_32
REMARK                            x       y       z     vdW  Elec       q    Type
REMARK                         _______ _______ _______ _____ _____    ______ ____
ROOT
ATOM      1  C   UNL     1       3.512   0.638  -0.029  0.00  0.00    +0.157 C 
ENDROOT
BRANCH   1   6
ATOM      2  C   UNL     1       5.392  -0.630  -5.343  0.00  0.00    +0.044 C 
ATOM      3  C   UNL     1       4.902  -0.299  -3.957  0.00  0.00    -0.050 A 
ATOM      4  C   UNL     1       3.608   0.150  -3.771  0.00  0.00    +0.004 A 
ATOM      5  C   UNL     1       3.158   0.454  -2.499  0.00  0.00    +0.006 A 
ATOM      6  C   UNL     1       4.002   0.307  -1.415  0.00  0.00    -0.023 A 
ATOM      7  C   UNL     1       5.298  -0.137  -1.602  0.00  0.00    +0.006 A 
ATOM      8  C   UNL     1       5.746  -0.445  -2.873  0.00  0.00    +0.004 A 
ENDBRANCH   1   6
BRANCH   1   9
ATOM      9  N   UNL     1       4.024  -0.357   0.923  0.00  0.00    -0.293 NA
ATOM     10  C   UNL     1       3.626  -1.716   0.528  0.00  0.00    +0.067 C 
ATOM     11  C   UNL     1       4.244  -2.727   1.497  0.00  0.00    -0.063 C 
ATOM     12  N   UNL     1       3.798  -2.427   2.864  0.00  0.00    +0.383 N 
ATOM     13  C   UNL     1       4.195  -1.068   3.259  0.00  0.00    -0.063 C 
ATOM     14  C   UNL     1       3.577  -0.057   2.290  0.00  0.00    +0.067 C 
ATOM     15  H   UNL     1       2.699  -2.478   2.882  0.00  0.00    -0.081 HD
BRANCH  12  16
ATOM     16  C   UNL     1       4.310  -3.422   3.816  0.00  0.00    -0.068 C 
ATOM     17  C   UNL     1       5.853  -3.410   3.814  0.00  0.00    -0.015 C 
ATOM     18  C   UNL     1       6.245  -4.899   3.984  0.00  0.00    -0.002 C 
ATOM     19  C   UNL     1       5.179  -5.632   3.132  0.00  0.00    -0.002 C 
ATOM     20  C   UNL     1       3.881  -4.835   3.382  0.00  0.00    -0.015 C 
ENDBRANCH  12  16
ENDBRANCH   1   9
BRANCH   1  21
ATOM     21  C   UNL     1       2.005   0.621  -0.011  0.00  0.00    +0.175 A 
ATOM     22  N   UNL     1       1.234  -0.439  -0.027  0.00  0.00    -0.111 NA
ATOM     23  N   UNL     1       0.009  -0.041  -0.004  0.00  0.00    -0.023 NA
ATOM     24  N   UNL     1      -0.022   1.246   0.026  0.00  0.00    -0.042 NA
ATOM     25  N   UNL     1       1.189   1.691   0.022  0.00  0.00    -0.206 N 
BRANCH  25  26
ATOM     26  C   UNL     1       1.599   3.097   0.049  0.00  0.00    +0.318 C 
BRANCH  26  27
ATOM     27  S   UNL     1       1.788   3.639   1.770  0.00  0.00    +0.017 S 
ATOM     28  O   UNL     1       0.523   3.669   2.416  0.00  0.00    -0.168 OA
ATOM     29  O   UNL     1       2.893   2.979   2.373  0.00  0.00    -0.168 OA
BRANCH  27  30
ATOM     30  C   UNL     1       2.278   5.328   1.662  0.00  0.00    +0.090 A 
ATOM     31  C   UNL     1       3.620   5.656   1.604  0.00  0.00    +0.027 A 
ATOM     32  C   UNL     1       4.004   6.981   1.515  0.00  0.00    +0.005 A 
ATOM     33  C   UNL     1       3.047   7.978   1.493  0.00  0.00    -0.050 A 
ATOM     34  C   UNL     1       1.706   7.650   1.555  0.00  0.00    +0.005 A 
ATOM     35  C   UNL     1       1.321   6.325   1.640  0.00  0.00    +0.027 A 
ATOM     36  C   UNL     1       3.466   9.423   1.400  0.00  0.00    +0.044 C 
ENDBRANCH  27  30
ENDBRANCH  26  27
ENDBRANCH  25  26
ENDBRANCH   1  21
TORSDOF 7
