REMARK  Name = ZINC22612272
REMARK  8 active torsions:
REMARK  status: ('A' for Active; 'I' for Inactive)
REMARK    1  A    between atoms: C_1  and  C_2
REMARK    2  A    between atoms: C_2  and  C_3
REMARK    3  A    between atoms: C_2  and  C_4
REMARK    4  A    between atoms: C_4  and  C_6
REMARK    5  A    between atoms: C_4  and  S_12
REMARK    6  A    between atoms: S_12  and  C_13
REMARK    7  A    between atoms: C_16  and  C_19
REMARK    8  A    between atoms: N_17  and  N_18
REMARK                            x       y       z     vdW  Elec       q    Type
REMARK                         _______ _______ _______ _____ _____    ______ ____
ROOT
ATOM      1  C   UNL     1       3.212  -5.659   1.750  0.00  0.00    +0.209 A 
ATOM      2  N   UNL     1       2.818  -6.562   2.620  0.00  0.00    -0.121 NA
ATOM      3  N   UNL     1       3.391  -6.362   3.753  0.00  0.00    -0.127 NA
ATOM      4  C   UNL     1       4.185  -5.320   3.676  0.00  0.00    +0.183 A 
ATOM      5  N   UNL     1       4.090  -4.834   2.393  0.00  0.00    -0.224 N 
ENDROOT
BRANCH   4   6
ATOM      6  C   UNL     1       5.019  -4.769   4.765  0.00  0.00    +0.035 A 
ATOM      7  C   UNL     1       5.017  -3.398   5.025  0.00  0.00    +0.013 A 
ATOM      8  C   UNL     1       5.798  -2.890   6.042  0.00  0.00    +0.001 A 
ATOM      9  C   UNL     1       6.583  -3.736   6.805  0.00  0.00    +0.001 A 
ATOM     10  C   UNL     1       6.591  -5.097   6.553  0.00  0.00    +0.016 A 
ATOM     11  C   UNL     1       5.814  -5.618   5.538  0.00  0.00    +0.029 A 
ATOM     12 BR   UNL     1       5.825  -7.478   5.196  0.00  0.00    -0.050 Br
ENDBRANCH   4   6
BRANCH   5  13
ATOM     13  N   UNL     1       4.741  -3.753   1.869  0.00  0.00    -0.295 N 
ATOM     14  H   UNL     1       5.428  -3.167   2.498  0.00  0.00    +0.163 HD
ATOM     15  H   UNL     1       4.579  -3.468   0.819  0.00  0.00    +0.163 HD
ENDBRANCH   5  13
BRANCH   1  16
ATOM     16  S   UNL     1       2.696  -5.531   0.070  0.00  0.00    -0.071 S 
BRANCH  16  17
ATOM     17  C   UNL     1       1.468  -6.859   0.017  0.00  0.00    +0.143 C 
BRANCH  17  18
ATOM     18  C   UNL     1       2.162  -8.191   0.139  0.00  0.00    +0.234 C 
ATOM     19  O   UNL     1       3.345  -8.283  -0.110  0.00  0.00    -0.274 OA
ATOM     20  N   UNL     1       1.468  -9.280   0.525  0.00  0.00    -0.239 N 
ATOM     21  C   UNL     1       2.090 -10.471   0.634  0.00  0.00    +0.303 C 
ATOM     22  O   UNL     1       3.276 -10.563   0.385  0.00  0.00    -0.253 OA
ATOM     23  N   UNL     1       1.396 -11.560   1.020  0.00  0.00    -0.313 N 
ATOM     24  H   UNL     1       0.395  -9.197   0.751  0.00  0.00    +0.159 HD
ATOM     25  H   UNL     1       1.903 -12.532   1.110  0.00  0.00    +0.146 HD
ATOM     26  H   UNL     1       0.322 -11.477   1.246  0.00  0.00    +0.146 HD
ENDBRANCH  17  18
BRANCH  17  28
ATOM     27  C   UNL     1      -0.330  -7.922  -1.356  0.00  0.00    +0.009 C 
ATOM     28  C   UNL     1       0.709  -6.800  -1.311  0.00  0.00    +0.005 C 
ATOM     29  C   UNL     1       0.005  -5.447  -1.436  0.00  0.00    +0.009 C 
ENDBRANCH  17  28
ENDBRANCH  16  17
ENDBRANCH   1  16
TORSDOF 6
