REMARK  Name = ZINC63900052
REMARK  10 active torsions:
REMARK  status: ('A' for Active; 'I' for Inactive)
REMARK    1  A    between atoms: C_1  and  C_2
REMARK    2  A    between atoms: N_8  and  C_11
REMARK    3  A    between atoms: C_14  and  S_17
REMARK    4  A    between atoms: S_17  and  N_20
REMARK    5  A    between atoms: N_20  and  C_21
REMARK    6  A    between atoms: C_21  and  C_22
REMARK    7  A    between atoms: C_22  and  C_23
REMARK    8  A    between atoms: C_26  and  O_34
REMARK    9  A    between atoms: C_31  and  C_33
REMARK   10  A    between atoms: O_34  and  C_35
REMARK                            x       y       z     vdW  Elec       q    Type
REMARK                         _______ _______ _______ _____ _____    ______ ____
ROOT
ATOM      1  S   UNL     1       2.024  -2.922   7.450  0.00  0.00    +0.058 S 
ATOM      2  O   UNL     1       3.441  -2.857   7.376  0.00  0.00    -0.153 OA
ATOM      3  O   UNL     1       1.283  -2.253   8.462  0.00  0.00    -0.153 OA
ENDROOT
BRANCH   1   7
ATOM      4  C   UNL     1       0.449  -1.411   3.482  0.00  0.00    +0.059 A 
ATOM      5  C   UNL     1      -0.351  -1.351   4.616  0.00  0.00    +0.027 A 
ATOM      6  C   UNL     1       0.133  -1.813   5.825  0.00  0.00    +0.030 A 
ATOM      7  C   UNL     1       1.411  -2.334   5.906  0.00  0.00    +0.105 A 
ATOM      8  C   UNL     1       2.210  -2.394   4.779  0.00  0.00    +0.030 A 
ATOM      9  C   UNL     1       1.730  -1.940   3.566  0.00  0.00    +0.027 A 
BRANCH   4  16
ATOM     10  C   UNL     1      -0.019   1.526   0.010  0.00  0.00    +0.019 C 
ATOM     11  C   UNL     1       0.002  -0.004   0.002  0.00  0.00    +0.097 C 
ATOM     12  C   UNL     1      -1.452  -0.546   0.007  0.00  0.00    +0.201 C 
ATOM     13  S   UNL     1      -1.649  -0.832   1.813  0.00  0.00    +0.053 S 
ATOM     14  O   UNL     1      -2.206  -2.114   2.066  0.00  0.00    -0.155 OA
ATOM     15  O   UNL     1      -2.146   0.332   2.460  0.00  0.00    -0.155 OA
ATOM     16  N   UNL     1      -0.038  -0.943   2.256  0.00  0.00    -0.144 N 
ATOM     17  C   UNL     1       0.702  -0.506   1.229  0.00  0.00    +0.243 C 
ATOM     18  O   UNL     1       1.913  -0.515   1.292  0.00  0.00    -0.273 OA
ENDBRANCH   4  16
ENDBRANCH   1   7
BRANCH   1  19
ATOM     19  N   UNL     1       1.627  -4.526   7.556  0.00  0.00    -0.190 NA
ATOM     20  H   UNL     1       1.007  -4.829   8.237  0.00  0.00    +0.148 HD
BRANCH  19  21
ATOM     21  C   UNL     1       2.214  -5.488   6.619  0.00  0.00    +0.110 C 
BRANCH  21  22
ATOM     22  C   UNL     1       1.996  -6.909   7.144  0.00  0.00    +0.050 C 
BRANCH  22  23
ATOM     23  C   UNL     1       2.599  -7.899   6.181  0.00  0.00    -0.037 C 
ATOM     24  C   UNL     1       3.246  -7.619   5.027  0.00  0.00    +0.003 A 
ATOM     25  C   UNL     1       3.569  -6.360   4.347  0.00  0.00    +0.055 A 
ATOM     26  C   UNL     1       4.242  -6.390   3.172  0.00  0.00    +0.121 A 
ATOM     27  C   UNL     1       4.649  -7.594   2.571  0.00  0.00    +0.047 A 
ATOM     28  C   UNL     1       4.398  -8.802   3.120  0.00  0.00    +0.029 A 
ATOM     29  C   UNL     1       3.675  -8.887   4.393  0.00  0.00    +0.043 A 
ATOM     30  N   UNL     1       3.308  -9.909   5.125  0.00  0.00    -0.378 N 
ATOM     31  C   UNL     1       2.610  -9.405   6.314  0.00  0.00    +0.103 C 
ATOM     32  C   UNL     1       3.357  -9.818   7.583  0.00  0.00    +0.035 C 
ATOM     33  H   UNL     1       3.475 -10.842   4.920  0.00  0.00    +0.160 HD
BRANCH  26  34
ATOM     34  O   UNL     1       4.535  -5.216   2.553  0.00  0.00    -0.495 OA
ATOM     35  C   UNL     1       5.246  -5.295   1.316  0.00  0.00    +0.277 C 
ENDBRANCH  26  34
ENDBRANCH  22  23
ENDBRANCH  21  22
ENDBRANCH  19  21
ENDBRANCH   1  19
TORSDOF 7
