REMARK  Name = ZINC63778005
REMARK  8 active torsions:
REMARK  status: ('A' for Active; 'I' for Inactive)
REMARK    1  A    between atoms: C_1  and  C_2
REMARK    2  A    between atoms: C_5  and  N_8
REMARK    3  A    between atoms: C_9  and  S_19
REMARK    4  A    between atoms: S_19  and  C_20
REMARK    5  A    between atoms: C_20  and  C_21
REMARK    6  A    between atoms: N_23  and  C_24
REMARK    7  A    between atoms: C_29  and  O_30
REMARK    8  A    between atoms: O_30  and  C_31
REMARK                            x       y       z     vdW  Elec       q    Type
REMARK                         _______ _______ _______ _____ _____    ______ ____
ROOT
ATOM      1  N   UNL     1       0.048  -4.209  -0.009  0.00  0.00    -0.252 N 
ATOM      2  C   UNL     1       0.070  -5.093   1.166  0.00  0.00    +0.258 C 
ATOM      3  N   UNL     1       0.096  -6.468   0.655  0.00  0.00    -0.242 NA
ATOM      4  C   UNL     1       0.092  -6.431  -0.634  0.00  0.00    +0.165 C 
ATOM      5  C   UNL     1       0.056  -5.022  -1.101  0.00  0.00    +0.160 C 
ATOM      6  N   UNL     1       0.042  -4.801  -2.404  0.00  0.00    -0.221 NA
ATOM      7  C   UNL     1       0.055  -5.793  -3.279  0.00  0.00    +0.213 C 
ATOM      8  N   UNL     1       0.084  -7.066  -2.969  0.00  0.00    -0.163 NA
ATOM      9  C   UNL     1       0.111  -7.483  -1.692  0.00  0.00    +0.290 C 
ATOM     10  O   UNL     1       0.136  -8.667  -1.410  0.00  0.00    -0.266 OA
ENDROOT
BRANCH   1  15
ATOM     11  C   UNL     1      -0.070   1.460   0.007  0.00  0.00    +0.044 C 
ATOM     12  C   UNL     1      -0.038  -0.047   0.003  0.00  0.00    -0.050 A 
ATOM     13  C   UNL     1      -0.033  -0.734  -1.198  0.00  0.00    +0.005 A 
ATOM     14  C   UNL     1      -0.004  -2.114  -1.205  0.00  0.00    +0.024 A 
ATOM     15  C   UNL     1       0.020  -2.814  -0.005  0.00  0.00    +0.038 A 
ATOM     16  C   UNL     1       0.014  -2.120   1.200  0.00  0.00    +0.024 A 
ATOM     17  C   UNL     1      -0.009  -0.740   1.200  0.00  0.00    +0.005 A 
ENDBRANCH   1  15
BRANCH   2  18
ATOM     18  S   UNL     1       1.552  -4.769   2.160  0.00  0.00    -0.106 S 
BRANCH  18  19
ATOM     19  C   UNL     1       2.925  -5.117   1.027  0.00  0.00    +0.168 C 
BRANCH  19  20
ATOM     20  C   UNL     1       4.234  -4.884   1.737  0.00  0.00    +0.227 C 
ATOM     21  O   UNL     1       4.240  -4.519   2.894  0.00  0.00    -0.275 OA
ATOM     22  N   UNL     1       5.398  -5.081   1.087  0.00  0.00    -0.282 N 
ATOM     23  H   UNL     1       5.395  -5.435   0.183  0.00  0.00    +0.155 HD
BRANCH  22  24
ATOM     24  C   UNL     1       6.612  -4.776   1.716  0.00  0.00    +0.077 A 
ATOM     25  C   UNL     1       6.755  -4.968   3.082  0.00  0.00    +0.047 A 
ATOM     26  C   UNL     1       7.955  -4.667   3.700  0.00  0.00    +0.043 A 
ATOM     27  C   UNL     1       9.014  -4.172   2.958  0.00  0.00    +0.024 A 
ATOM     28  C   UNL     1       8.877  -3.978   1.597  0.00  0.00    +0.049 A 
ATOM     29  C   UNL     1       7.681  -4.284   0.969  0.00  0.00    +0.141 A 
ATOM     30 CL   UNL     1       8.133  -4.907   5.410  0.00  0.00    -0.083 Cl
BRANCH  29  31
ATOM     31  O   UNL     1       7.547  -4.099  -0.371  0.00  0.00    -0.493 OA
ATOM     32  C   UNL     1       8.684  -3.592  -1.073  0.00  0.00    +0.277 C 
ENDBRANCH  29  31
ENDBRANCH  22  24
ENDBRANCH  19  20
ENDBRANCH  18  19
ENDBRANCH   2  18
TORSDOF 6
