REMARK  Name = ZINC40322657
REMARK  8 active torsions:
REMARK  status: ('A' for Active; 'I' for Inactive)
REMARK    1  A    between atoms: C_1  and  C_2
REMARK    2  A    between atoms: C_5  and  S_8
REMARK    3  A    between atoms: S_8  and  C_11
REMARK    4  A    between atoms: C_14  and  C_16
REMARK    5  A    between atoms: N_18  and  C_19
REMARK    6  A    between atoms: C_19  and  C_20
REMARK    7  A    between atoms: C_20  and  C_22
REMARK    8  A    between atoms: C_20  and  N_29
REMARK                            x       y       z     vdW  Elec       q    Type
REMARK                         _______ _______ _______ _____ _____    ______ ____
ROOT
ATOM      1  C   UNL     1       4.759  -6.020  -1.674  0.00  0.00    +0.279 C 
ATOM      2  O   UNL     1       5.779  -6.491  -1.205  0.00  0.00    -0.267 OA
ATOM      3  N   UNL     1       4.629  -5.889  -3.009  0.00  0.00    -0.310 N 
ATOM      4  H   UNL     1       3.816  -5.513  -3.382  0.00  0.00    +0.149 HD
ENDROOT
BRANCH   1   8
ATOM      5  C   UNL     1       1.751  -4.796  -0.091  0.00  0.00    +0.246 A 
ATOM      6  C   UNL     1       2.442  -5.160   1.012  0.00  0.00    +0.070 A 
ATOM      7  C   UNL     1       3.674  -5.673   0.578  0.00  0.00    +0.056 A 
ATOM      8  C   UNL     1       3.672  -5.596  -0.785  0.00  0.00    +0.192 A 
ATOM      9  O   UNL     1       2.494  -5.065  -1.172  0.00  0.00    -0.433 OA
BRANCH   5  10
ATOM     10  S   UNL     1       0.136  -4.091  -0.104  0.00  0.00    +0.058 S 
ATOM     11  O   UNL     1      -0.488  -4.483   1.111  0.00  0.00    -0.161 OA
ATOM     12  O   UNL     1      -0.424  -4.384  -1.377  0.00  0.00    -0.161 OA
BRANCH  10  17
ATOM     13  C   UNL     1       0.799   1.900   0.151  0.00  0.00    +0.044 C 
ATOM     14  C   UNL     1       0.634   0.404   0.087  0.00  0.00    -0.050 A 
ATOM     15  C   UNL     1       0.590  -0.235  -1.138  0.00  0.00    +0.005 A 
ATOM     16  C   UNL     1       0.438  -1.608  -1.196  0.00  0.00    +0.028 A 
ATOM     17  C   UNL     1       0.331  -2.342  -0.030  0.00  0.00    +0.097 A 
ATOM     18  C   UNL     1       0.376  -1.703   1.195  0.00  0.00    +0.028 A 
ATOM     19  C   UNL     1       0.532  -0.331   1.254  0.00  0.00    +0.005 A 
ENDBRANCH  10  17
ENDBRANCH   5  10
ENDBRANCH   1   8
BRANCH   3  20
ATOM     20  C   UNL     1       5.715  -6.312  -3.896  0.00  0.00    +0.094 C 
BRANCH  20  21
ATOM     21  C   UNL     1       5.274  -6.156  -5.353  0.00  0.00    -0.020 C 
BRANCH  21  22
ATOM     22  C   UNL     1       5.070  -4.696  -5.662  0.00  0.00    -0.059 A 
ATOM     23  C   UNL     1       6.158  -3.891  -5.947  0.00  0.00    +0.003 A 
ATOM     24  C   UNL     1       5.971  -2.551  -6.231  0.00  0.00    +0.020 A 
ATOM     25  C   UNL     1       4.696  -2.015  -6.229  0.00  0.00    +0.041 A 
ATOM     26  C   UNL     1       3.608  -2.821  -5.944  0.00  0.00    +0.020 A 
ATOM     27  C   UNL     1       3.795  -4.162  -5.666  0.00  0.00    +0.003 A 
ATOM     28 CL   UNL     1       4.461  -0.332  -6.585  0.00  0.00    -0.084 Cl
ENDBRANCH  21  22
BRANCH  21  29
ATOM     29  N   UNL     1       6.309  -6.705  -6.239  0.00  0.00    +0.385 N 
ATOM     30  C   UNL     1       6.471  -8.161  -5.998  0.00  0.00    -0.078 C 
ATOM     31  C   UNL     1       7.117  -8.669  -7.311  0.00  0.00    -0.020 C 
ATOM     32  C   UNL     1       6.412  -7.819  -8.394  0.00  0.00    -0.020 C 
ATOM     33  C   UNL     1       5.891  -6.574  -7.652  0.00  0.00    -0.078 C 
ATOM     34  H   UNL     1       7.185  -6.227  -6.090  0.00  0.00    -0.081 HD
ENDBRANCH  21  29
ENDBRANCH  20  21
ENDBRANCH   3  20
TORSDOF 7
