REMARK  Name = ZINC15034296
REMARK  4 active torsions:
REMARK  status: ('A' for Active; 'I' for Inactive)
REMARK    1  A    between atoms: C_4  and  C_7
REMARK    2  A    between atoms: C_16  and  C_17
REMARK    3  A    between atoms: C_16  and  N_54
REMARK    4  A    between atoms: N_19  and  C_20
REMARK                            x       y       z     vdW  Elec       q    Type
REMARK                         _______ _______ _______ _____ _____    ______ ____
ROOT
ATOM      1  C   UNL     1       8.203  -2.080  -1.223  0.00  0.00    +0.020 C 
ENDROOT
BRANCH   1  10
ATOM      2  C   UNL     1      10.072  -3.616  -1.326  0.00  0.00    -0.005 C 
ATOM      3  C   UNL     1      10.445  -5.093  -1.230  0.00  0.00    -0.047 A 
ATOM      4  C   UNL     1      11.645  -5.622  -1.697  0.00  0.00    +0.010 A 
ATOM      5  C   UNL     1      11.895  -6.947  -1.572  0.00  0.00    +0.045 A 
ATOM      6  S   UNL     1      10.409  -7.528  -0.766  0.00  0.00    -0.101 S 
ATOM      7  C   UNL     1       9.573  -5.971  -0.658  0.00  0.00    -0.010 A 
ATOM      8  C   UNL     1       8.233  -5.650  -0.083  0.00  0.00    +0.024 C 
ATOM      9  C   UNL     1       8.145  -4.123   0.078  0.00  0.00    -0.072 C 
ATOM     10  N   UNL     1       8.601  -3.501  -1.190  0.00  0.00    +0.393 N 
ATOM     11  H   UNL     1       8.156  -3.990  -1.976  0.00  0.00    -0.080 HD
BRANCH   2  15
ATOM     12  C   UNL     1      11.220  -2.094  -5.148  0.00  0.00    +0.000 A 
ATOM     13  C   UNL     1      12.007  -1.842  -4.039  0.00  0.00    +0.000 A 
ATOM     14  C   UNL     1      11.635  -2.335  -2.802  0.00  0.00    +0.002 A 
ATOM     15  C   UNL     1      10.477  -3.079  -2.674  0.00  0.00    -0.057 A 
ATOM     16  C   UNL     1       9.693  -3.335  -3.784  0.00  0.00    +0.002 A 
ATOM     17  C   UNL     1      10.063  -2.838  -5.020  0.00  0.00    +0.000 A 
ENDBRANCH   2  15
ENDBRANCH   1  10
BRANCH   1  18
ATOM     18  C   UNL     1       6.700  -2.002  -1.297  0.00  0.00    +0.201 C 
ATOM     19  O   UNL     1       6.039  -3.020  -1.298  0.00  0.00    -0.278 OA
ATOM     20  N   UNL     1       6.090  -0.802  -1.363  0.00  0.00    -0.287 N 
ATOM     21  H   UNL     1       6.619   0.008  -1.429  0.00  0.00    +0.155 HD
BRANCH  20  22
ATOM     22  C   UNL     1       4.691  -0.725  -1.334  0.00  0.00    +0.037 A 
ATOM     23  C   UNL     1       4.068   0.340  -0.697  0.00  0.00    +0.027 A 
ATOM     24  C   UNL     1       2.688   0.420  -0.667  0.00  0.00    +0.051 A 
ATOM     25  C   UNL     1       1.928  -0.565  -1.274  0.00  0.00    +0.162 A 
ATOM     26  C   UNL     1       2.548  -1.632  -1.911  0.00  0.00    +0.164 A 
ATOM     27  C   UNL     1       3.929  -1.714  -1.943  0.00  0.00    +0.072 A 
ATOM     28  O   UNL     1       1.788  -2.598  -2.504  0.00  0.00    -0.488 OA
ATOM     29  C   UNL     1       1.059  -2.194  -3.665  0.00  0.00    +0.232 C 
ATOM     30  C   UNL     1      -0.263  -1.550  -3.275  0.00  0.00    +0.082 C 
ATOM     31  C   UNL     1      -0.070  -0.252  -2.507  0.00  0.00    +0.232 C 
ATOM     32  O   UNL     1       0.565  -0.495  -1.251  0.00  0.00    -0.488 OA
ENDBRANCH  20  22
ENDBRANCH   1  18
TORSDOF 4
