REMARK  Name = ZINC23483384
REMARK  14 active torsions:
REMARK  status: ('A' for Active; 'I' for Inactive)
REMARK    1  A    between atoms: C_1  and  C_2
REMARK    2  A    between atoms: C_2  and  C_4
REMARK    3  A    between atoms: C_2  and  N_33
REMARK    4  A    between atoms: C_7  and  S_16
REMARK    5  A    between atoms: N_8  and  C_9
REMARK    6  A    between atoms: S_16  and  C_17
REMARK    7  A    between atoms: C_17  and  C_19
REMARK    8  A    between atoms: C_17  and  C_20
REMARK    9  A    between atoms: C_20  and  C_22
REMARK   10  A    between atoms: C_23  and  N_32
REMARK   11  A    between atoms: N_24  and  C_31
REMARK   12  A    between atoms: N_27  and  C_30
REMARK   13  A    between atoms: N_33  and  C_34
REMARK   14  A    between atoms: N_33  and  C_35
REMARK                            x       y       z     vdW  Elec       q    Type
REMARK                         _______ _______ _______ _____ _____    ______ ____
ROOT
ATOM      1  C   UNL     1      -1.799   3.419   0.142  0.00  0.00    +0.125 A 
ATOM      2  N   UNL     1      -1.774   2.964  -1.079  0.00  0.00    -0.135 NA
ATOM      3  N   UNL     1      -2.675   3.547  -1.786  0.00  0.00    -0.122 NA
ATOM      4  C   UNL     1      -3.331   4.414  -1.050  0.00  0.00    +0.197 A 
ATOM      5  N   UNL     1      -2.796   4.356   0.208  0.00  0.00    -0.275 N 
ENDROOT
BRANCH   5   6
ATOM      6  C   UNL     1      -3.186   5.103   1.329  0.00  0.00    +0.050 A 
ATOM      7  C   UNL     1      -3.740   4.465   2.431  0.00  0.00    +0.028 A 
ATOM      8  C   UNL     1      -4.119   5.201   3.536  0.00  0.00    +0.022 A 
ATOM      9  C   UNL     1      -3.955   6.576   3.542  0.00  0.00    +0.041 A 
ATOM     10  C   UNL     1      -3.407   7.214   2.443  0.00  0.00    +0.022 A 
ATOM     11  C   UNL     1      -3.023   6.481   1.338  0.00  0.00    +0.028 A 
ATOM     12 CL   UNL     1      -4.439   7.500   4.930  0.00  0.00    -0.084 Cl
ENDBRANCH   5   6
BRANCH   1  14
ATOM     13  C   UNL     1       0.490   3.594   1.080  0.00  0.00    -0.005 C 
ATOM     14  C   UNL     1      -0.902   2.989   1.274  0.00  0.00    -0.003 C 
BRANCH  14  15
ATOM     15  N   UNL     1      -0.801   1.523   1.290  0.00  0.00    +0.382 N 
ATOM     16  C   UNL     1      -0.111   1.030   0.090  0.00  0.00    -0.096 C 
ATOM     17  C   UNL     1      -0.134   1.054   2.511  0.00  0.00    -0.096 C 
ATOM     18  H   UNL     1      -1.823   1.114   1.284  0.00  0.00    -0.082 HD
ENDBRANCH  14  15
ENDBRANCH   1  14
BRANCH   4  19
ATOM     19  S   UNL     1      -4.653   5.451  -1.580  0.00  0.00    -0.075 S 
BRANCH  19  20
ATOM     20  C   UNL     1      -4.772   4.947  -3.315  0.00  0.00    +0.122 C 
ATOM     21  C   UNL     1      -3.488   5.339  -4.049  0.00  0.00    +0.028 C 
BRANCH  20  22
ATOM     22  C   UNL     1      -5.948   5.634  -3.958  0.00  0.00    +0.185 C 
ATOM     23  O   UNL     1      -6.357   6.686  -3.509  0.00  0.00    -0.291 OA
BRANCH  22  24
ATOM     24  C   UNL     1      -6.575   5.056  -5.083  0.00  0.00    +0.121 A 
ATOM     25  C   UNL     1      -7.748   5.609  -5.624  0.00  0.00    +0.116 A 
ATOM     26  N   UNL     1      -8.318   5.014  -6.713  0.00  0.00    -0.284 N 
ATOM     27  C   UNL     1      -7.780   3.918  -7.270  0.00  0.00    +0.333 A 
ATOM     28  O   UNL     1      -8.326   3.425  -8.238  0.00  0.00    -0.246 OA
ATOM     29  N   UNL     1      -6.662   3.344  -6.796  0.00  0.00    -0.263 N 
ATOM     30  C   UNL     1      -6.019   3.860  -5.729  0.00  0.00    +0.269 A 
ATOM     31  O   UNL     1      -5.002   3.341  -5.306  0.00  0.00    -0.267 OA
ATOM     32  C   UNL     1      -6.129   2.148  -7.453  0.00  0.00    +0.157 C 
ATOM     33  C   UNL     1      -9.541   5.583  -7.285  0.00  0.00    +0.155 C 
BRANCH  25  34
ATOM     34  N   UNL     1      -8.307   6.720  -5.072  0.00  0.00    -0.344 N 
ATOM     35  H   UNL     1      -9.226   7.146  -5.502  0.00  0.00    +0.144 HD
ATOM     36  H   UNL     1      -7.841   7.192  -4.194  0.00  0.00    +0.144 HD
ENDBRANCH  25  34
ENDBRANCH  22  24
ENDBRANCH  20  22
ENDBRANCH  19  20
ENDBRANCH   4  19
TORSDOF 8
