REMARK  Name = ZINC35263204
REMARK  9 active torsions:
REMARK  status: ('A' for Active; 'I' for Inactive)
REMARK    1  A    between atoms: C_6  and  C_7
REMARK    2  A    between atoms: C_9  and  C_10
REMARK    3  A    between atoms: C_10  and  C_11
REMARK    4  A    between atoms: N_23  and  C_24
REMARK    5  A    between atoms: C_24  and  C_25
REMARK    6  A    between atoms: C_25  and  O_26
REMARK    7  A    between atoms: O_26  and  C_27
REMARK    8  A    between atoms: C_27  and  C_28
REMARK    9  A    between atoms: C_28  and  O_29
REMARK                            x       y       z     vdW  Elec       q    Type
REMARK                         _______ _______ _______ _____ _____    ______ ____
ROOT
ATOM      1  C   UNL     1      -1.256  -0.755   0.015  0.00  0.00    +0.145 C 
ATOM      2  C   UNL     1      -1.513  -1.383   1.365  0.00  0.00    +0.076 C 
ATOM      3  C   UNL     1      -1.582  -2.720   1.167  0.00  0.00    +0.249 C 
ATOM      4  O   UNL     1      -1.800  -3.645   2.130  0.00  0.00    -0.282 OA
ATOM      5  C   UNL     1      -1.380  -3.009  -0.268  0.00  0.00    +0.288 C 
ATOM      6  O   UNL     1      -1.385  -4.119  -0.763  0.00  0.00    -0.266 OA
ATOM      7  N   UNL     1      -1.189  -1.863  -0.945  0.00  0.00    -0.281 N 
ENDROOT
BRANCH   1  13
ATOM      8  C   UNL     1       0.055   1.377  -0.022  0.00  0.00    +0.007 A 
ATOM      9  C   UNL     1       1.253   2.066  -0.005  0.00  0.00    +0.020 A 
ATOM     10  C   UNL     1       2.448   1.372   0.066  0.00  0.00    +0.041 A 
ATOM     11  C   UNL     1       2.443  -0.010   0.121  0.00  0.00    +0.020 A 
ATOM     12  C   UNL     1       1.244  -0.698   0.104  0.00  0.00    +0.007 A 
ATOM     13  C   UNL     1       0.050  -0.004   0.033  0.00  0.00    -0.022 A 
ATOM     14 CL   UNL     1       3.954   2.237   0.086  0.00  0.00    -0.084 Cl
ENDBRANCH   1  13
BRANCH   2  15
ATOM     15  C   UNL     1      -1.659  -0.679   2.643  0.00  0.00    +0.195 C 
ATOM     16  O   UNL     1      -0.831  -0.834   3.521  0.00  0.00    -0.287 OA
BRANCH  15  17
ATOM     17  C   UNL     1      -2.813   0.217   2.865  0.00  0.00    +0.022 A 
ATOM     18  C   UNL     1      -3.829   0.303   1.910  0.00  0.00    +0.013 A 
ATOM     19  C   UNL     1      -4.903   1.141   2.123  0.00  0.00    +0.016 A 
ATOM     20  C   UNL     1      -4.975   1.897   3.281  0.00  0.00    +0.018 A 
ATOM     21  C   UNL     1      -3.971   1.817   4.232  0.00  0.00    +0.016 A 
ATOM     22  C   UNL     1      -2.895   0.979   4.034  0.00  0.00    +0.013 A 
ATOM     23 BR   UNL     1      -6.451   3.045   3.565  0.00  0.00    -0.050 Br
ENDBRANCH  15  17
ENDBRANCH   2  15
BRANCH   7  24
ATOM     24  C   UNL     1      -0.957  -1.741  -2.386  0.00  0.00    +0.137 C 
BRANCH  24  25
ATOM     25  C   UNL     1       0.546  -1.804  -2.668  0.00  0.00    +0.179 C 
BRANCH  25  26
ATOM     26  O   UNL     1       1.043  -3.095  -2.312  0.00  0.00    -0.376 OA
BRANCH  26  27
ATOM     27  C   UNL     1       2.445  -3.260  -2.537  0.00  0.00    +0.187 C 
BRANCH  27  28
ATOM     28  C   UNL     1       2.865  -4.672  -2.123  0.00  0.00    +0.184 C 
BRANCH  28  29
ATOM     29  O   UNL     1       2.230  -5.627  -2.976  0.00  0.00    -0.393 OA
ATOM     30  H   UNL     1       2.451  -6.546  -2.771  0.00  0.00    +0.209 HD
ENDBRANCH  28  29
ENDBRANCH  27  28
ENDBRANCH  26  27
ENDBRANCH  25  26
ENDBRANCH  24  25
ENDBRANCH   7  24
TORSDOF 9
