REMARK  Name = ZINC16266026
REMARK  7 active torsions:
REMARK  status: ('A' for Active; 'I' for Inactive)
REMARK    1  A    between atoms: C_1  and  C_2
REMARK    2  A    between atoms: C_5  and  C_10
REMARK    3  A    between atoms: C_6  and  S_8
REMARK    4  A    between atoms: S_8  and  C_9
REMARK    5  A    between atoms: C_15  and  C_33
REMARK    6  A    between atoms: C_25  and  C_32
REMARK    7  A    between atoms: C_28  and  O_31
REMARK                            x       y       z     vdW  Elec       q    Type
REMARK                         _______ _______ _______ _____ _____    ______ ____
ROOT
ATOM      1  C   UNL     1       5.305   6.166  -3.730  0.00  0.00    +0.066 C 
ATOM      2  C   UNL     1       5.601   4.928  -4.537  0.00  0.00    +0.044 A 
ATOM      3  C   UNL     1       5.639   3.678  -3.939  0.00  0.00    -0.016 A 
ATOM      4  C   UNL     1       5.910   2.535  -4.691  0.00  0.00    -0.022 A 
ATOM      5  C   UNL     1       6.152   2.643  -6.065  0.00  0.00    +0.087 A 
ATOM      6  C   UNL     1       6.097   3.951  -6.598  0.00  0.00    +0.115 A 
ATOM      7  N   UNL     1       5.833   5.002  -5.841  0.00  0.00    -0.244 NA
ATOM      8  C   UNL     1       5.886   1.323  -3.807  0.00  0.00    +0.041 C 
ATOM      9  C   UNL     1       5.138   1.787  -2.525  0.00  0.00    +0.007 C 
ATOM     10  C   UNL     1       5.426   3.283  -2.511  0.00  0.00    -0.002 C 
ATOM     11  C   UNL     1       4.409   4.140  -1.806  0.00  0.00    +0.012 C 
ATOM     12  C   UNL     1       2.981   3.761  -2.180  0.00  0.00    +0.005 C 
ATOM     13  C   UNL     1       2.755   2.286  -1.829  0.00  0.00    +0.003 C 
ATOM     14  C   UNL     1       3.672   1.435  -2.693  0.00  0.00    +0.001 C 
ATOM     15  C   UNL     1       3.480  -0.039  -2.314  0.00  0.00    +0.031 C 
ATOM     16  C   UNL     1       2.023  -0.404  -2.397  0.00  0.00    -0.027 C 
ATOM     17  C   UNL     1       1.067   0.470  -2.293  0.00  0.00    -0.065 C 
ATOM     18  C   UNL     1       1.295   1.935  -2.066  0.00  0.00    -0.008 C 
ATOM     19  C   UNL     1       0.443   2.405  -0.883  0.00  0.00    +0.014 C 
ATOM     20  C   UNL     1      -1.019   2.030  -1.130  0.00  0.00    +0.032 C 
ATOM     21  C   UNL     1      -1.156   0.508  -1.209  0.00  0.00    +0.119 C 
ATOM     22  C   UNL     1      -0.369  -0.013  -2.414  0.00  0.00    +0.062 C 
ATOM     23  C   UNL     1       0.832   2.690  -3.314  0.00  0.00    +0.016 C 
ATOM     24  C   UNL     1       6.764   3.480  -1.797  0.00  0.00    +0.016 C 
ENDROOT
BRANCH   6  25
ATOM     25  S   UNL     1       6.388   4.188  -8.320  0.00  0.00    -0.108 S 
ATOM     26  C   UNL     1       6.196   5.985  -8.427  0.00  0.00    +0.091 C 
ENDBRANCH   6  25
BRANCH   5  27
ATOM     27  C   UNL     1       6.438   1.501  -6.880  0.00  0.00    +0.102 C 
ATOM     28  N   UNL     1       6.664   0.594  -7.526  0.00  0.00    -0.191 NA
ENDBRANCH   5  27
BRANCH  21  29
ATOM     29  O   UNL     1      -0.641  -0.079  -0.012  0.00  0.00    -0.391 OA
ATOM     30  H   UNL     1      -0.695  -1.044   0.007  0.00  0.00    +0.210 HD
ENDBRANCH  21  29
TORSDOF 3
