REMARK  Name = ZINC06409004
REMARK  10 active torsions:
REMARK  status: ('A' for Active; 'I' for Inactive)
REMARK    1  A    between atoms: C_1  and  C_2
REMARK    2  A    between atoms: C_9  and  C_14
REMARK    3  A    between atoms: C_14  and  C_16
REMARK    4  A    between atoms: C_14  and  N_70
REMARK    5  A    between atoms: N_20  and  C_21
REMARK    6  A    between atoms: C_26  and  C_27
REMARK    7  A    between atoms: C_26  and  N_70
REMARK    8  A    between atoms: C_27  and  C_28
REMARK    9  A    between atoms: C_34  and  C_35
REMARK   10  A    between atoms: C_34  and  N_70
REMARK                            x       y       z     vdW  Elec       q    Type
REMARK                         _______ _______ _______ _____ _____    ______ ____
ROOT
ATOM      1  C   UNL     1       3.056  -0.239  -0.336  0.00  0.00    +0.039 C 
ENDROOT
BRANCH   1  10
ATOM      2  C   UNL     1       1.848   0.677   6.966  0.00  0.00    +0.044 C 
ATOM      3  C   UNL     1       2.737   0.257   5.823  0.00  0.00    -0.050 A 
ATOM      4  C   UNL     1       4.010  -0.230   6.085  0.00  0.00    +0.005 A 
ATOM      5  C   UNL     1       4.840  -0.618   5.055  0.00  0.00    +0.026 A 
ATOM      6  C   UNL     1       4.399  -0.523   3.740  0.00  0.00    +0.049 A 
ATOM      7  C   UNL     1       3.107  -0.029   3.478  0.00  0.00    -0.001 A 
ATOM      8  C   UNL     1       2.282   0.360   4.539  0.00  0.00    +0.013 A 
ATOM      9  C   UNL     1       2.651   0.067   2.090  0.00  0.00    +0.017 A 
ATOM     10  C   UNL     1       3.494  -0.325   1.103  0.00  0.00    +0.011 A 
ATOM     11  C   UNL     1       4.778  -0.819   1.419  0.00  0.00    +0.251 A 
ATOM     12  O   UNL     1       5.518  -1.171   0.517  0.00  0.00    -0.268 OA
ATOM     13  N   UNL     1       5.207  -0.906   2.691  0.00  0.00    -0.322 N 
ATOM     14  H   UNL     1       6.097  -1.247   2.872  0.00  0.00    +0.169 HD
ENDBRANCH   1  10
BRANCH   1  15
ATOM     15  C   UNL     1       1.603   0.153  -0.397  0.00  0.00    +0.143 A 
ATOM     16  N   UNL     1       0.618  -0.383   0.283  0.00  0.00    -0.115 NA
ATOM     17  N   UNL     1      -0.470   0.222  -0.048  0.00  0.00    -0.023 NA
ATOM     18  N   UNL     1      -0.205   1.133  -0.918  0.00  0.00    -0.044 NA
ATOM     19  N   UNL     1       1.063   1.124  -1.157  0.00  0.00    -0.227 N 
BRANCH  19  20
ATOM     20  C   UNL     1       1.780   2.002  -2.085  0.00  0.00    +0.111 C 
ATOM     21  C   UNL     1       1.552   3.478  -1.699  0.00  0.00    +0.027 C 
ATOM     22  C   UNL     1       1.454   4.215  -3.059  0.00  0.00    +0.002 C 
ATOM     23  C   UNL     1       0.678   3.205  -3.940  0.00  0.00    +0.002 C 
ATOM     24  C   UNL     1       1.225   1.829  -3.510  0.00  0.00    +0.027 C 
ENDBRANCH  19  20
ENDBRANCH   1  15
BRANCH   1  25
ATOM     25  N   UNL     1       3.264  -1.555  -0.976  0.00  0.00    +0.392 N 
ATOM     26  H   UNL     1       4.208  -1.891  -0.749  0.00  0.00    -0.080 HD
BRANCH  25  27
ATOM     27  C   UNL     1       3.141  -1.428  -2.444  0.00  0.00    -0.072 C 
BRANCH  27  28
ATOM     28  C   UNL     1       3.737  -2.677  -3.096  0.00  0.00    +0.016 C 
BRANCH  28  29
ATOM     29  C   UNL     1       3.762  -2.499  -4.592  0.00  0.00    -0.049 A 
ATOM     30  C   UNL     1       2.683  -2.904  -5.355  0.00  0.00    +0.003 A 
ATOM     31  C   UNL     1       2.704  -2.736  -6.727  0.00  0.00    +0.000 A 
ATOM     32  C   UNL     1       3.809  -2.172  -7.337  0.00  0.00    +0.000 A 
ATOM     33  C   UNL     1       4.890  -1.772  -6.575  0.00  0.00    +0.000 A 
ATOM     34  C   UNL     1       4.867  -1.936  -5.203  0.00  0.00    +0.003 A 
ENDBRANCH  28  29
ENDBRANCH  27  28
ENDBRANCH  25  27
BRANCH  25  35
ATOM     35  C   UNL     1       2.273  -2.526  -0.468  0.00  0.00    -0.034 C 
BRANCH  35  36
ATOM     36  C   UNL     1       2.724  -3.012   0.885  0.00  0.00    -0.027 A 
ATOM     37  C   UNL     1       2.312  -2.618   2.115  0.00  0.00    +0.009 A 
ATOM     38  C   UNL     1       2.871  -3.211   3.232  0.00  0.00    +0.008 A 
ATOM     39  C   UNL     1       3.815  -4.168   3.064  0.00  0.00    +0.045 A 
ATOM     40  S   UNL     1       3.934  -4.262   1.285  0.00  0.00    -0.103 S 
ENDBRANCH  35  36
ENDBRANCH  25  35
ENDBRANCH   1  25
TORSDOF 9
