REMARK  Name = ZINC66859884
REMARK  6 active torsions:
REMARK  status: ('A' for Active; 'I' for Inactive)
REMARK    1  A    between atoms: C_10  and  C_11
REMARK    2  A    between atoms: C_10  and  O_24
REMARK    3  A    between atoms: C_11  and  N_12
REMARK    4  A    between atoms: N_12  and  C_13
REMARK    5  A    between atoms: C_16  and  N_21
REMARK    6  A    between atoms: C_18  and  C_19
REMARK                            x       y       z     vdW  Elec       q    Type
REMARK                         _______ _______ _______ _____ _____    ______ ____
ROOT
ATOM      1  C   UNL     1       4.671   0.060  -0.987  0.00  0.00    +0.141 C 
ENDROOT
BRANCH   1  11
ATOM      2  C   UNL     1      -0.061   1.291  -0.098  0.00  0.00    +0.000 A 
ATOM      3  C   UNL     1       1.116   2.017  -0.085  0.00  0.00    +0.000 A 
ATOM      4  C   UNL     1       2.327   1.357  -0.067  0.00  0.00    +0.007 A 
ATOM      5  C   UNL     1       2.375  -0.032  -0.065  0.00  0.00    -0.011 A 
ATOM      6  C   UNL     1       1.203  -0.754  -0.083  0.00  0.00    -0.041 A 
ATOM      7  C   UNL     1      -0.016  -0.087  -0.096  0.00  0.00    +0.004 A 
ATOM      8  C   UNL     1       1.179  -2.260  -0.099  0.00  0.00    +0.035 C 
ATOM      9  C   UNL     1       2.527  -2.823   0.347  0.00  0.00    +0.008 C 
ATOM     10  C   UNL     1       3.630  -2.147  -0.476  0.00  0.00    +0.041 C 
ATOM     11  C   UNL     1       3.731  -0.687  -0.039  0.00  0.00    +0.106 C 
BRANCH  11  12
ATOM     12  O   UNL     1       4.257  -0.628   1.288  0.00  0.00    -0.382 OA
ATOM     13  H   UNL     1       4.366   0.271   1.629  0.00  0.00    +0.211 HD
ENDBRANCH  11  12
ENDBRANCH   1  11
BRANCH   1  14
ATOM     14  N   UNL     1       5.979  -0.599  -0.997  0.00  0.00    -0.340 N 
ATOM     15  H   UNL     1       6.112  -1.420  -0.498  0.00  0.00    +0.146 HD
BRANCH  14  16
ATOM     16  C   UNL     1       7.030  -0.048  -1.722  0.00  0.00    +0.045 A 
ATOM     17  C   UNL     1       6.844   1.130  -2.433  0.00  0.00    +0.026 A 
ATOM     18  C   UNL     1       7.888   1.676  -3.152  0.00  0.00    +0.034 A 
ATOM     19  C   UNL     1       9.127   1.055  -3.171  0.00  0.00    +0.128 A 
ATOM     20  C   UNL     1       9.330  -0.114  -2.471  0.00  0.00    +0.053 A 
ATOM     21  C   UNL     1       8.285  -0.676  -1.734  0.00  0.00    +0.075 A 
BRANCH  19  22
ATOM     22  N   UNL     1      10.238   1.651  -3.947  0.00  0.00    +0.056 N 
ATOM     23  O   UNL     1      10.063   2.677  -4.562  0.00  0.00    -0.126 OA
ATOM     24  O   UNL     1      11.320   1.113  -3.965  0.00  0.00    -0.126 OA
ENDBRANCH  19  22
BRANCH  21  25
ATOM     25  C   UNL     1       8.491  -1.888  -0.999  0.00  0.00    +0.101 C 
ATOM     26  N   UNL     1       8.654  -2.849  -0.417  0.00  0.00    -0.191 NA
ENDBRANCH  21  25
ENDBRANCH  14  16
ENDBRANCH   1  14
TORSDOF 6
