REMARK  Name = ZINC08782116
REMARK  5 active torsions:
REMARK  status: ('A' for Active; 'I' for Inactive)
REMARK    1  A    between atoms: C_7  and  C_11
REMARK    2  A    between atoms: C_11  and  C_12
REMARK    3  A    between atoms: C_12  and  C_14
REMARK    4  A    between atoms: C_12  and  N_51
REMARK    5  A    between atoms: N_16  and  C_17
REMARK                            x       y       z     vdW  Elec       q    Type
REMARK                         _______ _______ _______ _____ _____    ______ ____
ROOT
ATOM      1  C   UNL     1       1.350   3.484  -0.245  0.00  0.00    +0.024 C 
ENDROOT
BRANCH   1   9
ATOM      2  C   UNL     1      -0.014   1.495  -0.068  0.00  0.00    -0.055 C 
ATOM      3  C   UNL     1       0.015  -0.016  -0.319  0.00  0.00    +0.147 C 
ATOM      4  S   UNL     1       0.924  -0.811   1.041  0.00  0.00    -0.034 S 
ATOM      5  O   UNL     1       0.218  -0.583   2.252  0.00  0.00    -0.174 OA
ATOM      6  O   UNL     1       1.234  -2.145   0.659  0.00  0.00    -0.174 OA
ATOM      7  C   UNL     1       2.463   0.159   1.074  0.00  0.00    +0.147 C 
ATOM      8  C   UNL     1       2.099   1.646   1.135  0.00  0.00    -0.055 C 
ATOM      9  N   UNL     1       1.372   2.018  -0.098  0.00  0.00    +0.390 N 
ATOM     10  H   UNL     1       1.860   1.610  -0.904  0.00  0.00    -0.081 HD
ENDBRANCH   1   9
BRANCH   1  11
ATOM     11  C   UNL     1       0.715   3.826  -1.568  0.00  0.00    +0.204 C 
ATOM     12  O   UNL     1       0.635   2.985  -2.438  0.00  0.00    -0.277 OA
ATOM     13  N   UNL     1       0.236   5.067  -1.785  0.00  0.00    -0.287 N 
ATOM     14  H   UNL     1       0.350   5.756  -1.112  0.00  0.00    +0.155 HD
BRANCH  13  15
ATOM     15  C   UNL     1      -0.427   5.362  -2.982  0.00  0.00    +0.034 A 
ATOM     16  C   UNL     1      -0.015   4.771  -4.169  0.00  0.00    +0.023 A 
ATOM     17  C   UNL     1      -0.671   5.063  -5.349  0.00  0.00    +0.003 A 
ATOM     18  C   UNL     1      -1.737   5.944  -5.349  0.00  0.00    +0.015 A 
ATOM     19  C   UNL     1      -2.150   6.535  -4.168  0.00  0.00    +0.020 A 
ATOM     20  C   UNL     1      -1.501   6.242  -2.983  0.00  0.00    +0.038 A 
ATOM     21 BR   UNL     1      -3.609   7.738  -4.173  0.00  0.00    -0.050 Br
ENDBRANCH  13  15
ENDBRANCH   1  11
BRANCH   1  22
ATOM     22  C   UNL     1       2.789   4.003  -0.221  0.00  0.00    +0.031 C 
BRANCH  22  29
ATOM     23  C   UNL     1       2.106   7.550   2.767  0.00  0.00    +0.001 A 
ATOM     24  C   UNL     1       2.198   8.794   2.159  0.00  0.00    +0.002 A 
ATOM     25  C   UNL     1       2.472   8.900   0.813  0.00  0.00    +0.026 A 
ATOM     26  C   UNL     1       2.648   7.750   0.051  0.00  0.00    +0.047 A 
ATOM     27  C   UNL     1       2.551   6.491   0.671  0.00  0.00    +0.003 A 
ATOM     28  C   UNL     1       2.280   6.407   2.039  0.00  0.00    +0.010 A 
ATOM     29  C   UNL     1       2.786   5.501  -0.383  0.00  0.00    -0.023 A 
ATOM     30  C   UNL     1       2.991   6.181  -1.521  0.00  0.00    +0.087 A 
ATOM     31  N   UNL     1       2.913   7.526  -1.282  0.00  0.00    -0.360 N 
ATOM     32  H   UNL     1       3.027   8.219  -1.951  0.00  0.00    +0.165 HD
ENDBRANCH  22  29
ENDBRANCH   1  22
TORSDOF 5
