REMARK  Name = ZINC56946798
REMARK  12 active torsions:
REMARK  status: ('A' for Active; 'I' for Inactive)
REMARK    1  A    between atoms: C_1  and  C_2
REMARK    2  A    between atoms: C_2  and  C_3
REMARK    3  A    between atoms: C_3  and  C_5
REMARK    4  A    between atoms: C_3  and  N_6
REMARK    5  A    between atoms: C_7  and  C_9
REMARK    6  A    between atoms: C_9  and  N_10
REMARK    7  A    between atoms: N_18  and  C_19
REMARK    8  A    between atoms: C_19  and  C_21
REMARK    9  A    between atoms: C_19  and  C_22
REMARK   10  A    between atoms: C_22  and  N_23
REMARK   11  A    between atoms: C_25  and  C_32
REMARK   12  A    between atoms: C_28  and  C_31
REMARK                            x       y       z     vdW  Elec       q    Type
REMARK                         _______ _______ _______ _____ _____    ______ ____
ROOT
ATOM      1  N   UNL     1       5.018   0.105   3.435  0.00  0.00    -0.291 NA
ATOM      2  C   UNL     1       5.074  -1.186   4.132  0.00  0.00    +0.104 C 
ATOM      3  C   UNL     1       5.426  -0.953   5.605  0.00  0.00    +0.124 C 
ATOM      4  N   UNL     1       6.661  -0.156   5.670  0.00  0.00    -0.283 N 
ATOM      5  C   UNL     1       6.730   1.086   4.885  0.00  0.00    +0.124 C 
ATOM      6  C   UNL     1       6.327   0.772   3.440  0.00  0.00    +0.104 C 
ATOM      7  C   UNL     1       7.702  -0.554   6.428  0.00  0.00    +0.302 C 
ATOM      8  O   UNL     1       7.596  -1.533   7.141  0.00  0.00    -0.253 OA
ATOM      9  N   UNL     1       8.860   0.134   6.397  0.00  0.00    -0.298 N 
ATOM     10  H   UNL     1       8.924   0.954   5.882  0.00  0.00    +0.150 HD
ENDROOT
BRANCH   9  11
ATOM     11  C   UNL     1      10.023  -0.355   7.141  0.00  0.00    +0.055 C 
ATOM     12  C   UNL     1      10.815  -1.330   6.267  0.00  0.00    +0.026 C 
BRANCH  11  13
ATOM     13  C   UNL     1      10.917   0.826   7.526  0.00  0.00    -0.057 C 
BRANCH  13  14
ATOM     14  N   UNL     1      10.129   1.812   8.277  0.00  0.00    +0.381 N 
ATOM     15  C   UNL     1      10.944   3.009   8.514  0.00  0.00    -0.076 C 
ATOM     16  C   UNL     1      10.102   4.071   9.225  0.00  0.00    -0.031 C 
ATOM     17  C   UNL     1       9.610   3.513  10.564  0.00  0.00    +0.003 C 
ATOM     18  C   UNL     1       8.824   2.224  10.310  0.00  0.00    -0.031 C 
ATOM     19  C   UNL     1       9.713   1.230   9.559  0.00  0.00    -0.076 C 
ATOM     20  C   UNL     1       8.393   1.616  11.646  0.00  0.00    +0.005 C 
ATOM     21  C   UNL     1      10.955   5.317   9.473  0.00  0.00    +0.005 C 
ATOM     22  H   UNL     1       9.311   2.065   7.742  0.00  0.00    -0.082 HD
ENDBRANCH  13  14
ENDBRANCH  11  13
ENDBRANCH   9  11
BRANCH   1  23
ATOM     23  C   UNL     1       4.516  -0.058   2.064  0.00  0.00    +0.180 C 
BRANCH  23  25
ATOM     24  N   UNL     1       2.409  -0.732   0.957  0.00  0.00    -0.312 N 
ATOM     25  C   UNL     1       3.081  -0.515   2.105  0.00  0.00    +0.227 C 
ATOM     26  O   UNL     1       2.530  -0.688   3.171  0.00  0.00    -0.274 OA
ATOM     27  H   UNL     1       2.850  -0.594   0.103  0.00  0.00    +0.149 HD
BRANCH  24  28
ATOM     28  C   UNL     1       1.014  -1.177   0.997  0.00  0.00    +0.070 C 
ATOM     29  C   UNL     1       0.967  -2.699   1.140  0.00  0.00    +0.028 C 
BRANCH  28  31
ATOM     30  C   UNL     1       0.247   0.762  -0.381  0.00  0.00    +0.005 C 
ATOM     31  C   UNL     1       0.310  -0.764  -0.298  0.00  0.00    +0.018 C 
ENDBRANCH  28  31
ENDBRANCH  24  28
ENDBRANCH  23  25
ENDBRANCH   1  23
TORSDOF 7
