REMARK  Name = ZINC39666507
REMARK  7 active torsions:
REMARK  status: ('A' for Active; 'I' for Inactive)
REMARK    1  A    between atoms: C_1  and  C_2
REMARK    2  A    between atoms: C_2  and  C_4
REMARK    3  A    between atoms: C_2  and  O_29
REMARK    4  A    between atoms: C_4  and  N_5
REMARK    5  A    between atoms: C_6  and  C_8
REMARK    6  A    between atoms: C_19  and  C_21
REMARK    7  A    between atoms: O_29  and  C_30
REMARK                            x       y       z     vdW  Elec       q    Type
REMARK                         _______ _______ _______ _____ _____    ______ ____
ROOT
ATOM      1  C   UNL     1       1.925  -4.424   3.262  0.00  0.00    +0.100 C 
ATOM      2  C   UNL     1       2.521  -5.055   1.984  0.00  0.00    +0.121 C 
ATOM      3  N   UNL     1       3.967  -5.196   2.275  0.00  0.00    -0.296 N 
ATOM      4  C   UNL     1       4.018  -5.619   3.695  0.00  0.00    +0.115 C 
ATOM      5  C   UNL     1       2.908  -4.800   4.383  0.00  0.00    -0.004 C 
ATOM      6  C   UNL     1       2.205  -5.646   5.441  0.00  0.00    -0.010 C 
ATOM      7  C   UNL     1       3.187  -5.958   6.574  0.00  0.00    -0.082 C 
ATOM      8  N   UNL     1       3.671  -4.704   7.164  0.00  0.00    +0.379 N 
ATOM      9  C   UNL     1       4.426  -3.939   6.164  0.00  0.00    -0.082 C 
ATOM     10  C   UNL     1       3.496  -3.541   5.014  0.00  0.00    -0.010 C 
ATOM     11  C   UNL     1       5.003  -4.986   1.438  0.00  0.00    +0.249 C 
ATOM     12  O   UNL     1       6.137  -5.229   1.802  0.00  0.00    -0.270 OA
ATOM     13  H   UNL     1       2.884  -4.157   7.480  0.00  0.00    -0.086 HD
ATOM     14  H   UNL     1       4.269  -4.912   7.949  0.00  0.00    -0.086 HD
ENDROOT
BRANCH  11  15
ATOM     15  C   UNL     1       4.760  -4.462   0.079  0.00  0.00    +0.073 A 
ATOM     16  C   UNL     1       3.677  -4.928  -0.669  0.00  0.00    +0.016 A 
ATOM     17  C   UNL     1       3.454  -4.434  -1.937  0.00  0.00    +0.002 A 
ATOM     18  C   UNL     1       4.301  -3.478  -2.471  0.00  0.00    +0.023 A 
ATOM     19  C   UNL     1       5.376  -3.010  -1.738  0.00  0.00    +0.077 A 
ATOM     20  C   UNL     1       5.609  -3.492  -0.462  0.00  0.00    +0.154 A 
ATOM     21  F   UNL     1       6.656  -3.031   0.257  0.00  0.00    -0.203 F 
ATOM     22 CL   UNL     1       6.431  -1.810  -2.418  0.00  0.00    -0.081 Cl
ENDBRANCH  11  15
BRANCH   1  24
ATOM     23  N   UNL     1       0.961  -2.226   3.861  0.00  0.00    -0.312 N 
ATOM     24  C   UNL     1       1.841  -2.926   3.118  0.00  0.00    +0.218 C 
ATOM     25  O   UNL     1       2.565  -2.351   2.334  0.00  0.00    -0.275 OA
ATOM     26  H   UNL     1       0.381  -2.687   4.488  0.00  0.00    +0.149 HD
BRANCH  23  27
ATOM     27  C   UNL     1       0.879  -0.770   3.721  0.00  0.00    +0.148 C 
BRANCH  27  29
ATOM     28  C   UNL     1      -0.364   1.276   4.435  0.00  0.00    +0.053 C 
ATOM     29  C   UNL     1      -0.191  -0.226   4.670  0.00  0.00    +0.187 C 
BRANCH  29  30
ATOM     30  O   UNL     1       0.211  -0.454   6.022  0.00  0.00    -0.486 OA
BRANCH  30  31
ATOM     31  C   UNL     1      -0.774  -0.515   6.957  0.00  0.00    +0.139 A 
ATOM     32  C   UNL     1      -2.102  -0.391   6.576  0.00  0.00    +0.047 A 
ATOM     33  C   UNL     1      -3.101  -0.454   7.528  0.00  0.00    +0.004 A 
ATOM     34  C   UNL     1      -2.779  -0.639   8.860  0.00  0.00    +0.002 A 
ATOM     35  C   UNL     1      -1.456  -0.762   9.243  0.00  0.00    +0.023 A 
ATOM     36  C   UNL     1      -0.453  -0.707   8.294  0.00  0.00    +0.083 A 
ATOM     37 CL   UNL     1       1.208  -0.868   8.774  0.00  0.00    -0.080 Cl
ENDBRANCH  30  31
ENDBRANCH  29  30
ENDBRANCH  27  29
ENDBRANCH  23  27
ENDBRANCH   1  24
TORSDOF 6
