REMARK  Name = ZINC51318411
REMARK  9 active torsions:
REMARK  status: ('A' for Active; 'I' for Inactive)
REMARK    1  A    between atoms: C_1  and  C_2
REMARK    2  A    between atoms: C_5  and  C_8
REMARK    3  A    between atoms: C_10  and  C_31
REMARK    4  A    between atoms: C_11  and  C_16
REMARK    5  A    between atoms: C_16  and  N_17
REMARK    6  A    between atoms: N_20  and  C_23
REMARK    7  A    between atoms: C_28  and  C_29
REMARK    8  A    between atoms: C_31  and  O_33
REMARK    9  A    between atoms: O_33  and  C_34
REMARK                            x       y       z     vdW  Elec       q    Type
REMARK                         _______ _______ _______ _____ _____    ______ ____
ROOT
ATOM      1  C   UNL     1       0.032  -4.304  -0.031  0.00  0.00    +0.144 C 
ATOM      2  C   UNL     1       1.496  -4.641   0.166  0.00  0.00    +0.079 C 
ATOM      3  C   UNL     1       1.825  -5.424   1.217  0.00  0.00    +0.038 C 
ATOM      4  N   UNL     1       0.869  -5.895   2.071  0.00  0.00    -0.271 N 
ATOM      5  C   UNL     1      -0.437  -5.628   1.944  0.00  0.00    +0.304 C 
ATOM      6  O   UNL     1      -1.213  -6.092   2.756  0.00  0.00    -0.252 OA
ATOM      7  N   UNL     1      -0.918  -4.861   0.947  0.00  0.00    -0.288 N 
ATOM      8  H   UNL     1       1.153  -6.454   2.812  0.00  0.00    +0.156 HD
ATOM      9  H   UNL     1      -1.868  -4.680   0.874  0.00  0.00    +0.151 HD
ENDROOT
BRANCH   1  14
ATOM     10  C   UNL     1      -0.499   1.450   0.051  0.00  0.00    +0.044 C 
ATOM     11  C   UNL     1      -0.360  -0.051   0.030  0.00  0.00    -0.050 A 
ATOM     12  C   UNL     1      -0.261  -0.719  -1.176  0.00  0.00    +0.004 A 
ATOM     13  C   UNL     1      -0.134  -2.095  -1.196  0.00  0.00    +0.006 A 
ATOM     14  C   UNL     1      -0.105  -2.804  -0.009  0.00  0.00    -0.022 A 
ATOM     15  C   UNL     1      -0.204  -2.136   1.197  0.00  0.00    +0.006 A 
ATOM     16  C   UNL     1      -0.327  -0.759   1.217  0.00  0.00    +0.004 A 
ENDBRANCH   1  14
BRANCH   2  17
ATOM     17  C   UNL     1       2.485  -4.154  -0.720  0.00  0.00    +0.339 C 
ATOM     18  O   UNL     1       2.900  -3.016  -0.602  0.00  0.00    -0.245 OA
BRANCH  17  19
ATOM     19  O   UNL     1       2.969  -4.950  -1.696  0.00  0.00    -0.465 OA
ATOM     20  C   UNL     1       3.965  -4.393  -2.554  0.00  0.00    +0.280 C 
ENDBRANCH  17  19
ENDBRANCH   2  17
BRANCH   3  21
ATOM     21  C   UNL     1       3.270  -5.785   1.449  0.00  0.00    +0.136 C 
BRANCH  21  22
ATOM     22  N   UNL     1       3.720  -5.205   2.722  0.00  0.00    -0.294 NA
ATOM     23  C   UNL     1       3.724  -3.738   2.660  0.00  0.00    +0.103 C 
ATOM     24  C   UNL     1       4.022  -3.172   4.053  0.00  0.00    +0.120 C 
ATOM     25  N   UNL     1       5.269  -3.777   4.546  0.00  0.00    -0.327 N 
ATOM     26  C   UNL     1       5.393  -5.242   4.510  0.00  0.00    +0.120 C 
ATOM     27  C   UNL     1       5.041  -5.726   3.099  0.00  0.00    +0.103 C 
BRANCH  25  28
ATOM     28  C   UNL     1       6.308  -2.982   5.034  0.00  0.00    +0.034 A 
ATOM     29  C   UNL     1       6.360  -2.656   6.383  0.00  0.00    +0.043 A 
ATOM     30  C   UNL     1       7.389  -1.869   6.863  0.00  0.00    +0.043 A 
ATOM     31  C   UNL     1       8.367  -1.405   6.000  0.00  0.00    +0.020 A 
ATOM     32  C   UNL     1       8.318  -1.728   4.657  0.00  0.00    +0.006 A 
ATOM     33  C   UNL     1       7.295  -2.519   4.173  0.00  0.00    -0.029 A 
ATOM     34  C   UNL     1       7.245  -2.876   2.709  0.00  0.00    +0.045 C 
ATOM     35 CL   UNL     1       7.455  -1.460   8.549  0.00  0.00    -0.083 Cl
ENDBRANCH  25  28
ENDBRANCH  21  22
ENDBRANCH   3  21
TORSDOF 6
