REMARK  Name = ZINC39694145
REMARK  10 active torsions:
REMARK  status: ('A' for Active; 'I' for Inactive)
REMARK    1  A    between atoms: C_1  and  C_2
REMARK    2  A    between atoms: C_2  and  C_3
REMARK    3  A    between atoms: C_3  and  C_4
REMARK    4  A    between atoms: C_4  and  C_5
REMARK    5  A    between atoms: C_5  and  C_6
REMARK    6  A    between atoms: C_6  and  C_7
REMARK    7  A    between atoms: C_11  and  C_20
REMARK    8  A    between atoms: N_22  and  C_23
REMARK    9  A    between atoms: C_23  and  C_24
REMARK   10  A    between atoms: C_28  and  N_30
REMARK                            x       y       z     vdW  Elec       q    Type
REMARK                         _______ _______ _______ _____ _____    ______ ____
ROOT
ATOM      1  C   UNL     1       2.136  -4.573  -3.462  0.00  0.00    +0.216 C 
ATOM      2  O   UNL     1       2.575  -3.703  -4.184  0.00  0.00    -0.276 OA
ATOM      3  N   UNL     1       2.292  -5.869  -3.797  0.00  0.00    -0.300 N 
ATOM      4  C   UNL     1       1.825  -7.062  -3.053  0.00  0.00    +0.121 C 
ATOM      5  C   UNL     1       1.337  -8.038  -4.147  0.00  0.00    +0.100 C 
ATOM      6  C   UNL     1       2.094  -7.615  -5.416  0.00  0.00    -0.004 C 
ATOM      7  C   UNL     1       2.966  -6.423  -4.995  0.00  0.00    +0.115 C 
ATOM      8  C   UNL     1       1.111  -7.184  -6.500  0.00  0.00    -0.010 C 
ATOM      9  C   UNL     1       1.885  -6.823  -7.771  0.00  0.00    -0.082 C 
ATOM     10  N   UNL     1       2.661  -7.984  -8.220  0.00  0.00    +0.379 N 
ATOM     11  C   UNL     1       3.668  -8.335  -7.211  0.00  0.00    -0.082 C 
ATOM     12  C   UNL     1       2.969  -8.760  -5.917  0.00  0.00    -0.010 C 
ATOM     13  H   UNL     1       2.041  -8.768  -8.361  0.00  0.00    -0.086 HD
ATOM     14  H   UNL     1       3.122  -7.763  -9.090  0.00  0.00    -0.086 HD
ENDROOT
BRANCH   5  15
ATOM     15  C   UNL     1      -0.150  -7.899  -4.349  0.00  0.00    +0.218 C 
ATOM     16  O   UNL     1      -0.691  -6.830  -4.155  0.00  0.00    -0.275 OA
ATOM     17  N   UNL     1      -0.879  -8.961  -4.746  0.00  0.00    -0.311 N 
ATOM     18  H   UNL     1      -0.446  -9.815  -4.901  0.00  0.00    +0.149 HD
BRANCH  17  19
ATOM     19  C   UNL     1      -2.324  -8.825  -4.943  0.00  0.00    +0.139 C 
BRANCH  19  20
ATOM     20  C   UNL     1      -2.898 -10.148  -5.383  0.00  0.00    -0.028 A 
ATOM     21  C   UNL     1      -2.971 -10.455  -6.729  0.00  0.00    +0.005 A 
ATOM     22  C   UNL     1      -3.496 -11.667  -7.136  0.00  0.00    +0.002 A 
ATOM     23  C   UNL     1      -3.949 -12.575  -6.199  0.00  0.00    +0.026 A 
ATOM     24  C   UNL     1      -3.877 -12.270  -4.847  0.00  0.00    +0.046 A 
ATOM     25  C   UNL     1      -3.344 -11.053  -4.441  0.00  0.00    +0.031 A 
BRANCH  24  26
ATOM     26  N   UNL     1      -4.337 -13.189  -3.893  0.00  0.00    -0.323 N 
ATOM     27  C   UNL     1      -4.326 -13.005  -2.540  0.00  0.00    +0.091 A 
ATOM     28  C   UNL     1      -4.847 -14.105  -1.961  0.00  0.00    +0.019 A 
ATOM     29  C   UNL     1      -5.193 -15.002  -2.992  0.00  0.00    +0.019 A 
ATOM     30  C   UNL     1      -4.875 -14.414  -4.164  0.00  0.00    +0.091 A 
ENDBRANCH  24  26
ENDBRANCH  19  20
ENDBRANCH  17  19
ENDBRANCH   5  15
BRANCH   1  31
ATOM     31  C   UNL     1       1.415  -4.205  -2.191  0.00  0.00    +0.096 C 
BRANCH  31  32
ATOM     32  C   UNL     1       1.375  -2.682  -2.050  0.00  0.00    +0.009 C 
BRANCH  32  33
ATOM     33  C   UNL     1       0.644  -2.308  -0.759  0.00  0.00    +0.000 C 
BRANCH  33  34
ATOM     34  C   UNL     1       0.604  -0.785  -0.618  0.00  0.00    -0.000 C 
BRANCH  34  36
ATOM     35  C   UNL     1      -0.167   1.112   0.813  0.00  0.00    +0.004 C 
ATOM     36  C   UNL     1      -0.127  -0.411   0.672  0.00  0.00    -0.003 C 
ENDBRANCH  34  36
ENDBRANCH  33  34
ENDBRANCH  32  33
ENDBRANCH  31  32
ENDBRANCH   1  31
TORSDOF 9
