REMARK  Name = ZINC41150838
REMARK  5 active torsions:
REMARK  status: ('A' for Active; 'I' for Inactive)
REMARK    1  A    between atoms: C_2  and  C_3
REMARK    2  A    between atoms: C_3  and  N_4
REMARK    3  A    between atoms: N_18  and  C_21
REMARK    4  A    between atoms: C_21  and  C_22
REMARK    5  A    between atoms: C_21  and  C_28
REMARK                            x       y       z     vdW  Elec       q    Type
REMARK                         _______ _______ _______ _____ _____    ______ ____
ROOT
ATOM      1  N   UNL     1       3.860  -5.121   3.544  0.00  0.00    -0.325 N 
ATOM      2  C   UNL     1       3.736  -4.198   2.527  0.00  0.00    +0.132 A 
ATOM      3  C   UNL     1       2.565  -3.409   2.401  0.00  0.00    +0.038 A 
ATOM      4  C   UNL     1       1.492  -3.525   3.291  0.00  0.00    +0.013 A 
ATOM      5  C   UNL     1       0.390  -2.739   3.122  0.00  0.00    +0.001 A 
ATOM      6  C   UNL     1       0.319  -1.824   2.076  0.00  0.00    +0.002 A 
ATOM      7  C   UNL     1       1.347  -1.687   1.191  0.00  0.00    +0.026 A 
ATOM      8  C   UNL     1       2.495  -2.478   1.336  0.00  0.00    +0.052 A 
ATOM      9  N   UNL     1       3.534  -2.381   0.493  0.00  0.00    -0.327 N 
ATOM     10  C   UNL     1       4.600  -3.141   0.656  0.00  0.00    +0.198 A 
ATOM     11  N   UNL     1       4.709  -4.024   1.646  0.00  0.00    -0.201 NA
ATOM     12  N   UNL     1       5.649  -3.011  -0.235  0.00  0.00    -0.299 N 
ATOM     13  C   UNL     1       6.908  -3.744  -0.031  0.00  0.00    +0.123 C 
ATOM     14  C   UNL     1       7.257  -4.482  -1.329  0.00  0.00    +0.104 C 
ATOM     15  N   UNL     1       7.269  -3.525  -2.444  0.00  0.00    -0.289 NA
ATOM     16  C   UNL     1       5.939  -2.936  -2.654  0.00  0.00    +0.104 C 
ATOM     17  C   UNL     1       5.534  -2.140  -1.415  0.00  0.00    +0.123 C 
ATOM     18  H   UNL     1       3.139  -5.239   4.182  0.00  0.00    +0.148 HD
ATOM     19  H   UNL     1       3.501  -1.748  -0.241  0.00  0.00    +0.169 HD
ENDROOT
BRANCH   1  20
ATOM     20  C   UNL     1       5.080  -5.923   3.660  0.00  0.00    +0.130 C 
BRANCH  20  22
ATOM     21  C   UNL     1       5.128  -8.136   4.689  0.00  0.00    +0.005 C 
ATOM     22  C   UNL     1       4.963  -6.846   4.845  0.00  0.00    -0.016 C 
ENDBRANCH  20  22
ENDBRANCH   1  20
BRANCH  15  23
ATOM     23  C   UNL     1       7.765  -4.157  -3.673  0.00  0.00    +0.117 C 
BRANCH  23  24
ATOM     24  C   UNL     1       7.763  -3.147  -4.793  0.00  0.00    -0.026 A 
ATOM     25  C   UNL     1       8.156  -1.845  -4.549  0.00  0.00    +0.005 A 
ATOM     26  C   UNL     1       8.154  -0.919  -5.576  0.00  0.00    +0.000 A 
ATOM     27  C   UNL     1       7.759  -1.296  -6.846  0.00  0.00    +0.000 A 
ATOM     28  C   UNL     1       7.367  -2.599  -7.089  0.00  0.00    +0.000 A 
ATOM     29  C   UNL     1       7.373  -3.526  -6.064  0.00  0.00    +0.005 A 
ENDBRANCH  23  24
BRANCH  23  30
ATOM     30  C   UNL     1       9.170  -4.655  -3.450  0.00  0.00    -0.026 A 
ATOM     31  C   UNL     1      10.063  -3.898  -2.716  0.00  0.00    +0.005 A 
ATOM     32  C   UNL     1      11.352  -4.356  -2.511  0.00  0.00    +0.000 A 
ATOM     33  C   UNL     1      11.746  -5.571  -3.039  0.00  0.00    +0.000 A 
ATOM     34  C   UNL     1      10.852  -6.328  -3.773  0.00  0.00    +0.000 A 
ATOM     35  C   UNL     1       9.563  -5.873  -3.974  0.00  0.00    +0.005 A 
ENDBRANCH  23  30
ENDBRANCH  15  23
TORSDOF 5
