REMARK  Name = ZINC19805898
REMARK  6 active torsions:
REMARK  status: ('A' for Active; 'I' for Inactive)
REMARK    1  A    between atoms: C_1  and  C_2
REMARK    2  A    between atoms: C_2  and  C_21
REMARK    3  A    between atoms: C_8  and  O_11
REMARK    4  A    between atoms: O_11  and  C_12
REMARK    5  A    between atoms: C_14  and  C_18
REMARK    6  A    between atoms: C_18  and  N_20
REMARK                            x       y       z     vdW  Elec       q    Type
REMARK                         _______ _______ _______ _____ _____    ______ ____
ROOT
ATOM      1  O   UNL     1      -4.697   2.163  -1.287  0.00  0.00    -0.434 OA
ENDROOT
BRANCH   1   9
ATOM      2  C   UNL     1      -9.166   0.383  -1.345  0.00  0.00    +0.056 C 
ATOM      3  C   UNL     1      -8.723   1.269  -2.510  0.00  0.00    +0.109 C 
ATOM      4  C   UNL     1      -9.261   2.710  -2.338  0.00  0.00    +0.086 C 
ATOM      5  C   UNL     1      -8.109   3.392  -1.626  0.00  0.00    +0.002 A 
ATOM      6  C   UNL     1      -8.023   4.582  -0.936  0.00  0.00    +0.007 A 
ATOM      7  C   UNL     1      -6.824   4.967  -0.363  0.00  0.00    +0.004 A 
ATOM      8  C   UNL     1      -5.713   4.152  -0.482  0.00  0.00    +0.050 A 
ATOM      9  C   UNL     1      -5.795   2.958  -1.175  0.00  0.00    +0.172 A 
ATOM     10  C   UNL     1      -7.000   2.570  -1.765  0.00  0.00    +0.167 A 
ATOM     11  O   UNL     1      -7.298   1.458  -2.494  0.00  0.00    -0.482 OA
ATOM     12  C   UNL     1      -9.177   0.678  -3.847  0.00  0.00    +0.056 C 
ENDBRANCH   1   9
BRANCH   1  13
ATOM     13  C   UNL     1      -3.926   2.293  -2.396  0.00  0.00    +0.221 A 
ATOM     14  C   UNL     1      -2.742   1.576  -2.497  0.00  0.00    +0.078 A 
ATOM     15  C   UNL     1      -1.957   1.726  -3.642  0.00  0.00    +0.009 A 
ATOM     16  C   UNL     1      -2.409   2.591  -4.647  0.00  0.00    +0.030 A 
ATOM     17  C   UNL     1      -3.601   3.262  -4.468  0.00  0.00    +0.115 A 
ATOM     18  N   UNL     1      -4.314   3.099  -3.370  0.00  0.00    -0.221 NA
BRANCH  15  19
ATOM     19  C   UNL     1      -0.685   0.986  -3.793  0.00  0.00    +0.077 C 
ATOM     20  S   UNL     1       0.301   0.691  -2.425  0.00  0.00    -0.035 S 
BRANCH  19  21
ATOM     21  N   UNL     1      -0.305   0.540  -5.007  0.00  0.00    -0.352 N 
ATOM     22  H   UNL     1       0.641  -0.010  -5.119  0.00  0.00    +0.143 HD
ATOM     23  H   UNL     1      -0.940   0.726  -5.885  0.00  0.00    +0.143 HD
ENDBRANCH  19  21
ENDBRANCH  15  19
ENDBRANCH   1  13
TORSDOF 4
