REMARK  Name = ZINC39686291
REMARK  7 active torsions:
REMARK  status: ('A' for Active; 'I' for Inactive)
REMARK    1  A    between atoms: C_1  and  C_2
REMARK    2  A    between atoms: C_2  and  C_3
REMARK    3  A    between atoms: C_2  and  C_4
REMARK    4  A    between atoms: C_4  and  C_5
REMARK    5  A    between atoms: C_10  and  N_13
REMARK    6  A    between atoms: C_14  and  C_16
REMARK    7  A    between atoms: C_27  and  C_29
REMARK                            x       y       z     vdW  Elec       q    Type
REMARK                         _______ _______ _______ _____ _____    ______ ____
ROOT
ATOM      1  C   UNL     1      -7.059  -6.499   2.897  0.00  0.00    +0.100 C 
ATOM      2  C   UNL     1      -8.139  -5.502   3.374  0.00  0.00    +0.121 C 
ATOM      3  N   UNL     1      -9.355  -5.875   2.614  0.00  0.00    -0.297 N 
ATOM      4  C   UNL     1      -9.331  -7.357   2.584  0.00  0.00    +0.115 C 
ATOM      5  C   UNL     1      -7.845  -7.717   2.382  0.00  0.00    -0.004 C 
ATOM      6  C   UNL     1      -7.487  -8.958   3.194  0.00  0.00    -0.010 C 
ATOM      7  C   UNL     1      -8.237 -10.167   2.627  0.00  0.00    -0.082 C 
ATOM      8  N   UNL     1      -7.870 -10.356   1.218  0.00  0.00    +0.379 N 
ATOM      9  C   UNL     1      -8.302  -9.196   0.428  0.00  0.00    -0.082 C 
ATOM     10  C   UNL     1      -7.555  -7.946   0.902  0.00  0.00    -0.010 C 
ATOM     11  C   UNL     1     -10.275  -5.053   2.073  0.00  0.00    +0.260 C 
ATOM     12  O   UNL     1     -11.224  -5.514   1.475  0.00  0.00    -0.271 OA
ATOM     13  H   UNL     1      -6.869 -10.458   1.143  0.00  0.00    -0.086 HD
ATOM     14  H   UNL     1      -8.318 -11.188   0.864  0.00  0.00    -0.086 HD
ENDROOT
BRANCH  11  15
ATOM     15  C   UNL     1     -10.125  -3.559   2.210  0.00  0.00    +0.296 C 
ATOM     16  C   UNL     1     -10.257  -3.160   3.686  0.00  0.00    +0.283 C 
ATOM     17  O   UNL     1     -10.124  -1.737   3.778  0.00  0.00    -0.484 OA
ATOM     18  C   UNL     1     -10.834  -0.997   2.883  0.00  0.00    +0.162 A 
ATOM     19  C   UNL     1     -11.044   0.352   3.130  0.00  0.00    +0.049 A 
ATOM     20  C   UNL     1     -11.760   1.117   2.228  0.00  0.00    +0.004 A 
ATOM     21  C   UNL     1     -12.268   0.541   1.079  0.00  0.00    +0.004 A 
ATOM     22  C   UNL     1     -12.063  -0.803   0.828  0.00  0.00    +0.049 A 
ATOM     23  C   UNL     1     -11.347  -1.577   1.729  0.00  0.00    +0.163 A 
ATOM     24  O   UNL     1     -11.160  -2.900   1.471  0.00  0.00    -0.473 OA
ENDBRANCH  11  15
BRANCH   1  26
ATOM     25  N   UNL     1      -4.962  -6.277   1.604  0.00  0.00    -0.312 N 
ATOM     26  C   UNL     1      -6.242  -5.894   1.784  0.00  0.00    +0.218 C 
ATOM     27  O   UNL     1      -6.736  -5.064   1.051  0.00  0.00    -0.275 OA
ATOM     28  H   UNL     1      -4.567  -6.941   2.190  0.00  0.00    +0.149 HD
BRANCH  25  34
ATOM     29  C   UNL     1      -1.252  -6.285  -2.309  0.00  0.00    +0.216 C 
ATOM     30  O   UNL     1      -1.554  -6.803  -3.363  0.00  0.00    -0.276 OA
ATOM     31  N   UNL     1      -2.208  -5.762  -1.516  0.00  0.00    -0.301 N 
ATOM     32  C   UNL     1      -1.856  -5.127  -0.239  0.00  0.00    +0.109 C 
ATOM     33  C   UNL     1      -2.681  -5.773   0.878  0.00  0.00    +0.041 C 
ATOM     34  C   UNL     1      -4.167  -5.689   0.523  0.00  0.00    +0.076 C 
ATOM     35  C   UNL     1      -4.427  -6.456  -0.776  0.00  0.00    +0.041 C 
ATOM     36  C   UNL     1      -3.621  -5.812  -1.914  0.00  0.00    +0.109 C 
BRANCH  29  37
ATOM     37  C   UNL     1       0.194  -6.227  -1.886  0.00  0.00    +0.099 C 
BRANCH  37  39
ATOM     38  C   UNL     1       2.541  -6.716  -2.589  0.00  0.00    +0.008 C 
ATOM     39  C   UNL     1       1.066  -6.885  -2.957  0.00  0.00    -0.008 C 
ATOM     40  C   UNL     1       0.729  -8.375  -3.043  0.00  0.00    +0.008 C 
ENDBRANCH  37  39
ENDBRANCH  29  37
ENDBRANCH  25  34
ENDBRANCH   1  26
TORSDOF 5
