REMARK  Name = ZINC59792484
REMARK  6 active torsions:
REMARK  status: ('A' for Active; 'I' for Inactive)
REMARK    1  A    between atoms: C_3  and  N_25
REMARK    2  A    between atoms: C_6  and  C_7
REMARK    3  A    between atoms: C_10  and  S_13
REMARK    4  A    between atoms: S_13  and  C_14
REMARK    5  A    between atoms: C_14  and  C_15
REMARK    6  A    between atoms: N_17  and  C_18
REMARK                            x       y       z     vdW  Elec       q    Type
REMARK                         _______ _______ _______ _____ _____    ______ ____
ROOT
ATOM      1  C   UNL     1      -1.271  -0.766  -0.018  0.00  0.00    +0.182 A 
ATOM      2  N   UNL     1      -1.380  -2.103  -0.018  0.00  0.00    -0.201 NA
ATOM      3  H   UNL     1      -4.354  -1.246   0.032  0.00  0.00    +0.191 HD
ATOM      4  C   UNL     1      -2.650  -2.442   0.003  0.00  0.00    +0.185 A 
ATOM      5  N   UNL     1      -3.386  -1.309   0.016  0.00  0.00    -0.253 N 
ATOM      6  N   UNL     1      -2.475  -0.241   0.008  0.00  0.00    -0.152 NA
ENDROOT
BRANCH   1  12
ATOM      7  C   UNL     1      -0.016   1.389  -0.035  0.00  0.00    +0.014 A 
ATOM      8  C   UNL     1       1.171   2.093  -0.053  0.00  0.00    +0.033 A 
ATOM      9  C   UNL     1       2.378   1.417  -0.073  0.00  0.00    +0.126 A 
ATOM     10  C   UNL     1       2.402   0.035  -0.075  0.00  0.00    +0.033 A 
ATOM     11  C   UNL     1       1.221  -0.679  -0.058  0.00  0.00    +0.014 A 
ATOM     12  C   UNL     1       0.002  -0.004  -0.037  0.00  0.00    +0.021 A 
BRANCH   9  13
ATOM     13  N   UNL     1       3.648   2.178  -0.093  0.00  0.00    +0.056 N 
ATOM     14  O   UNL     1       3.629   3.386  -0.092  0.00  0.00    -0.126 OA
ATOM     15  O   UNL     1       4.704   1.589  -0.111  0.00  0.00    -0.126 OA
ENDBRANCH   9  13
ENDBRANCH   1  12
BRANCH   4  16
ATOM     16  S   UNL     1      -3.281  -4.088   0.011  0.00  0.00    -0.077 S 
BRANCH  16  17
ATOM     17  C   UNL     1      -1.795  -5.128  -0.015  0.00  0.00    +0.173 C 
BRANCH  17  18
ATOM     18  C   UNL     1      -2.199  -6.580  -0.010  0.00  0.00    +0.227 C 
ATOM     19  O   UNL     1      -3.373  -6.883   0.008  0.00  0.00    -0.275 OA
ATOM     20  N   UNL     1      -1.255  -7.542  -0.027  0.00  0.00    -0.285 N 
ATOM     21  H   UNL     1      -0.319  -7.301  -0.109  0.00  0.00    +0.155 HD
BRANCH  20  22
ATOM     22  C   UNL     1      -1.625  -8.887   0.075  0.00  0.00    +0.033 A 
ATOM     23  C   UNL     1      -0.815  -9.781   0.763  0.00  0.00    +0.024 A 
ATOM     24  C   UNL     1      -1.183 -11.109   0.863  0.00  0.00    +0.016 A 
ATOM     25  C   UNL     1      -2.357 -11.548   0.277  0.00  0.00    +0.013 A 
ATOM     26  C   UNL     1      -3.166 -10.660  -0.409  0.00  0.00    +0.016 A 
ATOM     27  C   UNL     1      -2.805  -9.330  -0.507  0.00  0.00    +0.024 A 
ATOM     28  I   UNL     1      -2.911 -13.563   0.429  0.00  0.00    -0.044 I 
ENDBRANCH  20  22
ENDBRANCH  17  18
ENDBRANCH  16  17
ENDBRANCH   4  16
TORSDOF 6
