REMARK  Name = ZINC45915513
REMARK  8 active torsions:
REMARK  status: ('A' for Active; 'I' for Inactive)
REMARK    1  A    between atoms: C_1  and  C_2
REMARK    2  A    between atoms: C_8  and  N_10
REMARK    3  A    between atoms: C_11  and  C_13
REMARK    4  A    between atoms: C_13  and  O_14
REMARK    5  A    between atoms: O_14  and  C_15
REMARK    6  A    between atoms: C_15  and  C_17
REMARK    7  A    between atoms: C_20  and  C_23
REMARK    8  A    between atoms: C_23  and  N_24
REMARK                            x       y       z     vdW  Elec       q    Type
REMARK                         _______ _______ _______ _____ _____    ______ ____
ROOT
ATOM      1  C   UNL     1       6.553   1.220   5.236  0.00  0.00    +0.059 A 
ATOM      2  C   UNL     1       5.804   0.825   6.346  0.00  0.00    +0.015 A 
ATOM      3  C   UNL     1       6.355   0.899   7.608  0.00  0.00    +0.006 A 
ATOM      4  C   UNL     1       7.647   1.364   7.776  0.00  0.00    -0.030 A 
ATOM      5  C   UNL     1       8.395   1.758   6.681  0.00  0.00    +0.006 A 
ATOM      6  C   UNL     1       7.859   1.683   5.412  0.00  0.00    +0.015 A 
ENDROOT
BRANCH   1   7
ATOM      7  C   UNL     1       5.969   1.144   3.881  0.00  0.00    +0.340 C 
ATOM      8  O   UNL     1       6.625   1.484   2.917  0.00  0.00    -0.245 OA
BRANCH   7   9
ATOM      9  O   UNL     1       4.709   0.697   3.715  0.00  0.00    -0.452 OA
BRANCH   9  10
ATOM     10  C   UNL     1       4.209   0.649   2.377  0.00  0.00    +0.328 C 
BRANCH  10  12
ATOM     11  N   UNL     1       2.116  -0.004   1.231  0.00  0.00    -0.309 N 
ATOM     12  C   UNL     1       2.795   0.128   2.388  0.00  0.00    +0.251 C 
ATOM     13  O   UNL     1       2.268  -0.174   3.438  0.00  0.00    -0.272 OA
ATOM     14  H   UNL     1       2.538   0.237   0.392  0.00  0.00    +0.149 HD
BRANCH  11  21
ATOM     15  C   UNL     1      -0.019   1.526   0.010  0.00  0.00    +0.009 C 
ATOM     16  C   UNL     1       0.002  -0.004   0.002  0.00  0.00    +0.006 C 
ATOM     17  C   UNL     1       0.718  -0.497  -1.257  0.00  0.00    +0.005 C 
ATOM     18  C   UNL     1       0.739  -2.027  -1.265  0.00  0.00    +0.000 C 
ATOM     19  C   UNL     1       1.479  -2.534  -0.026  0.00  0.00    +0.002 C 
ATOM     20  C   UNL     1       0.763  -2.041   1.233  0.00  0.00    +0.022 C 
ATOM     21  C   UNL     1       0.742  -0.511   1.242  0.00  0.00    +0.076 C 
ENDBRANCH  11  21
ENDBRANCH  10  12
ENDBRANCH   9  10
ENDBRANCH   7   9
ENDBRANCH   1   7
BRANCH   4  22
ATOM     22  C   UNL     1       8.243   1.442   9.158  0.00  0.00    +0.152 C 
BRANCH  22  23
ATOM     23  N   UNL     1       8.917   0.179   9.472  0.00  0.00    -0.230 N 
ATOM     24  C   UNL     1       8.322  -0.875  10.058  0.00  0.00    +0.254 C 
ATOM     25  O   UNL     1       7.160  -0.931  10.407  0.00  0.00    -0.270 OA
ATOM     26  C   UNL     1       9.320  -1.956  10.207  0.00  0.00    +0.049 A 
ATOM     27  C   UNL     1       9.286  -3.240  10.727  0.00  0.00    +0.014 A 
ATOM     28  C   UNL     1      10.434  -4.017  10.714  0.00  0.00    +0.001 A 
ATOM     29  C   UNL     1      11.611  -3.520  10.185  0.00  0.00    +0.001 A 
ATOM     30  C   UNL     1      11.660  -2.238   9.662  0.00  0.00    +0.014 A 
ATOM     31  C   UNL     1      10.520  -1.449   9.668  0.00  0.00    +0.049 A 
ATOM     32  C   UNL     1      10.210  -0.080   9.206  0.00  0.00    +0.254 C 
ATOM     33  O   UNL     1      10.992   0.684   8.676  0.00  0.00    -0.270 OA
ENDBRANCH  22  23
ENDBRANCH   4  22
TORSDOF 7
