REMARK  Name = ZINC20979302
REMARK  10 active torsions:
REMARK  status: ('A' for Active; 'I' for Inactive)
REMARK    1  A    between atoms: C_1  and  C_2
REMARK    2  A    between atoms: C_2  and  O_3
REMARK    3  A    between atoms: O_3  and  C_4
REMARK    4  A    between atoms: C_4  and  C_6
REMARK    5  A    between atoms: N_15  and  C_16
REMARK    6  A    between atoms: C_16  and  N_18
REMARK    7  A    between atoms: C_19  and  C_21
REMARK    8  A    between atoms: C_24  and  C_27
REMARK    9  A    between atoms: C_27  and  C_28
REMARK   10  A    between atoms: C_27  and  C_29
REMARK                            x       y       z     vdW  Elec       q    Type
REMARK                         _______ _______ _______ _____ _____    ______ ____
ROOT
ATOM      1  C   UNL     1      -6.598   7.802  11.547  0.00  0.00    +0.060 A 
ATOM      2  C   UNL     1      -6.591   6.399  11.561  0.00  0.00    +0.017 A 
ATOM      3  C   UNL     1      -6.019   5.684  10.562  0.00  0.00    +0.027 A 
ATOM      4  C   UNL     1      -5.404   6.330   9.460  0.00  0.00    +0.055 A 
ATOM      5  C   UNL     1      -5.424   7.747   9.469  0.00  0.00    +0.039 A 
ATOM      6  C   UNL     1      -6.000   8.472  10.475  0.00  0.00    +0.032 A 
ATOM      7  S   UNL     1      -4.569   8.145   7.963  0.00  0.00    -0.052 S 
ATOM      8  C   UNL     1      -4.260   6.466   7.433  0.00  0.00    +0.163 A 
ATOM      9  N   UNL     1      -4.801   5.763   8.404  0.00  0.00    -0.335 N 
ATOM     10  N   UNL     1      -3.613   6.020   6.295  0.00  0.00    -0.169 NA
ATOM     11  H   UNL     1      -4.745   4.668   8.325  0.00  0.00    +0.168 HD
ENDROOT
BRANCH   1  12
ATOM     12  C   UNL     1      -7.226   8.557  12.646  0.00  0.00    +0.339 C 
ATOM     13  O   UNL     1      -7.226   9.772  12.624  0.00  0.00    -0.245 OA
BRANCH  12  14
ATOM     14  O   UNL     1      -7.800   7.901  13.674  0.00  0.00    -0.461 OA
BRANCH  14  16
ATOM     15  C   UNL     1      -8.995   7.797  15.793  0.00  0.00    +0.048 C 
ATOM     16  C   UNL     1      -8.399   8.710  14.720  0.00  0.00    +0.229 C 
ENDBRANCH  14  16
ENDBRANCH  12  14
ENDBRANCH   1  12
BRANCH  10  17
ATOM     17  C   UNL     1      -3.475   4.698   6.073  0.00  0.00    +0.163 C 
ATOM     18  S   UNL     1      -4.100   3.571   7.200  0.00  0.00    -0.016 S 
BRANCH  17  19
ATOM     19  N   UNL     1      -2.844   4.264   4.965  0.00  0.00    -0.262 N 
ATOM     20  C   UNL     1      -2.705   2.942   4.743  0.00  0.00    +0.250 C 
ATOM     21  O   UNL     1      -3.149   2.141   5.542  0.00  0.00    -0.270 OA
ATOM     22  H   UNL     1      -2.442   4.988   4.241  0.00  0.00    +0.157 HD
BRANCH  20  23
ATOM     23  C   UNL     1      -2.014   2.465   3.527  0.00  0.00    +0.037 A 
ATOM     24  C   UNL     1      -1.868   1.096   3.294  0.00  0.00    +0.013 A 
ATOM     25  C   UNL     1      -1.222   0.658   2.157  0.00  0.00    +0.004 A 
ATOM     26  C   UNL     1      -0.718   1.572   1.248  0.00  0.00    -0.045 A 
ATOM     27  C   UNL     1      -0.854   2.930   1.475  0.00  0.00    +0.004 A 
ATOM     28  C   UNL     1      -1.503   3.381   2.606  0.00  0.00    +0.013 A 
BRANCH  26  29
ATOM     29  C   UNL     1      -0.013   1.086   0.008  0.00  0.00    +0.013 C 
ATOM     30  C   UNL     1       1.423   1.615  -0.003  0.00  0.00    +0.012 C 
ATOM     31  C   UNL     1      -0.753   1.593  -1.232  0.00  0.00    +0.012 C 
ENDBRANCH  26  29
ENDBRANCH  20  23
ENDBRANCH  17  19
ENDBRANCH  10  17
TORSDOF 7
