REMARK  Name = ZINC13065225
REMARK  12 active torsions:
REMARK  status: ('A' for Active; 'I' for Inactive)
REMARK    1  A    between atoms: C_1  and  C_2
REMARK    2  A    between atoms: C_2  and  C_3
REMARK    3  A    between atoms: C_3  and  C_5
REMARK    4  A    between atoms: C_3  and  N_69
REMARK    5  A    between atoms: N_9  and  C_10
REMARK    6  A    between atoms: C_10  and  C_11
REMARK    7  A    between atoms: C_17  and  C_18
REMARK    8  A    between atoms: C_17  and  N_69
REMARK    9  A    between atoms: C_24  and  C_25
REMARK   10  A    between atoms: C_24  and  N_69
REMARK   11  A    between atoms: C_28  and  C_38
REMARK   12  A    between atoms: C_31  and  C_37
REMARK                            x       y       z     vdW  Elec       q    Type
REMARK                         _______ _______ _______ _____ _____    ______ ____
ROOT
ATOM      1  N   UNL     1       2.285   7.188  -2.154  0.00  0.00    +0.392 N 
ATOM      2  H   UNL     1       3.031   7.242  -1.451  0.00  0.00    -0.080 HD
ENDROOT
BRANCH   1   3
ATOM      3  C   UNL     1       1.641   5.860  -2.069  0.00  0.00    +0.003 C 
BRANCH   3   4
ATOM      4  C   UNL     1       2.696   4.832  -1.754  0.00  0.00    +0.138 A 
ATOM      5  N   UNL     1       3.874   4.721  -2.319  0.00  0.00    -0.115 NA
ATOM      6  N   UNL     1       4.482   3.723  -1.778  0.00  0.00    -0.023 NA
ATOM      7  N   UNL     1       3.726   3.197  -0.879  0.00  0.00    -0.044 NA
ATOM      8  N   UNL     1       2.613   3.849  -0.838  0.00  0.00    -0.226 N 
BRANCH   8   9
ATOM      9  C   UNL     1       1.476   3.576   0.044  0.00  0.00    +0.182 C 
BRANCH   9  10
ATOM     10  C   UNL     1       0.534   2.614  -0.635  0.00  0.00    -0.026 A 
ATOM     11  C   UNL     1       0.697   1.252  -0.465  0.00  0.00    +0.005 A 
ATOM     12  C   UNL     1      -0.167   0.370  -1.087  0.00  0.00    +0.000 A 
ATOM     13  C   UNL     1      -1.190   0.851  -1.883  0.00  0.00    +0.000 A 
ATOM     14  C   UNL     1      -1.356   2.213  -2.049  0.00  0.00    +0.000 A 
ATOM     15  C   UNL     1      -0.492   3.095  -1.426  0.00  0.00    +0.005 A 
ENDBRANCH   9  10
ENDBRANCH   8   9
ENDBRANCH   3   4
BRANCH   3  17
ATOM     16  C   UNL     1      -0.203   6.466  -3.643  0.00  0.00    +0.002 C 
ATOM     17  C   UNL     1       0.965   5.508  -3.396  0.00  0.00    -0.011 C 
ENDBRANCH   3  17
ENDBRANCH   1   3
BRANCH   1  18
ATOM     18  C   UNL     1       2.876   7.377  -3.496  0.00  0.00    -0.042 C 
BRANCH  18  19
ATOM     19  C   UNL     1       3.833   8.540  -3.443  0.00  0.00    -0.064 A 
ATOM     20  C   UNL     1       3.380   9.821  -3.695  0.00  0.00    +0.002 A 
ATOM     21  C   UNL     1       4.257  10.888  -3.642  0.00  0.00    +0.000 A 
ATOM     22  C   UNL     1       5.590  10.672  -3.347  0.00  0.00    +0.000 A 
ATOM     23  C   UNL     1       6.045   9.391  -3.101  0.00  0.00    +0.000 A 
ATOM     24  C   UNL     1       5.167   8.324  -3.148  0.00  0.00    +0.002 A 
ENDBRANCH  18  19
ENDBRANCH   1  18
BRANCH   1  25
ATOM     25  C   UNL     1       1.293   8.249  -1.885  0.00  0.00    -0.036 C 
BRANCH  25  26
ATOM     26  C   UNL     1       1.106   8.368  -0.395  0.00  0.00    +0.001 A 
ATOM     27  C   UNL     1       1.865   9.240   0.314  0.00  0.00    +0.017 A 
ATOM     28  C   UNL     1       1.655   9.335   1.760  0.00  0.00    +0.002 A 
ATOM     29  C   UNL     1       2.404  10.220   2.543  0.00  0.00    -0.041 A 
ATOM     30  C   UNL     1       2.187  10.282   3.890  0.00  0.00    +0.004 A 
ATOM     31  C   UNL     1       1.231   9.473   4.490  0.00  0.00    +0.005 A 
ATOM     32  C   UNL     1       0.482   8.593   3.738  0.00  0.00    -0.026 A 
ATOM     33  C   UNL     1       0.685   8.514   2.364  0.00  0.00    +0.052 A 
ATOM     34  N   UNL     1      -0.050   7.643   1.588  0.00  0.00    -0.322 N 
ATOM     35  H   UNL     1      -0.718   7.078   2.006  0.00  0.00    +0.169 HD
ATOM     36  C   UNL     1       0.146   7.567   0.260  0.00  0.00    +0.251 A 
ATOM     37  O   UNL     1      -0.522   6.785  -0.395  0.00  0.00    -0.268 OA
ATOM     38  C   UNL     1      -0.552   7.721   4.402  0.00  0.00    +0.046 C 
ATOM     39  C   UNL     1       3.444  11.103   1.903  0.00  0.00    +0.044 C 
ENDBRANCH  25  26
ENDBRANCH   1  25
TORSDOF 9
