REMARK  Name = ZINC58848442
REMARK  6 active torsions:
REMARK  status: ('A' for Active; 'I' for Inactive)
REMARK    1  A    between atoms: C_1  and  O_2
REMARK    2  A    between atoms: O_2  and  C_3
REMARK    3  A    between atoms: C_6  and  N_9
REMARK    4  A    between atoms: N_9  and  S_10
REMARK    5  A    between atoms: S_10  and  C_13
REMARK    6  A    between atoms: C_26  and  C_29
REMARK                            x       y       z     vdW  Elec       q    Type
REMARK                         _______ _______ _______ _____ _____    ______ ____
ROOT
ATOM      1  C   UNL     1      -3.954  -5.142  -0.337  0.00  0.00    +0.109 A 
ATOM      2  C   UNL     1      -2.621  -5.139  -0.708  0.00  0.00    +0.030 A 
ATOM      3  C   UNL     1      -1.775  -6.118  -0.228  0.00  0.00    +0.025 A 
ATOM      4  C   UNL     1      -2.259  -7.102   0.628  0.00  0.00    +0.031 A 
ATOM      5  C   UNL     1      -3.592  -7.098   1.010  0.00  0.00    -0.018 A 
ATOM      6  C   UNL     1      -4.434  -6.111   0.519  0.00  0.00    +0.034 A 
ATOM      7  C   UNL     1      -4.139  -8.113   1.957  0.00  0.00    +0.049 C 
ATOM      8  C   UNL     1      -4.956  -9.165   1.251  0.00  0.00    -0.023 C 
ATOM      9  C   UNL     1      -4.782 -10.331   1.821  0.00  0.00    -0.030 C 
ATOM     10  C   UNL     1      -3.820 -10.226   2.984  0.00  0.00    +0.033 C 
ATOM     11  C   UNL     1      -3.079  -8.893   2.732  0.00  0.00    +0.029 C 
ATOM     12  C   UNL     1      -1.831  -9.191   1.927  0.00  0.00    +0.105 C 
ATOM     13  N   UNL     1      -1.399  -8.092   1.088  0.00  0.00    -0.336 N 
ATOM     14  H   UNL     1      -0.469  -8.057   0.816  0.00  0.00    +0.147 HD
ENDROOT
BRANCH  12  15
ATOM     15  C   UNL     1      -2.090 -10.407   1.074  0.00  0.00    -0.026 A 
ATOM     16  C   UNL     1      -2.791 -10.283  -0.111  0.00  0.00    +0.007 A 
ATOM     17  C   UNL     1      -3.030 -11.397  -0.893  0.00  0.00    +0.022 A 
ATOM     18  C   UNL     1      -2.567 -12.637  -0.491  0.00  0.00    +0.059 A 
ATOM     19  C   UNL     1      -1.865 -12.761   0.695  0.00  0.00    +0.060 A 
ATOM     20  C   UNL     1      -1.622 -11.644   1.475  0.00  0.00    +0.027 A 
ATOM     21 CL   UNL     1      -1.283 -14.316   1.202  0.00  0.00    -0.082 Cl
ATOM     22 CL   UNL     1      -2.868 -14.036  -1.473  0.00  0.00    -0.082 Cl
ENDBRANCH  12  15
BRANCH   1  23
ATOM     23  S   UNL     1      -5.039  -3.899  -0.955  0.00  0.00    +0.072 S 
ATOM     24  O   UNL     1      -6.361  -4.389  -0.776  0.00  0.00    -0.150 OA
ATOM     25  O   UNL     1      -4.535  -3.515  -2.227  0.00  0.00    -0.150 OA
BRANCH  23  26
ATOM     26  N   UNL     1      -4.886  -2.579   0.033  0.00  0.00    -0.216 N 
ATOM     27  H   UNL     1      -4.567  -1.737  -0.328  0.00  0.00    +0.174 HD
BRANCH  26  31
ATOM     28  C   UNL     1      -5.871  -2.874   4.072  0.00  0.00    +0.120 A 
ATOM     29  C   UNL     1      -4.689  -2.257   3.691  0.00  0.00    +0.047 A 
ATOM     30  C   UNL     1      -4.362  -2.159   2.352  0.00  0.00    +0.028 A 
ATOM     31  C   UNL     1      -5.216  -2.679   1.389  0.00  0.00    +0.048 A 
ATOM     32  C   UNL     1      -6.399  -3.296   1.772  0.00  0.00    +0.028 A 
ATOM     33  C   UNL     1      -6.722  -3.399   3.111  0.00  0.00    +0.047 A 
BRANCH  28  35
ATOM     34  C   UNL     1      -5.269  -2.409   6.326  0.00  0.00    +0.277 C 
ATOM     35  O   UNL     1      -6.192  -2.970   5.391  0.00  0.00    -0.495 OA
ENDBRANCH  28  35
ENDBRANCH  26  31
ENDBRANCH  23  26
ENDBRANCH   1  23
TORSDOF 5
