REMARK  Name = ZINC08746077
REMARK  9 active torsions:
REMARK  status: ('A' for Active; 'I' for Inactive)
REMARK    1  A    between atoms: C_1  and  C_2
REMARK    2  A    between atoms: C_2  and  C_25
REMARK    3  A    between atoms: N_5  and  N_9
REMARK    4  A    between atoms: C_10  and  C_12
REMARK    5  A    between atoms: C_12  and  N_62
REMARK    6  A    between atoms: C_13  and  N_62
REMARK    7  A    between atoms: C_14  and  N_62
REMARK    8  A    between atoms: C_25  and  C_26
REMARK    9  A    between atoms: C_26  and  C_27
REMARK                            x       y       z     vdW  Elec       q    Type
REMARK                         _______ _______ _______ _____ _____    ______ ____
ROOT
ATOM      1  N   UNL     1       0.026   0.863  -0.281  0.00  0.00    -0.225 N 
ATOM      2  C   UNL     1       1.158   1.582  -0.142  0.00  0.00    +0.213 C 
ATOM      3  O   UNL     1       1.097   2.781   0.030  0.00  0.00    -0.276 OA
ATOM      4  H   UNL     1       0.075  -0.096  -0.419  0.00  0.00    +0.173 HD
ENDROOT
BRANCH   1   9
ATOM      5  C   UNL     1      -4.477   1.623  -1.095  0.00  0.00    +0.041 C 
ATOM      6  C   UNL     1      -3.225   2.446  -0.789  0.00  0.00    +0.112 C 
ATOM      7  C   UNL     1      -1.986   1.749  -1.315  0.00  0.00    +0.263 C 
ATOM      8  O   UNL     1      -1.736   1.471  -2.468  0.00  0.00    -0.271 OA
ATOM      9  N   UNL     1      -1.220   1.502  -0.234  0.00  0.00    -0.137 N 
ATOM     10  C   UNL     1      -1.798   1.938   0.891  0.00  0.00    +0.326 C 
ATOM     11  O   UNL     1      -1.301   1.825   1.994  0.00  0.00    -0.251 OA
ATOM     12  N   UNL     1      -2.990   2.519   0.664  0.00  0.00    -0.284 N 
ATOM     13  H   UNL     1      -3.582   2.906   1.327  0.00  0.00    +0.151 HD
BRANCH   6  14
ATOM     14  C   UNL     1      -3.346   3.850  -1.385  0.00  0.00    +0.040 C 
BRANCH  14  15
ATOM     15  C   UNL     1      -4.532   4.575  -0.745  0.00  0.00    +0.038 C 
BRANCH  15  16
ATOM     16  C   UNL     1      -4.651   5.958  -1.332  0.00  0.00    -0.047 A 
ATOM     17  C   UNL     1      -3.989   7.019  -0.743  0.00  0.00    +0.003 A 
ATOM     18  C   UNL     1      -4.095   8.286  -1.285  0.00  0.00    +0.000 A 
ATOM     19  C   UNL     1      -4.872   8.495  -2.409  0.00  0.00    +0.000 A 
ATOM     20  C   UNL     1      -5.539   7.435  -2.995  0.00  0.00    +0.000 A 
ATOM     21  C   UNL     1      -5.428   6.166  -2.456  0.00  0.00    +0.003 A 
ENDBRANCH  15  16
ENDBRANCH  14  15
ENDBRANCH   6  14
ENDBRANCH   1   9
BRANCH   2  22
ATOM     22  C   UNL     1       2.498   0.896  -0.199  0.00  0.00    +0.021 C 
BRANCH  22  24
ATOM     23  C   UNL     1       3.706   2.731  -1.218  0.00  0.00    -0.095 C 
ATOM     24  N   UNL     1       3.558   1.907   0.000  0.00  0.00    +0.388 N 
ATOM     25  H   UNL     1       3.295   2.515   0.784  0.00  0.00    -0.081 HD
BRANCH  24  26
ATOM     26  C   UNL     1       4.839   1.240   0.318  0.00  0.00    -0.037 C 
ATOM     27  C   UNL     1       5.150   0.168  -0.724  0.00  0.00    -0.010 C 
ATOM     28  C   UNL     1       6.359  -0.641  -0.240  0.00  0.00    +0.003 C 
ATOM     29  C   UNL     1       5.928  -1.478   0.963  0.00  0.00    +0.035 C 
ATOM     30  C   UNL     1       5.241  -0.615   1.989  0.00  0.00    -0.046 A 
ATOM     31  C   UNL     1       4.734   0.630   1.691  0.00  0.00    -0.058 A 
ATOM     32  C   UNL     1       4.100   1.369   2.680  0.00  0.00    +0.002 A 
ATOM     33  C   UNL     1       3.977   0.868   3.960  0.00  0.00    +0.000 A 
ATOM     34  C   UNL     1       4.490  -0.380   4.261  0.00  0.00    +0.000 A 
ATOM     35  C   UNL     1       5.119  -1.117   3.278  0.00  0.00    +0.004 A 
ENDBRANCH  24  26
ENDBRANCH  22  24
ENDBRANCH   2  22
TORSDOF 7
