REMARK  Name = ZINC10800546
REMARK  7 active torsions:
REMARK  status: ('A' for Active; 'I' for Inactive)
REMARK    1  A    between atoms: C_4  and  C_7
REMARK    2  A    between atoms: C_7  and  C_9
REMARK    3  A    between atoms: C_7  and  O_22
REMARK    4  A    between atoms: N_11  and  C_12
REMARK    5  A    between atoms: C_15  and  N_19
REMARK    6  A    between atoms: O_22  and  C_23
REMARK    7  A    between atoms: C_23  and  C_25
REMARK                            x       y       z     vdW  Elec       q    Type
REMARK                         _______ _______ _______ _____ _____    ______ ____
ROOT
ATOM      1  C   UNL     1      -4.853   1.813   0.016  0.00  0.00    +0.292 C 
ENDROOT
BRANCH   1   5
ATOM      2  C   UNL     1      -6.220   1.342  -4.004  0.00  0.00    +0.000 A 
ATOM      3  C   UNL     1      -6.608   0.440  -3.032  0.00  0.00    +0.000 A 
ATOM      4  C   UNL     1      -6.166   0.592  -1.731  0.00  0.00    +0.008 A 
ATOM      5  C   UNL     1      -5.335   1.647  -1.402  0.00  0.00    +0.002 A 
ATOM      6  C   UNL     1      -4.951   2.553  -2.374  0.00  0.00    +0.008 A 
ATOM      7  C   UNL     1      -5.389   2.397  -3.675  0.00  0.00    +0.000 A 
ENDBRANCH   1   5
BRANCH   1   8
ATOM      8  C   UNL     1      -5.760   2.770   0.746  0.00  0.00    +0.263 C 
ATOM      9  O   UNL     1      -5.331   3.836   1.134  0.00  0.00    -0.271 OA
ATOM     10  N   UNL     1      -7.049   2.442   0.966  0.00  0.00    -0.281 N 
ATOM     11  H   UNL     1      -7.409   1.620   0.600  0.00  0.00    +0.155 HD
BRANCH  10  12
ATOM     12  C   UNL     1      -7.866   3.288   1.725  0.00  0.00    +0.052 A 
ATOM     13  C   UNL     1      -7.698   4.665   1.656  0.00  0.00    +0.027 A 
ATOM     14  C   UNL     1      -8.506   5.497   2.405  0.00  0.00    +0.034 A 
ATOM     15  C   UNL     1      -9.483   4.961   3.224  0.00  0.00    +0.128 A 
ATOM     16  C   UNL     1      -9.654   3.591   3.296  0.00  0.00    +0.054 A 
ATOM     17  C   UNL     1      -8.852   2.752   2.544  0.00  0.00    +0.064 A 
ATOM     18 CL   UNL     1      -9.072   1.032   2.630  0.00  0.00    -0.082 Cl
BRANCH  15  19
ATOM     19  N   UNL     1     -10.347   5.856   4.026  0.00  0.00    +0.056 N 
ATOM     20  O   UNL     1     -10.198   7.063   3.964  0.00  0.00    -0.126 OA
ATOM     21  O   UNL     1     -11.208   5.385   4.748  0.00  0.00    -0.126 OA
ENDBRANCH  15  19
ENDBRANCH  10  12
ENDBRANCH   1   8
BRANCH   1  22
ATOM     22  O   UNL     1      -3.521   2.331   0.009  0.00  0.00    -0.441 OA
BRANCH  22  23
ATOM     23  C   UNL     1      -2.515   1.433  -0.011  0.00  0.00    +0.376 C 
ATOM     24  O   UNL     1      -2.763   0.242  -0.022  0.00  0.00    -0.241 OA
BRANCH  23  25
ATOM     25  C   UNL     1      -1.125   1.891  -0.019  0.00  0.00    +0.213 A 
ATOM     26  C   UNL     1      -0.016   1.092  -0.039  0.00  0.00    +0.058 A 
ATOM     27  C   UNL     1       1.096   1.946  -0.046  0.00  0.00    +0.058 A 
ATOM     28  C   UNL     1       0.625   3.214  -0.026  0.00  0.00    +0.171 A 
ATOM     29  O   UNL     1      -0.713   3.176  -0.006  0.00  0.00    -0.442 OA
ATOM     30 BR   UNL     1       1.683   4.782  -0.025  0.00  0.00    -0.008 Br
ENDBRANCH  23  25
ENDBRANCH  22  23
ENDBRANCH   1  22
TORSDOF 7
