REMARK  Name = ZINC15085753
REMARK  12 active torsions:
REMARK  status: ('A' for Active; 'I' for Inactive)
REMARK    1  A    between atoms: C_1  and  C_2
REMARK    2  A    between atoms: C_3  and  C_12
REMARK    3  A    between atoms: C_12  and  C_13
REMARK    4  A    between atoms: C_13  and  N_61
REMARK    5  A    between atoms: C_14  and  C_15
REMARK    6  A    between atoms: C_14  and  N_61
REMARK    7  A    between atoms: C_18  and  C_21
REMARK    8  A    between atoms: C_21  and  C_22
REMARK    9  A    between atoms: C_24  and  O_33
REMARK   10  A    between atoms: C_27  and  O_28
REMARK   11  A    between atoms: O_28  and  C_29
REMARK   12  A    between atoms: O_33  and  C_34
REMARK                            x       y       z     vdW  Elec       q    Type
REMARK                         _______ _______ _______ _____ _____    ______ ____
ROOT
ATOM      1  C   UNL     1       4.354   8.845   2.782  0.00  0.00    +0.044 C 
ATOM      2  N   UNL     1       4.577   9.530   1.728  0.00  0.00    -0.096 NA
ATOM      3  O   UNL     1       5.022  10.844   2.002  0.00  0.00    -0.390 OA
ATOM      4  C   UNL     1       5.476  10.871   3.371  0.00  0.00    +0.214 C 
ATOM      5  C   UNL     1       4.658   9.710   3.990  0.00  0.00    +0.099 C 
ENDROOT
BRANCH   1   6
ATOM      6  C   UNL     1       3.866   7.420   2.819  0.00  0.00    -0.027 C 
BRANCH   6   7
ATOM      7  N   UNL     1       3.685   6.935   1.438  0.00  0.00    +0.383 N 
ATOM      8  H   UNL     1       2.996   7.527   0.959  0.00  0.00    -0.085 HD
ATOM      9  H   UNL     1       4.582   6.984   0.941  0.00  0.00    -0.085 HD
BRANCH   7  10
ATOM     10  C   UNL     1       3.207   5.539   1.444  0.00  0.00    -0.077 C 
BRANCH  10  11
ATOM     11  C   UNL     1       3.028   5.065   0.000  0.00  0.00    +0.018 C 
BRANCH  11  14
ATOM     12  C   UNL     1       4.808   2.522  -0.030  0.00  0.00    +0.063 C 
ATOM     13  C   UNL     1       3.301   2.534  -0.016  0.00  0.00    +0.017 A 
ATOM     14  C   UNL     1       2.539   3.639  -0.003  0.00  0.00    -0.021 A 
ATOM     15  C   UNL     1       1.143   3.196   0.008  0.00  0.00    +0.003 A 
ATOM     16  C   UNL     1      -0.085   3.860   0.023  0.00  0.00    +0.010 A 
ATOM     17  C   UNL     1      -1.246   3.139   0.030  0.00  0.00    +0.001 A 
ATOM     18  C   UNL     1      -1.213   1.751   0.017  0.00  0.00    +0.002 A 
ATOM     19  C   UNL     1      -0.013   1.076   0.008  0.00  0.00    +0.026 A 
ATOM     20  C   UNL     1       1.181   1.790   0.000  0.00  0.00    +0.047 A 
ATOM     21  N   UNL     1       2.507   1.420  -0.014  0.00  0.00    -0.358 N 
ATOM     22  H   UNL     1       2.830   0.505  -0.021  0.00  0.00    +0.166 HD
ENDBRANCH  11  14
ENDBRANCH  10  11
ENDBRANCH   7  10
ENDBRANCH   6   7
ENDBRANCH   1   6
BRANCH   4  23
ATOM     23  C   UNL     1       5.125  12.202   4.039  0.00  0.00    +0.086 C 
BRANCH  23  24
ATOM     24  C   UNL     1       5.909  13.313   3.389  0.00  0.00    +0.005 A 
ATOM     25  C   UNL     1       7.103  13.733   3.945  0.00  0.00    +0.057 A 
ATOM     26  C   UNL     1       7.829  14.749   3.347  0.00  0.00    +0.166 A 
ATOM     27  C   UNL     1       7.352  15.359   2.191  0.00  0.00    +0.211 A 
ATOM     28  C   UNL     1       6.149  14.941   1.636  0.00  0.00    +0.211 A 
ATOM     29  C   UNL     1       5.428  13.915   2.237  0.00  0.00    +0.169 A 
ATOM     30  O   UNL     1       5.901  15.686   0.518  0.00  0.00    -0.449 OA
ATOM     31  C   UNL     1       7.163  16.284   0.167  0.00  0.00    +0.467 C 
ATOM     32  O   UNL     1       7.862  16.367   1.423  0.00  0.00    -0.449 OA
BRANCH  29  33
ATOM     33  O   UNL     1       4.250  13.504   1.695  0.00  0.00    -0.491 OA
ATOM     34  C   UNL     1       3.064  14.162   2.145  0.00  0.00    +0.277 C 
ENDBRANCH  29  33
BRANCH  26  35
ATOM     35  O   UNL     1       9.007  15.157   3.893  0.00  0.00    -0.491 OA
ATOM     36  C   UNL     1       9.437  14.487   5.080  0.00  0.00    +0.277 C 
ENDBRANCH  26  35
ENDBRANCH  23  24
ENDBRANCH   4  23
TORSDOF 9
