REMARK  Name = ZINC22325221
REMARK  12 active torsions:
REMARK  status: ('A' for Active; 'I' for Inactive)
REMARK    1  A    between atoms: C_1  and  C_2
REMARK    2  A    between atoms: C_5  and  C_33
REMARK    3  A    between atoms: N_8  and  C_10
REMARK    4  A    between atoms: C_10  and  C_11
REMARK    5  A    between atoms: N_16  and  C_17
REMARK    6  A    between atoms: C_17  and  C_19
REMARK    7  A    between atoms: C_22  and  N_28
REMARK    8  A    between atoms: C_23  and  N_25
REMARK    9  A    between atoms: N_28  and  C_29
REMARK   10  A    between atoms: C_29  and  C_30
REMARK   11  A    between atoms: C_30  and  O_31
REMARK   12  A    between atoms: O_31  and  C_32
REMARK                            x       y       z     vdW  Elec       q    Type
REMARK                         _______ _______ _______ _____ _____    ______ ____
ROOT
ATOM      1  C   UNL     1       2.974  -2.201   2.267  0.00  0.00    +0.008 A 
ATOM      2  C   UNL     1       3.424  -1.146   2.955  0.00  0.00    +0.067 A 
ATOM      3  S   UNL     1       5.044  -0.907   2.248  0.00  0.00    -0.061 S 
ATOM      4  C   UNL     1       5.023  -2.165   1.133  0.00  0.00    +0.163 A 
ATOM      5  N   UNL     1       3.801  -2.732   1.327  0.00  0.00    -0.341 N 
ATOM      6  N   UNL     1       5.974  -2.523   0.272  0.00  0.00    -0.152 NA
ATOM      7  H   UNL     1       3.524  -3.500   0.803  0.00  0.00    +0.167 HD
ENDROOT
BRANCH   6   8
ATOM      8  C   UNL     1       7.124  -1.845   0.227  0.00  0.00    +0.270 C 
ATOM      9  O   UNL     1       7.303  -0.898   0.974  0.00  0.00    -0.268 OA
BRANCH   8  10
ATOM     10  C   UNL     1       8.180  -2.242  -0.730  0.00  0.00    +0.041 A 
ATOM     11  C   UNL     1       7.973  -3.323  -1.590  0.00  0.00    +0.015 A 
ATOM     12  C   UNL     1       8.958  -3.691  -2.479  0.00  0.00    +0.026 A 
ATOM     13  C   UNL     1      10.158  -2.987  -2.521  0.00  0.00    +0.058 A 
ATOM     14  C   UNL     1      10.366  -1.910  -1.665  0.00  0.00    +0.148 A 
ATOM     15  C   UNL     1       9.382  -1.534  -0.778  0.00  0.00    +0.047 A 
BRANCH  14  16
ATOM     16  N   UNL     1      11.644  -1.164  -1.712  0.00  0.00    +0.058 N 
ATOM     17  O   UNL     1      12.139  -0.750  -0.690  0.00  0.00    -0.126 OA
ATOM     18  O   UNL     1      12.191  -0.969  -2.772  0.00  0.00    -0.126 OA
ENDBRANCH  14  16
BRANCH  13  19
ATOM     19  N   UNL     1      11.152  -3.361  -3.421  0.00  0.00    -0.340 N 
ATOM     20  H   UNL     1      12.020  -2.928  -3.393  0.00  0.00    +0.146 HD
BRANCH  19  21
ATOM     21  C   UNL     1      10.888  -4.410  -4.409  0.00  0.00    +0.129 C 
BRANCH  21  22
ATOM     22  C   UNL     1      12.136  -4.627  -5.268  0.00  0.00    +0.178 C 
BRANCH  22  23
ATOM     23  O   UNL     1      13.193  -5.135  -4.451  0.00  0.00    -0.381 OA
ATOM     24  C   UNL     1      14.411  -5.374  -5.160  0.00  0.00    +0.194 C 
ENDBRANCH  22  23
ENDBRANCH  21  22
ENDBRANCH  19  21
ENDBRANCH  13  19
ENDBRANCH   8  10
ENDBRANCH   6   8
BRANCH   1  25
ATOM     25  C   UNL     1       1.607  -2.780   2.526  0.00  0.00    -0.024 C 
BRANCH  25  31
ATOM     26  C   UNL     1      -0.478   0.509  -0.442  0.00  0.00    +0.005 C 
ATOM     27  C   UNL     1      -0.254  -0.985  -0.195  0.00  0.00    -0.031 C 
ATOM     28  C   UNL     1      -1.606  -1.688  -0.052  0.00  0.00    +0.003 C 
ATOM     29  C   UNL     1      -1.370  -3.166   0.273  0.00  0.00    -0.031 C 
ATOM     30  C   UNL     1      -0.522  -3.275   1.542  0.00  0.00    -0.075 C 
ATOM     31  N   UNL     1       0.767  -2.606   1.333  0.00  0.00    +0.384 N 
ATOM     32  C   UNL     1       0.553  -1.174   1.091  0.00  0.00    -0.075 C 
ATOM     33  C   UNL     1      -2.714  -3.862   0.493  0.00  0.00    +0.005 C 
ATOM     34  H   UNL     1       1.231  -3.014   0.535  0.00  0.00    -0.081 HD
ENDBRANCH  25  31
ENDBRANCH   1  25
TORSDOF 9
