REMARK  Name = ZINC53777888
REMARK  6 active torsions:
REMARK  status: ('A' for Active; 'I' for Inactive)
REMARK    1  A    between atoms: C_1  and  C_2
REMARK    2  A    between atoms: C_3  and  C_28
REMARK    3  A    between atoms: C_7  and  N_27
REMARK    4  A    between atoms: C_9  and  S_11
REMARK    5  A    between atoms: S_11  and  C_12
REMARK    6  A    between atoms: C_12  and  C_13
REMARK                            x       y       z     vdW  Elec       q    Type
REMARK                         _______ _______ _______ _____ _____    ______ ____
ROOT
ATOM      1  C   UNL     1      -1.287   1.427   0.444  0.00  0.00    +0.045 C 
ATOM      2  C   UNL     1      -1.146  -0.073   0.394  0.00  0.00    -0.028 A 
ATOM      3  C   UNL     1      -1.693  -0.773  -0.610  0.00  0.00    -0.008 A 
ATOM      4  S   UNL     1      -1.260  -2.459  -0.227  0.00  0.00    -0.073 S 
ATOM      5  C   UNL     1      -0.356  -2.179   1.272  0.00  0.00    +0.115 A 
ATOM      6  C   UNL     1      -0.410  -0.777   1.431  0.00  0.00    +0.050 A 
ATOM      7  C   UNL     1       0.255  -0.264   2.579  0.00  0.00    +0.129 A 
ATOM      8  N   UNL     1       0.869  -1.101   3.400  0.00  0.00    -0.207 NA
ATOM      9  C   UNL     1       0.886  -2.411   3.188  0.00  0.00    +0.191 A 
ATOM     10  N   UNL     1       0.274  -2.947   2.139  0.00  0.00    -0.214 NA
ATOM     11  C   UNL     1      -2.486  -0.257  -1.783  0.00  0.00    +0.052 C 
ENDROOT
BRANCH   7  12
ATOM     12  N   UNL     1       0.261   1.095   2.835  0.00  0.00    -0.343 N 
ATOM     13  H   UNL     1       0.109   1.725   2.113  0.00  0.00    +0.144 HD
ATOM     14  H   UNL     1       0.416   1.418   3.736  0.00  0.00    +0.144 HD
ENDBRANCH   7  12
BRANCH   9  15
ATOM     15  S   UNL     1       1.725  -3.460   4.328  0.00  0.00    -0.077 S 
BRANCH  15  16
ATOM     16  C   UNL     1       2.381  -2.318   5.575  0.00  0.00    +0.173 C 
BRANCH  16  17
ATOM     17  C   UNL     1       3.132  -3.096   6.624  0.00  0.00    +0.226 C 
ATOM     18  O   UNL     1       3.217  -4.303   6.538  0.00  0.00    -0.275 OA
ATOM     19  N   UNL     1       3.710  -2.451   7.657  0.00  0.00    -0.293 N 
ATOM     20  C   UNL     1       3.618  -0.989   7.789  0.00  0.00    +0.136 C 
ATOM     21  C   UNL     1       3.134  -0.654   9.204  0.00  0.00    +0.179 C 
ATOM     22  O   UNL     1       3.954  -1.333  10.160  0.00  0.00    -0.373 OA
ATOM     23  C   UNL     1       3.906  -2.756  10.058  0.00  0.00    +0.139 C 
ATOM     24  C   UNL     1       4.451  -3.187   8.698  0.00  0.00    +0.105 C 
ATOM     25  C   UNL     1       5.930  -2.804   8.597  0.00  0.00    +0.025 C 
ATOM     26  C   UNL     1       6.717  -3.475   9.723  0.00  0.00    +0.002 C 
ATOM     27  C   UNL     1       6.173  -3.001  11.073  0.00  0.00    +0.003 C 
ATOM     28  C   UNL     1       4.722  -3.399  11.174  0.00  0.00    +0.033 C 
ENDBRANCH  16  17
ENDBRANCH  15  16
ENDBRANCH   9  15
TORSDOF 4
