REMARK  Name = ZINC09315540
REMARK  11 active torsions:
REMARK  status: ('A' for Active; 'I' for Inactive)
REMARK    1  A    between atoms: C_1  and  C_2
REMARK    2  A    between atoms: C_6  and  C_8
REMARK    3  A    between atoms: C_8  and  C_10
REMARK    4  A    between atoms: C_8  and  N_69
REMARK    5  A    between atoms: C_11  and  N_23
REMARK    6  A    between atoms: N_12  and  C_19
REMARK    7  A    between atoms: N_15  and  C_18
REMARK    8  A    between atoms: C_19  and  C_20
REMARK    9  A    between atoms: C_20  and  C_21
REMARK   10  A    between atoms: C_20  and  C_22
REMARK   11  A    between atoms: N_26  and  C_29
REMARK                            x       y       z     vdW  Elec       q    Type
REMARK                         _______ _______ _______ _____ _____    ______ ____
ROOT
ATOM      1  C   UNL     1       2.575   3.943  -0.046  0.00  0.00    +0.002 C 
ENDROOT
BRANCH   1   2
ATOM      2  C   UNL     1       3.080   3.977   1.373  0.00  0.00    +0.046 A 
ATOM      3  C   UNL     1       3.229   5.168   2.027  0.00  0.00    +0.107 A 
ATOM      4  N   UNL     1       3.691   5.174   3.321  0.00  0.00    -0.281 N 
ATOM      5  C   UNL     1       3.993   4.018   3.941  0.00  0.00    +0.333 A 
ATOM      6  O   UNL     1       4.401   4.041   5.086  0.00  0.00    -0.246 OA
ATOM      7  N   UNL     1       3.852   2.837   3.311  0.00  0.00    -0.264 N 
ATOM      8  C   UNL     1       3.398   2.786   2.044  0.00  0.00    +0.260 A 
ATOM      9  O   UNL     1       3.268   1.712   1.482  0.00  0.00    -0.267 OA
ATOM     10  C   UNL     1       4.190   1.596   4.012  0.00  0.00    +0.157 C 
BRANCH   3  11
ATOM     11  N   UNL     1       2.920   6.347   1.398  0.00  0.00    -0.344 N 
ATOM     12  H   UNL     1       2.486   6.335   0.531  0.00  0.00    +0.144 HD
ATOM     13  H   UNL     1       3.136   7.193   1.821  0.00  0.00    +0.144 HD
ENDBRANCH   3  11
BRANCH   4  14
ATOM     14  C   UNL     1       3.854   6.445   4.031  0.00  0.00    +0.131 C 
BRANCH  14  15
ATOM     15  C   UNL     1       2.555   6.791   4.762  0.00  0.00    +0.003 C 
ATOM     16  C   UNL     1       2.764   8.052   5.603  0.00  0.00    +0.009 C 
ATOM     17  C   UNL     1       1.445   7.038   3.740  0.00  0.00    +0.009 C 
ENDBRANCH  14  15
ENDBRANCH   4  14
ENDBRANCH   1   2
BRANCH   1  23
ATOM     18  C   UNL     1      -2.393   4.510  -0.260  0.00  0.00    +0.044 C 
ATOM     19  C   UNL     1      -1.184   3.614  -0.176  0.00  0.00    -0.050 A 
ATOM     20  C   UNL     1      -1.342   2.241  -0.128  0.00  0.00    +0.003 A 
ATOM     21  C   UNL     1      -0.234   1.420  -0.045  0.00  0.00    +0.000 A 
ATOM     22  C   UNL     1       1.034   1.971  -0.021  0.00  0.00    +0.002 A 
ATOM     23  C   UNL     1       1.193   3.343  -0.074  0.00  0.00    -0.056 A 
ATOM     24  C   UNL     1       0.083   4.165  -0.151  0.00  0.00    +0.005 A 
ENDBRANCH   1  23
BRANCH   1  30
ATOM     25  C   UNL     1       4.857   3.633  -0.794  0.00  0.00    -0.058 C 
ATOM     26  C   UNL     1       5.779   2.713  -1.597  0.00  0.00    +0.086 C 
ATOM     27  N   UNL     1       5.317   2.657  -2.991  0.00  0.00    -0.331 N 
ATOM     28  C   UNL     1       3.938   2.153  -3.066  0.00  0.00    +0.086 C 
ATOM     29  C   UNL     1       3.017   3.073  -2.263  0.00  0.00    -0.058 C 
ATOM     30  N   UNL     1       3.479   3.102  -0.859  0.00  0.00    +0.389 N 
ATOM     31  H   UNL     1       3.472   2.146  -0.485  0.00  0.00    -0.080 HD
BRANCH  27  32
ATOM     32  C   UNL     1       6.178   1.881  -3.774  0.00  0.00    +0.065 A 
ATOM     33  C   UNL     1       5.959   1.762  -5.140  0.00  0.00    +0.026 A 
ATOM     34  C   UNL     1       6.813   0.998  -5.911  0.00  0.00    +0.002 A 
ATOM     35  C   UNL     1       7.881   0.344  -5.324  0.00  0.00    +0.003 A 
ATOM     36  C   UNL     1       8.100   0.456  -3.963  0.00  0.00    +0.040 A 
ATOM     37  C   UNL     1       7.252   1.222  -3.185  0.00  0.00    +0.144 A 
ATOM     38  F   UNL     1       7.466   1.331  -1.856  0.00  0.00    -0.204 F 
ENDBRANCH  27  32
ENDBRANCH   1  30
TORSDOF 7
