REMARK  Name = ZINC12181754
REMARK  5 active torsions:
REMARK  status: ('A' for Active; 'I' for Inactive)
REMARK    1  A    between atoms: C_5  and  C_7
REMARK    2  A    between atoms: C_7  and  N_8
REMARK    3  A    between atoms: C_9  and  C_11
REMARK    4  A    between atoms: C_14  and  N_27
REMARK    5  A    between atoms: C_17  and  N_60
REMARK                            x       y       z     vdW  Elec       q    Type
REMARK                         _______ _______ _______ _____ _____    ______ ____
ROOT
ATOM      1  C   UNL     1       2.218   1.356   0.069  0.00  0.00    +0.022 C 
ATOM      2  C   UNL     1       2.346   0.535   1.377  0.00  0.00    +0.019 C 
ATOM      3  C   UNL     1       3.742  -0.116   1.242  0.00  0.00    +0.093 C 
ATOM      4  C   UNL     1       4.503   0.770   0.238  0.00  0.00    -0.050 C 
ATOM      5  N   UNL     1       3.584   1.856  -0.123  0.00  0.00    +0.391 N 
ATOM      6  H   UNL     1       3.746   2.665   0.487  0.00  0.00    -0.080 HD
ENDROOT
BRANCH   5   7
ATOM      7  C   UNL     1       3.799   2.263  -1.545  0.00  0.00    -0.061 C 
ATOM      8  C   UNL     1       5.294   2.457  -1.807  0.00  0.00    -0.024 C 
ATOM      9  C   UNL     1       5.836   3.553  -0.887  0.00  0.00    +0.005 C 
ATOM     10  C   UNL     1       5.096   4.863  -1.165  0.00  0.00    -0.010 C 
ATOM     11  C   UNL     1       5.309   5.270  -2.625  0.00  0.00    +0.007 C 
ATOM     12  C   UNL     1       4.768   4.173  -3.544  0.00  0.00    -0.010 C 
ATOM     13  C   UNL     1       5.508   2.863  -3.266  0.00  0.00    +0.005 C 
ATOM     14  C   UNL     1       3.273   3.980  -3.282  0.00  0.00    +0.005 C 
ATOM     15  C   UNL     1       3.059   3.573  -1.823  0.00  0.00    -0.024 C 
ATOM     16  C   UNL     1       3.601   4.670  -0.903  0.00  0.00    +0.005 C 
ENDBRANCH   5   7
BRANCH   3  17
ATOM     17  N   UNL     1       3.620  -1.481   0.725  0.00  0.00    -0.231 N 
ATOM     18  C   UNL     1       2.669  -1.939  -0.110  0.00  0.00    +0.245 A 
ATOM     19  N   UNL     1       2.929  -3.206  -0.318  0.00  0.00    -0.117 NA
ATOM     20  N   UNL     1       3.985  -3.511   0.354  0.00  0.00    -0.023 NA
ATOM     21  N   UNL     1       4.409  -2.470   0.981  0.00  0.00    -0.044 NA
ENDBRANCH   3  17
BRANCH   1  23
ATOM     22  N   UNL     1      -0.033   2.355  -0.160  0.00  0.00    -0.312 N 
ATOM     23  C   UNL     1       1.244   2.492   0.247  0.00  0.00    +0.200 C 
ATOM     24  O   UNL     1       1.611   3.530   0.757  0.00  0.00    -0.278 OA
ATOM     25  H   UNL     1      -0.326   1.525  -0.567  0.00  0.00    +0.149 HD
BRANCH  22  26
ATOM     26  C   UNL     1      -0.978   3.462   0.008  0.00  0.00    +0.141 C 
BRANCH  26  31
ATOM     27  C   UNL     1      -3.959   3.104  -2.280  0.00  0.00    +0.000 A 
ATOM     28  C   UNL     1      -4.801   2.316  -1.517  0.00  0.00    +0.001 A 
ATOM     29  C   UNL     1      -4.406   1.898  -0.261  0.00  0.00    +0.020 A 
ATOM     30  C   UNL     1      -3.168   2.269   0.234  0.00  0.00    +0.046 A 
ATOM     31  C   UNL     1      -2.326   3.058  -0.530  0.00  0.00    -0.012 A 
ATOM     32  C   UNL     1      -2.725   3.479  -1.785  0.00  0.00    +0.006 A 
ATOM     33 CL   UNL     1      -2.671   1.745   1.813  0.00  0.00    -0.083 Cl
ENDBRANCH  26  31
ENDBRANCH  22  26
ENDBRANCH   1  23
TORSDOF 5
