REMARK  Name = ZINC08912079
REMARK  8 active torsions:
REMARK  status: ('A' for Active; 'I' for Inactive)
REMARK    1  A    between atoms: C_1  and  C_2
REMARK    2  A    between atoms: C_9  and  O_19
REMARK    3  A    between atoms: C_21  and  C_22
REMARK    4  A    between atoms: N_24  and  C_25
REMARK    5  A    between atoms: C_25  and  C_26
REMARK    6  A    between atoms: C_26  and  C_27
REMARK    7  A    between atoms: C_30  and  S_33
REMARK    8  A    between atoms: S_33  and  C_34
REMARK                            x       y       z     vdW  Elec       q    Type
REMARK                         _______ _______ _______ _____ _____    ______ ____
ROOT
ATOM      1  C   UNL     1       0.076   1.376   0.027  0.00  0.00    +0.048 C 
ATOM      2  C   UNL     1       0.145  -0.128  -0.051  0.00  0.00    +0.008 A 
ATOM      3  C   UNL     1       0.021  -0.953  -1.252  0.00  0.00    +0.033 A 
ATOM      4  C   UNL     1       0.156  -2.283  -0.818  0.00  0.00    +0.137 A 
ATOM      5  C   UNL     1       0.087  -3.311  -1.750  0.00  0.00    +0.050 A 
ATOM      6  C   UNL     1      -0.103  -3.019  -3.081  0.00  0.00    +0.049 A 
ATOM      7  C   UNL     1      -0.233  -1.699  -3.518  0.00  0.00    +0.128 A 
ATOM      8  C   UNL     1      -0.172  -0.666  -2.609  0.00  0.00    +0.034 A 
ATOM      9  C   UNL     1      -0.319   0.771  -3.040  0.00  0.00    +0.152 C 
ATOM     10  C   UNL     1      -0.074   0.888  -4.546  0.00  0.00    +0.084 C 
ATOM     11  C   UNL     1      -0.897  -0.195  -5.253  0.00  0.00    +0.113 C 
ATOM     12  O   UNL     1      -0.410  -1.474  -4.847  0.00  0.00    -0.485 OA
ATOM     13  C   UNL     1      -2.369  -0.053  -4.865  0.00  0.00    +0.048 C 
ATOM     14  C   UNL     1      -3.190  -1.132  -5.574  0.00  0.00    +0.004 C 
ATOM     15  C   UNL     1      -3.042  -0.973  -7.089  0.00  0.00    +0.000 C 
ATOM     16  C   UNL     1      -1.568  -1.120  -7.474  0.00  0.00    +0.004 C 
ATOM     17  C   UNL     1      -0.746  -0.041  -6.767  0.00  0.00    +0.048 C 
ATOM     18  O   UNL     1       0.333  -2.259   0.518  0.00  0.00    -0.450 OA
ATOM     19  C   UNL     1       0.329  -0.992   0.981  0.00  0.00    +0.193 A 
ENDROOT
BRANCH  19  20
ATOM     20  C   UNL     1       0.498  -0.604   2.389  0.00  0.00    +0.280 C 
ATOM     21  O   UNL     1       0.478   0.571   2.703  0.00  0.00    -0.267 OA
ATOM     22  N   UNL     1       0.674  -1.551   3.332  0.00  0.00    -0.309 N 
ATOM     23  H   UNL     1       0.690  -2.488   3.081  0.00  0.00    +0.149 HD
BRANCH  22  24
ATOM     24  C   UNL     1       0.843  -1.165   4.735  0.00  0.00    +0.109 C 
BRANCH  24  25
ATOM     25  C   UNL     1       1.023  -2.420   5.591  0.00  0.00    +0.054 C 
BRANCH  25  26
ATOM     26  C   UNL     1       1.196  -2.023   7.034  0.00  0.00    -0.046 A 
ATOM     27  C   UNL     1       2.462  -1.784   7.537  0.00  0.00    +0.005 A 
ATOM     28  C   UNL     1       2.624  -1.415   8.858  0.00  0.00    +0.015 A 
ATOM     29  C   UNL     1       1.514  -1.294   9.685  0.00  0.00    +0.008 A 
ATOM     30  C   UNL     1       0.244  -1.540   9.177  0.00  0.00    +0.015 A 
ATOM     31  C   UNL     1       0.089  -1.903   7.854  0.00  0.00    +0.005 A 
BRANCH  29  32
ATOM     32  S   UNL     1       1.716  -0.831  11.373  0.00  0.00    -0.129 S 
ATOM     33  C   UNL     1       3.509  -0.624  11.559  0.00  0.00    +0.090 C 
ENDBRANCH  29  32
ENDBRANCH  25  26
ENDBRANCH  24  25
ENDBRANCH  22  24
ENDBRANCH  19  20
BRANCH   9  34
ATOM     34  O   UNL     1       0.632   1.576  -2.340  0.00  0.00    -0.387 OA
ATOM     35  H   UNL     1       0.582   2.518  -2.552  0.00  0.00    +0.210 HD
ENDBRANCH   9  34
TORSDOF 6
