REMARK  Name = ZINC63896894
REMARK  7 active torsions:
REMARK  status: ('A' for Active; 'I' for Inactive)
REMARK    1  A    between atoms: C_1  and  C_2
REMARK    2  A    between atoms: C_2  and  O_3
REMARK    3  A    between atoms: O_3  and  C_4
REMARK    4  A    between atoms: C_7  and  C_10
REMARK    5  A    between atoms: N_16  and  N_17
REMARK    6  A    between atoms: C_18  and  C_19
REMARK    7  A    between atoms: C_24  and  O_25
REMARK                            x       y       z     vdW  Elec       q    Type
REMARK                         _______ _______ _______ _____ _____    ______ ____
ROOT
ATOM      1  C   UNL     1      -2.017  -6.231   0.064  0.00  0.00    +0.264 C 
ATOM      2  N   UNL     1      -0.922  -6.725  -0.785  0.00  0.00    -0.189 NA
ATOM      3  N   UNL     1      -1.407  -7.106  -1.853  0.00  0.00    -0.219 N 
ATOM      4  C   UNL     1      -2.758  -6.957  -1.917  0.00  0.00    +0.174 C 
ATOM      5  S   UNL     1      -3.730  -7.389  -3.258  0.00  0.00    -0.015 S 
ATOM      6  N   UNL     1      -3.223  -6.421  -0.763  0.00  0.00    -0.172 N 
ATOM      7  H   UNL     1      -0.877  -7.475  -2.578  0.00  0.00    +0.176 HD
ENDROOT
BRANCH   1  11
ATOM      8  C   UNL     1      -1.458  -2.093   0.975  0.00  0.00    +0.121 A 
ATOM      9  C   UNL     1      -0.359  -2.927   0.829  0.00  0.00    +0.046 A 
ATOM     10  C   UNL     1      -0.542  -4.264   0.535  0.00  0.00    +0.011 A 
ATOM     11  C   UNL     1      -1.820  -4.772   0.386  0.00  0.00    -0.002 A 
ATOM     12  C   UNL     1      -2.917  -3.943   0.530  0.00  0.00    +0.011 A 
ATOM     13  C   UNL     1      -2.739  -2.606   0.831  0.00  0.00    +0.046 A 
BRANCH   8  14
ATOM     14  O   UNL     1      -1.281  -0.777   1.265  0.00  0.00    -0.492 OA
BRANCH  14  16
ATOM     15  C   UNL     1       0.066   1.176   1.724  0.00  0.00    +0.048 C 
ATOM     16  C   UNL     1       0.066  -0.319   1.399  0.00  0.00    +0.225 C 
ENDBRANCH  14  16
ENDBRANCH   8  14
ENDBRANCH   1  11
BRANCH   6  17
ATOM     17  N   UNL     1      -4.548  -6.113  -0.430  0.00  0.00    -0.183 NA
ATOM     18  C   UNL     1      -5.514  -6.446  -1.233  0.00  0.00    +0.142 C 
BRANCH  18  19
ATOM     19  C   UNL     1      -6.886  -5.982  -0.967  0.00  0.00    +0.037 A 
ATOM     20  C   UNL     1      -7.929  -6.342  -1.824  0.00  0.00    +0.028 A 
ATOM     21  C   UNL     1      -9.212  -5.905  -1.569  0.00  0.00    +0.019 A 
ATOM     22  C   UNL     1      -9.471  -5.109  -0.464  0.00  0.00    +0.019 A 
ATOM     23  C   UNL     1      -8.448  -4.747   0.391  0.00  0.00    +0.047 A 
ATOM     24  C   UNL     1      -7.155  -5.181   0.152  0.00  0.00    +0.126 A 
ATOM     25 BR   UNL     1     -10.622  -6.392  -2.730  0.00  0.00    -0.050 Br
BRANCH  24  26
ATOM     26  O   UNL     1      -6.151  -4.830   0.996  0.00  0.00    -0.506 OA
ATOM     27  H   UNL     1      -5.709  -4.003   0.758  0.00  0.00    +0.292 HD
ENDBRANCH  24  26
ENDBRANCH  18  19
ENDBRANCH   6  17
TORSDOF 6
