REMARK  Name = ZINC63775619
REMARK  9 active torsions:
REMARK  status: ('A' for Active; 'I' for Inactive)
REMARK    1  A    between atoms: C_1  and  C_2
REMARK    2  A    between atoms: C_2  and  C_3
REMARK    3  A    between atoms: C_2  and  C_4
REMARK    4  A    between atoms: C_7  and  S_10
REMARK    5  A    between atoms: S_10  and  C_13
REMARK    6  A    between atoms: C_16  and  N_19
REMARK    7  A    between atoms: N_19  and  N_20
REMARK    8  A    between atoms: C_21  and  C_23
REMARK    9  A    between atoms: C_23  and  C_24
REMARK                            x       y       z     vdW  Elec       q    Type
REMARK                         _______ _______ _______ _____ _____    ______ ____
ROOT
ATOM      1  C   UNL     1       4.028  -0.735  -5.390  0.00  0.00    +0.094 A 
ATOM      2  C   UNL     1       3.686   0.306  -6.234  0.00  0.00    +0.029 A 
ATOM      3  C   UNL     1       4.625   1.260  -6.571  0.00  0.00    +0.026 A 
ATOM      4  C   UNL     1       5.915   1.174  -6.060  0.00  0.00    +0.045 A 
ATOM      5  C   UNL     1       6.254   0.128  -5.212  0.00  0.00    +0.026 A 
ATOM      6  C   UNL     1       5.309  -0.821  -4.876  0.00  0.00    +0.029 A 
ENDROOT
BRANCH   1   7
ATOM      7  S   UNL     1       2.826  -1.950  -4.962  0.00  0.00    +0.025 S 
ATOM      8  O   UNL     1       3.544  -3.118  -4.589  0.00  0.00    -0.164 OA
ATOM      9  O   UNL     1       1.860  -1.951  -6.005  0.00  0.00    -0.164 OA
BRANCH   7  13
ATOM     10  C   UNL     1       0.707  -0.490  -1.238  0.00  0.00    -0.045 A 
ATOM     11  C   UNL     1       0.222  -0.151  -2.487  0.00  0.00    +0.006 A 
ATOM     12  C   UNL     1       0.869  -0.597  -3.624  0.00  0.00    +0.027 A 
ATOM     13  C   UNL     1       2.002  -1.381  -3.513  0.00  0.00    +0.094 A 
ATOM     14  C   UNL     1       2.488  -1.720  -2.263  0.00  0.00    +0.027 A 
ATOM     15  C   UNL     1       1.843  -1.270  -1.126  0.00  0.00    +0.006 A 
BRANCH  10  17
ATOM     16  C   UNL     1      -0.019   1.526   0.010  0.00  0.00    +0.012 C 
ATOM     17  C   UNL     1       0.002  -0.004   0.002  0.00  0.00    +0.013 C 
ATOM     18  C   UNL     1      -1.433  -0.534   0.013  0.00  0.00    +0.012 C 
ENDBRANCH  10  17
ENDBRANCH   7  13
ENDBRANCH   1   7
BRANCH   4  19
ATOM     19  N   UNL     1       6.867   2.138  -6.399  0.00  0.00    -0.264 N 
ATOM     20  H   UNL     1       6.629   2.868  -6.992  0.00  0.00    +0.170 HD
BRANCH  19  21
ATOM     21  N   UNL     1       8.167   2.050  -5.884  0.00  0.00    -0.236 N 
ATOM     22  C   UNL     1       9.086   2.979  -6.211  0.00  0.00    +0.233 C 
ATOM     23  O   UNL     1       8.789   3.892  -6.952  0.00  0.00    -0.274 OA
ATOM     24  H   UNL     1       8.405   1.319  -5.292  0.00  0.00    +0.173 HD
BRANCH  22  25
ATOM     25  C   UNL     1      10.485   2.884  -5.657  0.00  0.00    +0.130 C 
BRANCH  25  26
ATOM     26  C   UNL     1      11.309   4.036  -6.172  0.00  0.00    -0.033 C 
ATOM     27  C   UNL     1      11.536   5.215  -5.551  0.00  0.00    -0.001 A 
ATOM     28  C   UNL     1      11.099   5.759  -4.259  0.00  0.00    +0.010 A 
ATOM     29  C   UNL     1      11.498   7.001  -3.902  0.00  0.00    +0.001 A 
ATOM     30  C   UNL     1      12.314   7.781  -4.732  0.00  0.00    +0.002 A 
ATOM     31  C   UNL     1      12.755   7.350  -5.933  0.00  0.00    +0.026 A 
ATOM     32  C   UNL     1      12.398   6.058  -6.409  0.00  0.00    +0.043 A 
ATOM     33  N   UNL     1      12.693   5.425  -7.518  0.00  0.00    -0.380 N 
ATOM     34  C   UNL     1      12.055   4.104  -7.486  0.00  0.00    +0.145 C 
ATOM     35  H   UNL     1      13.244   5.769  -8.238  0.00  0.00    +0.160 HD
ENDBRANCH  25  26
ENDBRANCH  22  25
ENDBRANCH  19  21
ENDBRANCH   4  19
TORSDOF 7
