REMARK  Name = ZINC38683539
REMARK  10 active torsions:
REMARK  status: ('A' for Active; 'I' for Inactive)
REMARK    1  A    between atoms: C_1  and  O_2
REMARK    2  A    between atoms: O_2  and  C_3
REMARK    3  A    between atoms: C_3  and  C_5
REMARK    4  A    between atoms: C_8  and  C_11
REMARK    5  A    between atoms: C_16  and  O_25
REMARK    6  A    between atoms: C_20  and  N_24
REMARK    7  A    between atoms: C_21  and  C_22
REMARK    8  A    between atoms: O_25  and  C_26
REMARK    9  A    between atoms: C_26  and  C_28
REMARK   10  A    between atoms: C_28  and  C_29
REMARK                            x       y       z     vdW  Elec       q    Type
REMARK                         _______ _______ _______ _____ _____    ______ ____
ROOT
ATOM      1  C   UNL     1       0.816  -6.378  -1.394  0.00  0.00    +0.098 C 
ATOM      2  C   UNL     1       2.258  -6.812  -1.403  0.00  0.00    +0.008 A 
ATOM      3  C   UNL     1       3.008  -6.706  -0.244  0.00  0.00    +0.012 A 
ATOM      4  C   UNL     1       4.331  -7.098  -0.234  0.00  0.00    +0.047 A 
ATOM      5  C   UNL     1       4.915  -7.602  -1.388  0.00  0.00    +0.135 A 
ATOM      6  C   UNL     1       4.167  -7.710  -2.549  0.00  0.00    +0.093 A 
ATOM      7  C   UNL     1       2.835  -7.314  -2.558  0.00  0.00    +0.138 A 
ATOM      8  O   UNL     1       2.117  -7.426  -3.703  0.00  0.00    -0.441 OA
ATOM      9  C   UNL     1       0.774  -7.427  -3.654  0.00  0.00    +0.199 C 
ATOM     10  C   UNL     1       0.100  -6.943  -2.588  0.00  0.00    +0.098 C 
ENDROOT
BRANCH   1  14
ATOM     11  C   UNL     1       0.620  -2.108  -1.512  0.00  0.00    +0.059 A 
ATOM     12  C   UNL     1       0.070  -2.806  -0.435  0.00  0.00    +0.015 A 
ATOM     13  C   UNL     1       0.137  -4.183  -0.403  0.00  0.00    +0.005 A 
ATOM     14  C   UNL     1       0.747  -4.874  -1.435  0.00  0.00    -0.035 A 
ATOM     15  C   UNL     1       1.294  -4.189  -2.506  0.00  0.00    +0.005 A 
ATOM     16  C   UNL     1       1.229  -2.811  -2.553  0.00  0.00    +0.015 A 
BRANCH  11  17
ATOM     17  C   UNL     1       0.552  -0.633  -1.553  0.00  0.00    +0.339 C 
ATOM     18  O   UNL     1       1.027  -0.029  -2.494  0.00  0.00    -0.245 OA
BRANCH  17  20
ATOM     19  C   UNL     1      -0.065   1.467  -0.652  0.00  0.00    +0.280 C 
ATOM     20  O   UNL     1      -0.036   0.042  -0.547  0.00  0.00    -0.464 OA
ENDBRANCH  17  20
ENDBRANCH  11  17
ENDBRANCH   1  14
BRANCH   9  21
ATOM     21  N   UNL     1       0.069  -7.931  -4.718  0.00  0.00    -0.328 N 
ATOM     22  H   UNL     1       0.540  -8.281  -5.490  0.00  0.00    +0.145 HD
ATOM     23  H   UNL     1      -0.901  -7.938  -4.697  0.00  0.00    +0.145 HD
ENDBRANCH   9  21
BRANCH  10  24
ATOM     24  C   UNL     1      -1.332  -6.971  -2.599  0.00  0.00    +0.101 C 
ATOM     25  N   UNL     1      -2.468  -6.994  -2.607  0.00  0.00    -0.191 NA
ENDBRANCH  10  24
BRANCH   5  26
ATOM     26  O   UNL     1       6.218  -7.989  -1.380  0.00  0.00    -0.425 OA
BRANCH  26  27
ATOM     27  C   UNL     1       7.099  -7.251  -2.074  0.00  0.00    +0.317 C 
ATOM     28  O   UNL     1       6.745  -6.220  -2.595  0.00  0.00    -0.250 OA
BRANCH  27  29
ATOM     29  C   UNL     1       8.529  -7.709  -2.203  0.00  0.00    +0.156 C 
BRANCH  29  30
ATOM     30  C   UNL     1       9.304  -6.710  -3.023  0.00  0.00    -0.029 A 
ATOM     31  C   UNL     1       9.459  -6.899  -4.363  0.00  0.00    +0.005 A 
ATOM     32  C   UNL     1      10.172  -5.987  -5.138  0.00  0.00    +0.001 A 
ATOM     33  C   UNL     1      10.735  -4.881  -4.578  0.00  0.00    +0.008 A 
ATOM     34  C   UNL     1      10.595  -4.652  -3.199  0.00  0.00    -0.018 A 
ATOM     35  C   UNL     1       9.864  -5.577  -2.412  0.00  0.00    -0.014 A 
ATOM     36  C   UNL     1       9.720  -5.345  -1.033  0.00  0.00    +0.009 A 
ATOM     37  C   UNL     1      10.278  -4.236  -0.475  0.00  0.00    +0.001 A 
ATOM     38  C   UNL     1      10.991  -3.323  -1.250  0.00  0.00    +0.001 A 
ATOM     39  C   UNL     1      11.162  -3.522  -2.586  0.00  0.00    +0.008 A 
ENDBRANCH  29  30
ENDBRANCH  27  29
ENDBRANCH  26  27
ENDBRANCH   5  26
TORSDOF 9
