REMARK  Name = ZINC39992787
REMARK  10 active torsions:
REMARK  status: ('A' for Active; 'I' for Inactive)
REMARK    1  A    between atoms: C_1  and  O_2
REMARK    2  A    between atoms: O_2  and  C_3
REMARK    3  A    between atoms: C_3  and  C_4
REMARK    4  A    between atoms: C_4  and  N_5
REMARK    5  A    between atoms: C_6  and  C_8
REMARK    6  A    between atoms: C_12  and  N_13
REMARK    7  A    between atoms: C_14  and  C_16
REMARK    8  A    between atoms: C_16  and  C_30
REMARK    9  A    between atoms: C_17  and  C_18
REMARK   10  A    between atoms: C_21  and  C_23
REMARK                            x       y       z     vdW  Elec       q    Type
REMARK                         _______ _______ _______ _____ _____    ______ ____
ROOT
ATOM      1  N   UNL     1       0.354  -4.177  -3.219  0.00  0.00    -0.275 N 
ATOM      2  C   UNL     1      -0.057  -4.359  -4.489  0.00  0.00    +0.259 C 
ATOM      3  O   UNL     1       0.736  -4.718  -5.340  0.00  0.00    -0.269 OA
ATOM      4  H   UNL     1      -0.278  -3.891  -2.541  0.00  0.00    +0.156 HD
ENDROOT
BRANCH   1   9
ATOM      5  C   UNL     1       2.275  -4.266  -1.636  0.00  0.00    +0.069 A 
ATOM      6  C   UNL     1       3.692  -4.569  -1.543  0.00  0.00    -0.023 A 
ATOM      7  C   UNL     1       4.255  -4.944  -2.712  0.00  0.00    -0.004 A 
ATOM      8  S   UNL     1       2.931  -4.892  -3.884  0.00  0.00    -0.077 S 
ATOM      9  C   UNL     1       1.678  -4.400  -2.881  0.00  0.00    +0.085 A 
ATOM     10  C   UNL     1       5.687  -5.317  -2.942  0.00  0.00    +0.043 C 
ATOM     11  C   UNL     1       6.508  -4.848  -1.732  0.00  0.00    +0.005 C 
ATOM     12  C   UNL     1       5.798  -5.290  -0.449  0.00  0.00    +0.005 C 
ATOM     13  C   UNL     1       4.510  -4.484  -0.263  0.00  0.00    +0.037 C 
BRANCH   5  15
ATOM     14  N   UNL     1       1.401  -2.532  -0.162  0.00  0.00    -0.309 N 
ATOM     15  C   UNL     1       1.505  -3.841  -0.462  0.00  0.00    +0.247 C 
ATOM     16  O   UNL     1       0.961  -4.672   0.241  0.00  0.00    -0.270 OA
ATOM     17  H   UNL     1       1.835  -1.870  -0.723  0.00  0.00    +0.149 HD
BRANCH  14  18
ATOM     18  C   UNL     1       0.633  -2.108   1.011  0.00  0.00    +0.132 C 
BRANCH  18  19
ATOM     19  C   UNL     1       0.673  -0.582   1.123  0.00  0.00    +0.178 C 
BRANCH  19  21
ATOM     20  C   UNL     1      -0.017   1.425   0.010  0.00  0.00    +0.194 C 
ATOM     21  O   UNL     1       0.002  -0.004   0.002  0.00  0.00    -0.381 OA
ENDBRANCH  19  21
ENDBRANCH  18  19
ENDBRANCH  14  18
ENDBRANCH   5  15
ENDBRANCH   1   9
BRANCH   2  22
ATOM     22  C   UNL     1      -1.460  -4.123  -4.848  0.00  0.00    +0.117 C 
ATOM     23  C   UNL     1      -1.883  -4.310  -6.157  0.00  0.00    +0.070 C 
BRANCH  23  24
ATOM     24  C   UNL     1      -3.226  -4.084  -6.500  0.00  0.00    +0.130 A 
ATOM     25  C   UNL     1      -3.780  -4.237  -7.763  0.00  0.00    +0.050 A 
ATOM     26  C   UNL     1      -5.131  -3.910  -7.652  0.00  0.00    +0.050 A 
ATOM     27  C   UNL     1      -5.357  -3.569  -6.334  0.00  0.00    +0.137 A 
ATOM     28  O   UNL     1      -4.202  -3.685  -5.656  0.00  0.00    -0.455 OA
BRANCH  27  29
ATOM     29  C   UNL     1      -6.652  -3.152  -5.764  0.00  0.00    +0.036 A 
ATOM     30  C   UNL     1      -7.405  -2.154  -6.387  0.00  0.00    +0.013 A 
ATOM     31  C   UNL     1      -8.615  -1.769  -5.848  0.00  0.00    +0.001 A 
ATOM     32  C   UNL     1      -9.084  -2.369  -4.692  0.00  0.00    +0.001 A 
ATOM     33  C   UNL     1      -8.345  -3.359  -4.069  0.00  0.00    +0.021 A 
ATOM     34  C   UNL     1      -7.135  -3.759  -4.600  0.00  0.00    +0.052 A 
ATOM     35 CL   UNL     1      -6.212  -5.006  -3.821  0.00  0.00    -0.083 Cl
ENDBRANCH  27  29
ENDBRANCH  23  24
BRANCH  22  36
ATOM     36  C   UNL     1      -2.393  -3.700  -3.847  0.00  0.00    +0.104 C 
ATOM     37  N   UNL     1      -3.133  -3.364  -3.053  0.00  0.00    -0.191 NA
ENDBRANCH  22  36
ENDBRANCH   2  22
TORSDOF 9
