REMARK  Name = ZINC41006702
REMARK  8 active torsions:
REMARK  status: ('A' for Active; 'I' for Inactive)
REMARK    1  A    between atoms: C_1  and  C_2
REMARK    2  A    between atoms: C_2  and  C_3
REMARK    3  A    between atoms: C_6  and  O_9
REMARK    4  A    between atoms: O_9  and  C_10
REMARK    5  A    between atoms: C_10  and  C_11
REMARK    6  A    between atoms: C_17  and  C_22
REMARK    7  A    between atoms: C_22  and  O_23
REMARK    8  A    between atoms: O_23  and  C_24
REMARK                            x       y       z     vdW  Elec       q    Type
REMARK                         _______ _______ _______ _____ _____    ______ ____
ROOT
ATOM      1  C   UNL     1       4.577  -2.509  -5.864  0.00  0.00    +0.256 C 
ATOM      2  O   UNL     1       3.819  -2.664  -6.798  0.00  0.00    -0.272 OA
ATOM      3  N   UNL     1       5.891  -2.769  -6.012  0.00  0.00    -0.260 N 
ATOM      4  C   UNL     1       6.377  -3.215  -7.235  0.00  0.00    +0.188 A 
ATOM      5  N   UNL     1       7.602  -3.521  -7.569  0.00  0.00    -0.140 NA
ATOM      6  N   UNL     1       7.912  -3.955  -8.851  0.00  0.00    -0.185 N 
ATOM      7  C   UNL     1       9.004  -4.359  -9.590  0.00  0.00    +0.193 A 
ATOM      8  N   UNL     1       8.593  -4.647 -10.793  0.00  0.00    -0.128 NA
ATOM      9  N   UNL     1       7.322  -4.459 -10.881  0.00  0.00    -0.120 NA
ATOM     10  C   UNL     1       6.869  -4.042  -9.738  0.00  0.00    +0.220 A 
ATOM     11  S   UNL     1       5.486  -3.524  -8.752  0.00  0.00    -0.011 S 
ATOM     12  H   UNL     1       6.497  -2.645  -5.265  0.00  0.00    +0.157 HD
ENDROOT
BRANCH   1  13
ATOM     13  C   UNL     1       4.050  -2.025  -4.538  0.00  0.00    +0.324 C 
BRANCH  13  14
ATOM     14  O   UNL     1       2.638  -1.822  -4.632  0.00  0.00    -0.483 OA
BRANCH  14  18
ATOM     15  C   UNL     1       0.707  -0.490  -1.238  0.00  0.00    -0.047 A 
ATOM     16  C   UNL     1      -0.012  -0.718  -2.397  0.00  0.00    +0.007 A 
ATOM     17  C   UNL     1       0.632  -1.164  -3.534  0.00  0.00    +0.046 A 
ATOM     18  C   UNL     1       2.002  -1.383  -3.514  0.00  0.00    +0.121 A 
ATOM     19  C   UNL     1       2.722  -1.153  -2.350  0.00  0.00    +0.046 A 
ATOM     20  C   UNL     1       2.074  -0.702  -1.216  0.00  0.00    +0.007 A 
BRANCH  15  22
ATOM     21  C   UNL     1      -0.019   1.526   0.010  0.00  0.00    +0.009 C 
ATOM     22  C   UNL     1       0.002  -0.004   0.002  0.00  0.00    +0.032 C 
ENDBRANCH  15  22
ENDBRANCH  14  18
ENDBRANCH  13  14
ENDBRANCH   1  13
BRANCH   7  23
ATOM     23  C   UNL     1      10.424  -4.451  -9.094  0.00  0.00    +0.307 C 
BRANCH  23  24
ATOM     24  O   UNL     1      10.658  -5.755  -8.557  0.00  0.00    -0.484 OA
BRANCH  24  25
ATOM     25  C   UNL     1      11.899  -6.006  -8.064  0.00  0.00    +0.121 A 
ATOM     26  C   UNL     1      12.870  -5.015  -8.089  0.00  0.00    +0.047 A 
ATOM     27  C   UNL     1      14.131  -5.272  -7.587  0.00  0.00    +0.023 A 
ATOM     28  C   UNL     1      14.426  -6.516  -7.059  0.00  0.00    +0.041 A 
ATOM     29  C   UNL     1      13.459  -7.506  -7.033  0.00  0.00    +0.023 A 
ATOM     30  C   UNL     1      12.195  -7.251  -7.528  0.00  0.00    +0.047 A 
ATOM     31 CL   UNL     1      16.012  -6.837  -6.429  0.00  0.00    -0.084 Cl
ENDBRANCH  24  25
ENDBRANCH  23  24
ENDBRANCH   7  23
TORSDOF 7
