REMARK  Name = ZINC65508468
REMARK  11 active torsions:
REMARK  status: ('A' for Active; 'I' for Inactive)
REMARK    1  A    between atoms: C_1  and  C_2
REMARK    2  A    between atoms: C_2  and  C_4
REMARK    3  A    between atoms: C_2  and  N_11
REMARK    4  A    between atoms: C_4  and  C_5
REMARK    5  A    between atoms: C_5  and  C_6
REMARK    6  A    between atoms: C_6  and  C_7
REMARK    7  A    between atoms: C_7  and  C_8
REMARK    8  A    between atoms: C_7  and  C_9
REMARK    9  A    between atoms: C_7  and  O_10
REMARK   10  A    between atoms: C_14  and  C_23
REMARK   11  A    between atoms: C_16  and  C_18
REMARK                            x       y       z     vdW  Elec       q    Type
REMARK                         _______ _______ _______ _____ _____    ______ ____
ROOT
ATOM      1  N   UNL     1       0.825  -0.781   1.004  0.00  0.00    +0.397 N 
ATOM      2  C   UNL     1       0.823  -2.261   0.873  0.00  0.00    +0.007 C 
ATOM      3  N   UNL     1       1.963  -2.695   1.721  0.00  0.00    -0.327 NA
ATOM      4  C   UNL     1       3.010  -1.673   1.484  0.00  0.00    +0.076 C 
ATOM      5  C   UNL     1       2.261  -0.413   1.011  0.00  0.00    +0.021 C 
ATOM      6  H   UNL     1       1.699  -2.723   2.695  0.00  0.00    +0.120 HD
ATOM      7  H   UNL     1       0.386  -0.502   1.868  0.00  0.00    -0.078 HD
ENDROOT
BRANCH   5   8
ATOM      8  C   UNL     1       2.502   0.726   1.969  0.00  0.00    +0.072 A 
ATOM      9  N   UNL     1       1.810   0.964   3.071  0.00  0.00    -0.351 N 
ATOM     10  C   UNL     1       2.321   2.065   3.661  0.00  0.00    +0.101 A 
ATOM     11  C   UNL     1       3.342   2.494   2.894  0.00  0.00    +0.101 A 
ATOM     12  N   UNL     1       3.444   1.647   1.849  0.00  0.00    -0.351 N 
ATOM     13  H   UNL     1       4.094   1.705   1.131  0.00  0.00    +0.166 HD
ATOM     14  H   UNL     1       1.063   0.438   3.399  0.00  0.00    +0.166 HD
ENDBRANCH   5   8
BRANCH   4  15
ATOM     15  C   UNL     1       3.759  -1.389   2.760  0.00  0.00    -0.032 A 
ATOM     16  C   UNL     1       3.081  -1.347   3.964  0.00  0.00    +0.005 A 
ATOM     17  C   UNL     1       3.768  -1.086   5.135  0.00  0.00    +0.000 A 
ATOM     18  C   UNL     1       5.132  -0.867   5.102  0.00  0.00    +0.000 A 
ATOM     19  C   UNL     1       5.810  -0.910   3.898  0.00  0.00    +0.000 A 
ATOM     20  C   UNL     1       5.124  -1.175   2.728  0.00  0.00    +0.005 A 
ENDBRANCH   4  15
BRANCH   1  22
ATOM     21  C   UNL     1       0.167   1.359   0.011  0.00  0.00    -0.013 C 
ATOM     22  C   UNL     1       0.144  -0.164  -0.141  0.00  0.00    -0.069 C 
BRANCH  22  23
ATOM     23  C   UNL     1      -1.307  -0.649  -0.194  0.00  0.00    -0.015 C 
BRANCH  23  24
ATOM     24  C   UNL     1      -1.981  -0.105  -1.455  0.00  0.00    +0.001 C 
BRANCH  24  25
ATOM     25  C   UNL     1      -3.389  -0.693  -1.574  0.00  0.00    +0.034 C 
BRANCH  25  26
ATOM     26  C   UNL     1      -4.063  -0.149  -2.835  0.00  0.00    +0.061 C 
ATOM     27  C   UNL     1      -5.512  -0.637  -2.890  0.00  0.00    +0.041 C 
ATOM     28  C   UNL     1      -4.041   1.381  -2.806  0.00  0.00    +0.041 C 
BRANCH  26  29
ATOM     29  O   UNL     1      -3.360  -0.613  -3.990  0.00  0.00    -0.389 OA
ATOM     30  H   UNL     1      -3.334  -1.577  -4.073  0.00  0.00    +0.210 HD
ENDBRANCH  26  29
ENDBRANCH  25  26
ENDBRANCH  24  25
ENDBRANCH  23  24
ENDBRANCH  22  23
ENDBRANCH   1  22
TORSDOF 8
