REMARK  Name = ZINC39327991
REMARK  15 active torsions:
REMARK  status: ('A' for Active; 'I' for Inactive)
REMARK    1  A    between atoms: C_1  and  C_2
REMARK    2  A    between atoms: C_4  and  C_35
REMARK    3  A    between atoms: C_6  and  S_10
REMARK    4  A    between atoms: C_7  and  C_8
REMARK    5  A    between atoms: S_10  and  C_11
REMARK    6  A    between atoms: C_11  and  C_12
REMARK    7  A    between atoms: C_13  and  C_31
REMARK    8  A    between atoms: C_14  and  C_22
REMARK    9  A    between atoms: C_16  and  C_20
REMARK   10  A    between atoms: C_17  and  N_19
REMARK   11  A    between atoms: C_25  and  C_28
REMARK   12  A    between atoms: C_28  and  C_29
REMARK   13  A    between atoms: C_28  and  C_30
REMARK   14  A    between atoms: C_31  and  O_33
REMARK   15  A    between atoms: O_33  and  C_34
REMARK                            x       y       z     vdW  Elec       q    Type
REMARK                         _______ _______ _______ _____ _____    ______ ____
ROOT
ATOM      1  C   UNL     1       0.113  -5.800   3.199  0.00  0.00    +0.128 C 
ATOM      2  C   UNL     1      -1.047  -6.293   3.652  0.00  0.00    +0.088 C 
ATOM      3  C   UNL     1      -1.104  -7.125   4.903  0.00  0.00    +0.105 C 
ATOM      4  C   UNL     1       0.166  -6.952   5.692  0.00  0.00    +0.098 C 
ATOM      5  C   UNL     1       1.271  -6.417   5.120  0.00  0.00    +0.198 C 
ATOM      6  O   UNL     1       1.275  -6.025   3.831  0.00  0.00    -0.444 OA
ENDROOT
BRANCH   3   7
ATOM      7  C   UNL     1      -1.266  -8.577   4.532  0.00  0.00    -0.034 A 
ATOM      8  C   UNL     1      -0.306  -9.205   3.761  0.00  0.00    +0.005 A 
ATOM      9  C   UNL     1      -0.455 -10.536   3.421  0.00  0.00    +0.004 A 
ATOM     10  C   UNL     1      -1.564 -11.240   3.852  0.00  0.00    -0.045 A 
ATOM     11  C   UNL     1      -2.524 -10.612   4.624  0.00  0.00    +0.004 A 
ATOM     12  C   UNL     1      -2.373  -9.282   4.968  0.00  0.00    +0.005 A 
BRANCH  10  13
ATOM     13  C   UNL     1      -1.727 -12.691   3.480  0.00  0.00    +0.013 C 
ATOM     14  C   UNL     1      -1.791 -13.539   4.752  0.00  0.00    +0.012 C 
ATOM     15  C   UNL     1      -3.020 -12.871   2.682  0.00  0.00    +0.012 C 
ENDBRANCH  10  13
ENDBRANCH   3   7
BRANCH   5  16
ATOM     16  N   UNL     1       2.412  -6.274   5.869  0.00  0.00    -0.328 N 
ATOM     17  H   UNL     1       2.422  -6.555   6.797  0.00  0.00    +0.145 HD
ATOM     18  H   UNL     1       3.210  -5.891   5.470  0.00  0.00    +0.145 HD
ENDBRANCH   5  16
BRANCH   4  19
ATOM     19  C   UNL     1       0.206  -7.359   7.065  0.00  0.00    +0.101 C 
ATOM     20  N   UNL     1       0.238  -7.681   8.154  0.00  0.00    -0.191 NA
ENDBRANCH   4  19
BRANCH   2  21
ATOM     21  C   UNL     1      -2.242  -6.026   2.939  0.00  0.00    +0.339 C 
ATOM     22  O   UNL     1      -2.997  -5.152   3.323  0.00  0.00    -0.245 OA
BRANCH  21  23
ATOM     23  O   UNL     1      -2.543  -6.741   1.835  0.00  0.00    -0.465 OA
ATOM     24  C   UNL     1      -3.764  -6.418   1.167  0.00  0.00    +0.280 C 
ENDBRANCH  21  23
ENDBRANCH   2  21
BRANCH   1  25
ATOM     25  C   UNL     1       0.114  -4.972   1.939  0.00  0.00    +0.150 C 
BRANCH  25  26
ATOM     26  S   UNL     1       0.308  -3.220   2.367  0.00  0.00    -0.097 S 
BRANCH  26  32
ATOM     27  C   UNL     1       0.540   1.131  -0.603  0.00  0.00    +0.045 C 
ATOM     28  C   UNL     1       0.403  -0.366  -0.492  0.00  0.00    -0.029 A 
ATOM     29  C   UNL     1       0.257  -1.150  -1.623  0.00  0.00    +0.027 A 
ATOM     30  C   UNL     1       0.135  -2.521  -1.491  0.00  0.00    +0.040 A 
ATOM     31  N   UNL     1       0.153  -3.098  -0.305  0.00  0.00    -0.244 NA
ATOM     32  C   UNL     1       0.290  -2.397   0.810  0.00  0.00    +0.115 A 
ATOM     33  C   UNL     1       0.426  -0.998   0.756  0.00  0.00    +0.086 A 
ATOM     34  C   UNL     1      -0.025  -3.372  -2.725  0.00  0.00    +0.065 C 
BRANCH  33  35
ATOM     35  C   UNL     1       0.581  -0.233   1.957  0.00  0.00    +0.102 C 
ATOM     36  N   UNL     1       0.703   0.373   2.910  0.00  0.00    -0.191 NA
ENDBRANCH  33  35
ENDBRANCH  26  32
ENDBRANCH  25  26
ENDBRANCH   1  25
TORSDOF 10
