REMARK  Name = ZINC63766481
REMARK  9 active torsions:
REMARK  status: ('A' for Active; 'I' for Inactive)
REMARK    1  A    between atoms: C_1  and  O_2
REMARK    2  A    between atoms: O_2  and  C_3
REMARK    3  A    between atoms: C_5  and  C_20
REMARK    4  A    between atoms: C_8  and  O_9
REMARK    5  A    between atoms: O_9  and  C_10
REMARK    6  A    between atoms: C_10  and  C_11
REMARK    7  A    between atoms: C_21  and  C_22
REMARK    8  A    between atoms: C_21  and  C_24
REMARK    9  A    between atoms: C_27  and  C_30
REMARK                            x       y       z     vdW  Elec       q    Type
REMARK                         _______ _______ _______ _____ _____    ______ ____
ROOT
ATOM      1  C   UNL     1       1.763  -1.329   0.879  0.00  0.00    +0.162 A 
ATOM      2  C   UNL     1       1.893  -0.400   1.893  0.00  0.00    +0.057 A 
ATOM      3  C   UNL     1       2.506  -0.766   3.097  0.00  0.00    -0.020 A 
ATOM      4  C   UNL     1       2.985  -2.070   3.266  0.00  0.00    +0.012 A 
ATOM      5  C   UNL     1       2.851  -2.989   2.248  0.00  0.00    +0.050 A 
ATOM      6  C   UNL     1       2.238  -2.627   1.057  0.00  0.00    +0.162 A 
ENDROOT
BRANCH   1   8
ATOM      7  C   UNL     1       0.705   0.370  -0.406  0.00  0.00    +0.277 C 
ATOM      8  O   UNL     1       1.167  -0.977  -0.292  0.00  0.00    -0.491 OA
ENDBRANCH   1   8
BRANCH   3   9
ATOM      9  C   UNL     1       2.648   0.218   4.181  0.00  0.00    +0.025 C 
ATOM     10  C   UNL     1       2.433  -0.152   5.460  0.00  0.00    +0.064 C 
BRANCH  10  11
ATOM     11  C   UNL     1       1.882  -1.522   5.766  0.00  0.00    +0.203 C 
ATOM     12  N   UNL     1       2.834  -2.310   6.574  0.00  0.00    -0.267 NA
ATOM     13  C   UNL     1       2.435  -2.929   7.609  0.00  0.00    +0.055 C 
ATOM     14  C   UNL     1       0.965  -2.836   7.990  0.00  0.00    +0.127 C 
ATOM     15  S   UNL     1       0.446  -1.419   6.922  0.00  0.00    -0.123 S 
BRANCH  13  16
ATOM     16  C   UNL     1       3.377  -3.722   8.424  0.00  0.00    -0.003 A 
ATOM     17  C   UNL     1       2.923  -4.403   9.556  0.00  0.00    +0.011 A 
ATOM     18  C   UNL     1       3.807  -5.142  10.313  0.00  0.00    +0.020 A 
ATOM     19  C   UNL     1       5.143  -5.210   9.953  0.00  0.00    +0.041 A 
ATOM     20  C   UNL     1       5.599  -4.536   8.832  0.00  0.00    +0.020 A 
ATOM     21  C   UNL     1       4.723  -3.799   8.063  0.00  0.00    +0.011 A 
ATOM     22 CL   UNL     1       6.250  -6.142  10.912  0.00  0.00    -0.084 Cl
ENDBRANCH  13  16
ENDBRANCH  10  11
BRANCH  10  23
ATOM     23  C   UNL     1       2.726   0.756   6.528  0.00  0.00    +0.098 C 
ATOM     24  N   UNL     1       2.959   1.477   7.374  0.00  0.00    -0.191 NA
ENDBRANCH  10  23
ENDBRANCH   3   9
BRANCH   6  25
ATOM     25  O   UNL     1       2.104  -3.540   0.059  0.00  0.00    -0.484 OA
BRANCH  25  26
ATOM     26  C   UNL     1       2.613  -4.852   0.308  0.00  0.00    +0.275 C 
BRANCH  26  27
ATOM     27  C   UNL     1       2.373  -5.733  -0.920  0.00  0.00    +0.213 C 
ATOM     28  N   UNL     1       2.996  -5.127  -2.103  0.00  0.00    -0.361 N 
ATOM     29  C   UNL     1       2.049  -4.891  -2.965  0.00  0.00    +0.060 A 
ATOM     30  C   UNL     1       2.048  -4.306  -4.313  0.00  0.00    +0.027 A 
ATOM     31  C   UNL     1       0.885  -4.184  -4.984  0.00  0.00    +0.002 A 
ATOM     32  C   UNL     1      -0.347  -4.598  -4.447  0.00  0.00    +0.002 A 
ATOM     33  C   UNL     1      -0.458  -5.146  -3.220  0.00  0.00    +0.027 A 
ATOM     34  C   UNL     1       0.745  -5.329  -2.397  0.00  0.00    +0.060 A 
ATOM     35  N   UNL     1       0.936  -5.819  -1.206  0.00  0.00    -0.361 N 
ATOM     36  H   UNL     1       3.940  -4.937  -2.222  0.00  0.00    +0.162 HD
ATOM     37  H   UNL     1       0.254  -6.176  -0.616  0.00  0.00    +0.162 HD
ENDBRANCH  26  27
ENDBRANCH  25  26
ENDBRANCH   6  25
TORSDOF 8
