REMARK  Name = ZINC21230592
REMARK  10 active torsions:
REMARK  status: ('A' for Active; 'I' for Inactive)
REMARK    1  A    between atoms: C_1  and  C_2
REMARK    2  A    between atoms: C_2  and  C_3
REMARK    3  A    between atoms: C_2  and  O_4
REMARK    4  A    between atoms: O_4  and  C_5
REMARK    5  A    between atoms: C_8  and  C_13
REMARK    6  A    between atoms: C_10  and  O_11
REMARK    7  A    between atoms: O_11  and  C_12
REMARK    8  A    between atoms: C_18  and  C_23
REMARK    9  A    between atoms: C_26  and  O_29
REMARK   10  A    between atoms: O_29  and  C_30
REMARK                            x       y       z     vdW  Elec       q    Type
REMARK                         _______ _______ _______ _____ _____    ______ ____
ROOT
ATOM      1  C   UNL     1       1.121  -2.635   0.768  0.00  0.00    +0.136 C 
ATOM      2  C   UNL     1       2.570  -2.214   0.697  0.00  0.00    +0.036 C 
ATOM      3  C   UNL     1       3.068  -1.229  -0.068  0.00  0.00    +0.017 C 
ATOM      4  C   UNL     1       4.550  -0.892  -0.019  0.00  0.00    +0.059 C 
ATOM      5  C   UNL     1       5.363  -2.157   0.252  0.00  0.00    +0.032 C 
ATOM      6  C   UNL     1       4.904  -2.728   1.598  0.00  0.00    +0.088 C 
ATOM      7  C   UNL     1       3.425  -2.969   1.535  0.00  0.00    +0.163 C 
ATOM      8  O   UNL     1       2.944  -3.844   2.228  0.00  0.00    -0.292 OA
ATOM      9  N   UNL     1       2.342  -0.464  -0.922  0.00  0.00    -0.316 N 
ATOM     10  C   UNL     1       1.130   0.141  -0.609  0.00  0.00    +0.052 A 
ATOM     11  C   UNL     1       0.970   1.516  -0.602  0.00  0.00    +0.025 A 
ATOM     12  C   UNL     1      -0.283   2.052  -0.355  0.00  0.00    +0.002 A 
ATOM     13  C   UNL     1      -1.361   1.220  -0.111  0.00  0.00    +0.002 A 
ATOM     14  C   UNL     1      -1.196  -0.154  -0.092  0.00  0.00    +0.025 A 
ATOM     15  C   UNL     1       0.057  -0.693  -0.335  0.00  0.00    +0.049 A 
ATOM     16  N   UNL     1       0.282  -2.067  -0.266  0.00  0.00    -0.331 N 
ATOM     17  H   UNL     1       2.706  -0.285  -1.945  0.00  0.00    +0.152 HD
ATOM     18  H   UNL     1      -0.190  -2.721  -1.013  0.00  0.00    +0.147 HD
ENDROOT
BRANCH   1  22
ATOM     19  C   UNL     1      -0.437  -1.459   4.574  0.00  0.00    +0.162 A 
ATOM     20  C   UNL     1      -0.044  -0.498   3.656  0.00  0.00    +0.050 A 
ATOM     21  C   UNL     1       0.459  -0.882   2.426  0.00  0.00    +0.009 A 
ATOM     22  C   UNL     1       0.572  -2.223   2.110  0.00  0.00    -0.019 A 
ATOM     23  C   UNL     1       0.177  -3.186   3.019  0.00  0.00    +0.055 A 
ATOM     24  C   UNL     1      -0.324  -2.809   4.255  0.00  0.00    +0.162 A 
BRANCH  24  25
ATOM     25  O   UNL     1      -0.708  -3.756   5.152  0.00  0.00    -0.491 OA
ATOM     26  C   UNL     1      -0.563  -5.122   4.757  0.00  0.00    +0.277 C 
ENDBRANCH  24  25
BRANCH  19  27
ATOM     27  O   UNL     1      -0.932  -1.084   5.783  0.00  0.00    -0.486 OA
BRANCH  27  29
ATOM     28  C   UNL     1      -2.155   0.983   5.514  0.00  0.00    +0.051 C 
ATOM     29  C   UNL     1      -0.907   0.311   6.090  0.00  0.00    +0.167 C 
ATOM     30  C   UNL     1      -0.881   0.499   7.608  0.00  0.00    +0.051 C 
ENDBRANCH  27  29
ENDBRANCH  19  27
ENDBRANCH   1  22
BRANCH   5  31
ATOM     31  C   UNL     1       6.830  -1.817   0.313  0.00  0.00    -0.043 A 
ATOM     32  C   UNL     1       7.290  -0.915   1.255  0.00  0.00    +0.007 A 
ATOM     33  C   UNL     1       8.636  -0.606   1.317  0.00  0.00    +0.046 A 
ATOM     34  C   UNL     1       9.523  -1.193   0.427  0.00  0.00    +0.120 A 
ATOM     35  C   UNL     1       9.057  -2.093  -0.521  0.00  0.00    +0.046 A 
ATOM     36  C   UNL     1       7.712  -2.403  -0.575  0.00  0.00    +0.007 A 
BRANCH  34  37
ATOM     37  O   UNL     1      10.846  -0.887   0.483  0.00  0.00    -0.495 OA
ATOM     38  C   UNL     1      11.254   0.047   1.484  0.00  0.00    +0.277 C 
ENDBRANCH  34  37
ENDBRANCH   5  31
TORSDOF 6
