REMARK  Name = ZINC15015938
REMARK  8 active torsions:
REMARK  status: ('A' for Active; 'I' for Inactive)
REMARK    1  A    between atoms: C_1  and  C_2
REMARK    2  A    between atoms: C_2  and  C_24
REMARK    3  A    between atoms: N_3  and  N_4
REMARK    4  A    between atoms: C_5  and  C_7
REMARK    5  A    between atoms: C_7  and  N_15
REMARK    6  A    between atoms: C_8  and  C_9
REMARK    7  A    between atoms: C_16  and  C_18
REMARK    8  A    between atoms: C_29  and  O_30
REMARK                            x       y       z     vdW  Elec       q    Type
REMARK                         _______ _______ _______ _____ _____    ______ ____
ROOT
ATOM      1  C   UNL     1      -1.079  -3.895   2.199  0.00  0.00    +0.098 C 
ATOM      2  C   UNL     1      -0.689  -4.775   1.248  0.00  0.00    +0.036 C 
ENDROOT
BRANCH   2   3
ATOM      3  C   UNL     1      -1.064  -6.192   1.358  0.00  0.00    -0.023 A 
ATOM      4  C   UNL     1      -2.096  -6.582   2.219  0.00  0.00    +0.008 A 
ATOM      5  C   UNL     1      -2.442  -7.913   2.316  0.00  0.00    +0.001 A 
ATOM      6  C   UNL     1      -1.771  -8.863   1.566  0.00  0.00    +0.000 A 
ATOM      7  C   UNL     1      -0.749  -8.486   0.713  0.00  0.00    +0.001 A 
ATOM      8  C   UNL     1      -0.395  -7.158   0.599  0.00  0.00    +0.008 A 
ENDBRANCH   2   3
BRANCH   1  10
ATOM      9  N   UNL     1      -0.352  -2.002   0.841  0.00  0.00    -0.202 N 
ATOM     10  C   UNL     1      -0.848  -2.456   2.009  0.00  0.00    +0.277 C 
ATOM     11  O   UNL     1      -1.105  -1.675   2.907  0.00  0.00    -0.267 OA
ATOM     12  H   UNL     1      -0.080  -2.629   0.153  0.00  0.00    +0.178 HD
BRANCH   9  15
ATOM     13  C   UNL     1       0.234   1.301  -0.791  0.00  0.00    +0.068 C 
ATOM     14  C   UNL     1       0.149  -0.183  -0.540  0.00  0.00    +0.067 C 
ATOM     15  N   UNL     1      -0.231  -0.624   0.621  0.00  0.00    -0.184 NA
BRANCH  14  16
ATOM     16  C   UNL     1       0.497  -1.133  -1.611  0.00  0.00    +0.039 A 
ATOM     17  C   UNL     1      -0.481  -1.970  -2.152  0.00  0.00    +0.013 A 
ATOM     18  C   UNL     1      -0.149  -2.857  -3.154  0.00  0.00    +0.001 A 
ATOM     19  C   UNL     1       1.150  -2.922  -3.627  0.00  0.00    +0.004 A 
ATOM     20  C   UNL     1       2.127  -2.098  -3.100  0.00  0.00    +0.046 A 
ATOM     21  C   UNL     1       1.810  -1.197  -2.097  0.00  0.00    +0.126 A 
BRANCH  21  22
ATOM     22  O   UNL     1       2.768  -0.384  -1.583  0.00  0.00    -0.506 OA
ATOM     23  H   UNL     1       3.291  -0.788  -0.878  0.00  0.00    +0.292 HD
ENDBRANCH  21  22
ENDBRANCH  14  16
ENDBRANCH   9  15
ENDBRANCH   1  10
BRANCH   1  24
ATOM     24  N   UNL     1      -1.702  -4.355   3.363  0.00  0.00    -0.277 N 
ATOM     25  C   UNL     1      -2.900  -3.856   3.728  0.00  0.00    +0.248 C 
ATOM     26  O   UNL     1      -3.478  -3.071   3.002  0.00  0.00    -0.270 OA
ATOM     27  H   UNL     1      -1.273  -5.034   3.907  0.00  0.00    +0.155 HD
BRANCH  25  28
ATOM     28  C   UNL     1      -3.509  -4.263   5.012  0.00  0.00    +0.037 A 
ATOM     29  C   UNL     1      -2.799  -5.073   5.899  0.00  0.00    +0.013 A 
ATOM     30  C   UNL     1      -3.374  -5.449   7.096  0.00  0.00    +0.001 A 
ATOM     31  C   UNL     1      -4.652  -5.026   7.417  0.00  0.00    +0.000 A 
ATOM     32  C   UNL     1      -5.361  -4.223   6.541  0.00  0.00    +0.001 A 
ATOM     33  C   UNL     1      -4.795  -3.834   5.344  0.00  0.00    +0.013 A 
ENDBRANCH  25  28
ENDBRANCH   1  24
TORSDOF 7
