REMARK  Name = ZINC39685726
REMARK  12 active torsions:
REMARK  status: ('A' for Active; 'I' for Inactive)
REMARK    1  A    between atoms: C_1  and  C_2
REMARK    2  A    between atoms: C_2  and  C_3
REMARK    3  A    between atoms: C_2  and  C_4
REMARK    4  A    between atoms: C_4  and  C_6
REMARK    5  A    between atoms: C_4  and  N_13
REMARK    6  A    between atoms: N_8  and  C_9
REMARK    7  A    between atoms: C_9  and  C_10
REMARK    8  A    between atoms: C_9  and  C_11
REMARK    9  A    between atoms: C_9  and  C_12
REMARK   10  A    between atoms: C_14  and  C_16
REMARK   11  A    between atoms: C_27  and  C_29
REMARK   12  A    between atoms: C_34  and  C_35
REMARK                            x       y       z     vdW  Elec       q    Type
REMARK                         _______ _______ _______ _____ _____    ______ ____
ROOT
ATOM      1  C   UNL     1       3.885   2.044   1.494  0.00  0.00    +0.100 C 
ATOM      2  C   UNL     1       4.789   1.118   2.338  0.00  0.00    +0.121 C 
ATOM      3  N   UNL     1       5.646   2.041   3.118  0.00  0.00    -0.296 N 
ATOM      4  C   UNL     1       4.739   3.148   3.506  0.00  0.00    +0.115 C 
ATOM      5  C   UNL     1       3.853   3.374   2.264  0.00  0.00    -0.004 C 
ATOM      6  C   UNL     1       2.426   3.707   2.688  0.00  0.00    -0.010 C 
ATOM      7  C   UNL     1       2.412   5.062   3.400  0.00  0.00    -0.082 C 
ATOM      8  N   UNL     1       2.929   6.097   2.497  0.00  0.00    +0.379 N 
ATOM      9  C   UNL     1       4.333   5.819   2.168  0.00  0.00    -0.082 C 
ATOM     10  C   UNL     1       4.428   4.496   1.404  0.00  0.00    -0.010 C 
ATOM     11  C   UNL     1       6.955   1.906   3.409  0.00  0.00    +0.247 C 
ATOM     12  O   UNL     1       7.502   2.710   4.138  0.00  0.00    -0.270 OA
ATOM     13  H   UNL     1       2.382   6.106   1.649  0.00  0.00    -0.086 HD
ATOM     14  H   UNL     1       2.862   6.998   2.946  0.00  0.00    -0.086 HD
ENDROOT
BRANCH  11  15
ATOM     15  C   UNL     1       7.726   0.779   2.841  0.00  0.00    +0.049 A 
ATOM     16  C   UNL     1       7.152  -0.491   2.757  0.00  0.00    +0.013 A 
ATOM     17  C   UNL     1       7.876  -1.538   2.226  0.00  0.00    +0.001 A 
ATOM     18  C   UNL     1       9.169  -1.331   1.778  0.00  0.00    +0.001 A 
ATOM     19  C   UNL     1       9.744  -0.076   1.859  0.00  0.00    +0.013 A 
ATOM     20  C   UNL     1       9.028   0.981   2.382  0.00  0.00    +0.067 A 
BRANCH  20  21
ATOM     21  C   UNL     1       9.653   2.350   2.464  0.00  0.00    +0.418 C 
ATOM     22  F   UNL     1      10.952   2.301   1.947  0.00  0.00    -0.166 F 
ATOM     23  F   UNL     1       8.889   3.257   1.722  0.00  0.00    -0.166 F 
ATOM     24  F   UNL     1       9.699   2.763   3.800  0.00  0.00    -0.166 F 
ENDBRANCH  20  21
ENDBRANCH  11  15
BRANCH   1  26
ATOM     25  N   UNL     1       1.880   0.986   2.485  0.00  0.00    -0.303 N 
ATOM     26  C   UNL     1       2.496   1.467   1.387  0.00  0.00    +0.219 C 
ATOM     27  O   UNL     1       1.934   1.435   0.313  0.00  0.00    -0.275 OA
ATOM     28  H   UNL     1       2.352   0.957   3.333  0.00  0.00    +0.149 HD
BRANCH  25  29
ATOM     29  C   UNL     1       0.498   0.507   2.399  0.00  0.00    +0.161 C 
BRANCH  29  30
ATOM     30  C   UNL     1      -0.153   0.607   3.754  0.00  0.00    +0.234 C 
ATOM     31  O   UNL     1       0.475   1.036   4.699  0.00  0.00    -0.274 OA
ATOM     32  N   UNL     1      -1.434   0.219   3.916  0.00  0.00    -0.309 N 
ATOM     33  H   UNL     1      -1.936  -0.124   3.161  0.00  0.00    +0.149 HD
BRANCH  32  34
ATOM     34  C   UNL     1      -2.067   0.316   5.234  0.00  0.00    +0.026 C 
ATOM     35  C   UNL     1      -2.061   1.774   5.697  0.00  0.00    +0.031 C 
ATOM     36  C   UNL     1      -3.510  -0.185   5.144  0.00  0.00    +0.031 C 
ATOM     37  C   UNL     1      -1.292  -0.541   6.237  0.00  0.00    +0.031 C 
ENDBRANCH  32  34
ENDBRANCH  29  30
BRANCH  29  39
ATOM     38  C   UNL     1       1.154  -1.053   0.561  0.00  0.00    +0.009 C 
ATOM     39  C   UNL     1       0.492  -0.952   1.936  0.00  0.00    +0.012 C 
ATOM     40  C   UNL     1       1.268  -1.808   2.939  0.00  0.00    +0.009 C 
ENDBRANCH  29  39
ENDBRANCH  25  29
ENDBRANCH   1  26
TORSDOF 7
