REMARK  Name = ZINC33273554
REMARK  13 active torsions:
REMARK  status: ('A' for Active; 'I' for Inactive)
REMARK    1  A    between atoms: C_1  and  C_2
REMARK    2  A    between atoms: C_5  and  C_8
REMARK    3  A    between atoms: N_10  and  C_11
REMARK    4  A    between atoms: N_10  and  C_12
REMARK    5  A    between atoms: C_12  and  C_13
REMARK    6  A    between atoms: C_13  and  C_14
REMARK    7  A    between atoms: C_16  and  C_19
REMARK    8  A    between atoms: C_22  and  C_25
REMARK    9  A    between atoms: N_27  and  C_28
REMARK   10  A    between atoms: C_28  and  C_29
REMARK   11  A    between atoms: C_29  and  C_30
REMARK   12  A    between atoms: C_30  and  C_32
REMARK   13  A    between atoms: C_30  and  N_33
REMARK                            x       y       z     vdW  Elec       q    Type
REMARK                         _______ _______ _______ _____ _____    ______ ____
ROOT
ATOM      1  C   UNL     1      -4.212  -4.785   1.232  0.00  0.00    +0.039 A 
ATOM      2  C   UNL     1      -2.959  -5.395   1.138  0.00  0.00    +0.014 A 
ATOM      3  C   UNL     1      -1.817  -4.665   1.382  0.00  0.00    +0.014 A 
ATOM      4  C   UNL     1      -1.912  -3.314   1.723  0.00  0.00    +0.037 A 
ATOM      5  C   UNL     1      -3.165  -2.705   1.822  0.00  0.00    +0.014 A 
ATOM      6  C   UNL     1      -4.306  -3.434   1.573  0.00  0.00    +0.014 A 
ENDROOT
BRANCH   1   9
ATOM      7  C   UNL     1      -7.450  -6.185   0.714  0.00  0.00    +0.174 A 
ATOM      8  N   UNL     1      -6.682  -5.129   1.023  0.00  0.00    -0.192 NA
ATOM      9  C   UNL     1      -5.437  -5.570   0.971  0.00  0.00    +0.258 A 
ATOM     10  O   UNL     1      -5.502  -6.866   0.630  0.00  0.00    -0.333 OA
ATOM     11  N   UNL     1      -6.661  -7.196   0.494  0.00  0.00    -0.061 NA
BRANCH   7  12
ATOM     12  C   UNL     1      -8.955  -6.198   0.635  0.00  0.00    +0.098 C 
BRANCH  12  13
ATOM     13  C   UNL     1      -9.395  -5.845  -0.787  0.00  0.00    +0.115 C 
BRANCH  13  16
ATOM     14  C   UNL     1     -11.506  -6.994  -1.186  0.00  0.00    +0.246 C 
ATOM     15  O   UNL     1     -10.884  -8.028  -1.330  0.00  0.00    -0.270 OA
ATOM     16  N   UNL     1     -10.857  -5.857  -0.863  0.00  0.00    -0.300 N 
ATOM     17  C   UNL     1     -11.616  -4.634  -0.588  0.00  0.00    +0.132 C 
BRANCH  14  22
ATOM     18  C   UNL     1     -17.218  -6.947  -1.885  0.00  0.00    +0.044 C 
ATOM     19  C   UNL     1     -15.722  -6.959  -1.702  0.00  0.00    -0.050 A 
ATOM     20  C   UNL     1     -15.073  -8.147  -1.417  0.00  0.00    +0.004 A 
ATOM     21  C   UNL     1     -13.704  -8.165  -1.248  0.00  0.00    +0.013 A 
ATOM     22  C   UNL     1     -12.973  -6.982  -1.367  0.00  0.00    +0.037 A 
ATOM     23  C   UNL     1     -13.635  -5.786  -1.650  0.00  0.00    +0.013 A 
ATOM     24  C   UNL     1     -15.004  -5.783  -1.821  0.00  0.00    +0.004 A 
ENDBRANCH  14  22
ENDBRANCH  13  16
ENDBRANCH  12  13
ENDBRANCH   7  12
ENDBRANCH   1   9
BRANCH   4  25
ATOM     25  C   UNL     1      -0.686  -2.530   1.985  0.00  0.00    +0.244 C 
ATOM     26  O   UNL     1       0.404  -3.061   1.904  0.00  0.00    -0.270 OA
ATOM     27  N   UNL     1      -0.778  -1.226   2.315  0.00  0.00    -0.311 N 
ATOM     28  H   UNL     1      -1.765  -0.745   2.388  0.00  0.00    +0.149 HD
BRANCH  27  29
ATOM     29  C   UNL     1       0.436  -0.449   2.575  0.00  0.00    +0.103 C 
BRANCH  29  30
ATOM     30  C   UNL     1       0.056   0.991   2.925  0.00  0.00    +0.003 C 
BRANCH  30  31
ATOM     31  C   UNL     1       1.324   1.802   3.196  0.00  0.00    -0.070 C 
ATOM     32  C   UNL     1       0.940   3.207   3.667  0.00  0.00    -0.013 C 
BRANCH  31  33
ATOM     33  N   UNL     1       2.117   1.899   1.963  0.00  0.00    +0.381 N 
ATOM     34  C   UNL     1       1.422   2.728   0.947  0.00  0.00    -0.079 C 
ATOM     35  C   UNL     1       2.565   3.149  -0.010  0.00  0.00    -0.020 C 
ATOM     36  C   UNL     1       3.753   3.380   0.952  0.00  0.00    -0.020 C 
ATOM     37  C   UNL     1       3.410   2.570   2.216  0.00  0.00    -0.079 C 
ATOM     38  H   UNL     1       2.261   0.864   1.618  0.00  0.00    -0.081 HD
ENDBRANCH  31  33
ENDBRANCH  30  31
ENDBRANCH  29  30
ENDBRANCH  27  29
ENDBRANCH   4  25
TORSDOF 10
