REMARK  Name = ZINC08790012
REMARK  4 active torsions:
REMARK  status: ('A' for Active; 'I' for Inactive)
REMARK    1  A    between atoms: C_1  and  C_2
REMARK    2  A    between atoms: C_5  and  C_8
REMARK    3  A    between atoms: C_8  and  C_10
REMARK    4  A    between atoms: C_32  and  C_37
REMARK                            x       y       z     vdW  Elec       q    Type
REMARK                         _______ _______ _______ _____ _____    ______ ____
ROOT
ATOM      1  C   UNL     1      -6.016   2.436   3.649  0.00  0.00    +0.066 C 
ATOM      2  C   UNL     1      -5.308   3.809   3.558  0.00  0.00    -0.055 C 
ATOM      3  C   UNL     1      -6.369   4.918   3.461  0.00  0.00    -0.016 C 
ATOM      4  C   UNL     1      -6.634   5.108   1.955  0.00  0.00    -0.020 C 
ATOM      5  C   UNL     1      -5.736   4.070   1.254  0.00  0.00    -0.076 C 
ATOM      6  C   UNL     1      -4.184   2.391   2.033  0.00  0.00    +0.060 C 
ATOM      7  C   UNL     1      -5.046   1.495   2.914  0.00  0.00    +0.085 C 
ATOM      8  C   UNL     1      -5.794   0.468   2.112  0.00  0.00    -0.011 A 
ATOM      9  C   UNL     1      -6.701   0.550   1.079  0.00  0.00    +0.006 A 
ATOM     10  C   UNL     1      -7.233  -0.604   0.531  0.00  0.00    +0.000 A 
ATOM     11  C   UNL     1      -6.851  -1.839   1.024  0.00  0.00    +0.002 A 
ATOM     12  C   UNL     1      -5.943  -1.926   2.059  0.00  0.00    +0.023 A 
ATOM     13  C   UNL     1      -5.402  -0.769   2.615  0.00  0.00    +0.038 A 
ATOM     14  N   UNL     1      -4.482  -0.598   3.652  0.00  0.00    -0.285 N 
ATOM     15  C   UNL     1      -4.219   0.701   3.889  0.00  0.00    +0.228 C 
ATOM     16  O   UNL     1      -3.461   1.146   4.726  0.00  0.00    -0.275 OA
ATOM     17  C   UNL     1      -2.724   2.264   2.379  0.00  0.00    -0.025 A 
ATOM     18  C   UNL     1      -2.006   2.488   3.533  0.00  0.00    +0.024 A 
ATOM     19  C   UNL     1      -0.636   2.280   3.545  0.00  0.00    +0.042 A 
ATOM     20  C   UNL     1       0.005   1.849   2.397  0.00  0.00    +0.025 A 
ATOM     21  C   UNL     1      -0.713   1.624   1.241  0.00  0.00    -0.028 A 
ATOM     22  C   UNL     1      -2.090   1.835   1.219  0.00  0.00    +0.039 A 
ATOM     23  N   UNL     1      -3.021   1.675   0.190  0.00  0.00    -0.286 N 
ATOM     24  C   UNL     1      -4.271   1.984   0.584  0.00  0.00    +0.212 C 
ATOM     25  O   UNL     1      -5.274   1.944  -0.097  0.00  0.00    -0.277 OA
ATOM     26  C   UNL     1      -0.005   1.154  -0.003  0.00  0.00    +0.046 C 
ATOM     27 CL   UNL     1       0.273   2.561   4.997  0.00  0.00    -0.084 Cl
ATOM     28  H   UNL     1      -4.079  -1.331   4.144  0.00  0.00    +0.155 HD
ATOM     29  H   UNL     1      -2.794   1.379  -0.705  0.00  0.00    +0.155 HD
ATOM     30  N   UNL     1      -4.689   3.756   2.245  0.00  0.00    +0.395 N 
ATOM     31  H   UNL     1      -3.920   4.432   2.178  0.00  0.00    -0.079 HD
ENDROOT
BRANCH   1  32
ATOM     32  C   UNL     1      -7.352   2.478   2.953  0.00  0.00    +0.166 C 
ATOM     33  O   UNL     1      -7.545   3.275   2.060  0.00  0.00    -0.292 OA
BRANCH  32  38
ATOM     34  C   UNL     1     -11.533  -1.137   4.534  0.00  0.00    +0.044 C 
ATOM     35  C   UNL     1     -10.437  -0.189   4.120  0.00  0.00    -0.050 A 
ATOM     36  C   UNL     1     -10.662   0.718   3.099  0.00  0.00    +0.004 A 
ATOM     37  C   UNL     1      -9.664   1.589   2.714  0.00  0.00    +0.011 A 
ATOM     38  C   UNL     1      -8.423   1.553   3.358  0.00  0.00    +0.018 A 
ATOM     39  C   UNL     1      -8.202   0.628   4.384  0.00  0.00    +0.011 A 
ATOM     40  C   UNL     1      -9.212  -0.231   4.762  0.00  0.00    +0.004 A 
ENDBRANCH  32  38
ENDBRANCH   1  32
TORSDOF 2
