REMARK  Name = ZINC24689152
REMARK  9 active torsions:
REMARK  status: ('A' for Active; 'I' for Inactive)
REMARK    1  A    between atoms: C_1  and  C_2
REMARK    2  A    between atoms: C_4  and  C_27
REMARK    3  A    between atoms: C_5  and  C_26
REMARK    4  A    between atoms: C_6  and  S_9
REMARK    5  A    between atoms: C_7  and  C_8
REMARK    6  A    between atoms: S_9  and  N_12
REMARK    7  A    between atoms: N_12  and  C_13
REMARK    8  A    between atoms: C_13  and  C_20
REMARK    9  A    between atoms: C_22  and  C_25
REMARK                            x       y       z     vdW  Elec       q    Type
REMARK                         _______ _______ _______ _____ _____    ______ ____
ROOT
ATOM      1  N   UNL     1       3.244   0.839  -0.174  0.00  0.00    -0.176 NA
ATOM      2  H   UNL     1       3.539   1.729  -0.748  0.00  0.00    +0.149 HD
ENDROOT
BRANCH   1   3
ATOM      3  C   UNL     1       2.665   0.988   1.164  0.00  0.00    +0.102 C 
ATOM      4  C   UNL     1       2.863   2.444   1.632  0.00  0.00    +0.032 C 
ATOM      5  C   UNL     1       2.605   3.360   0.466  0.00  0.00    +0.002 C 
ATOM      6  C   UNL     1       1.152   3.871   0.428  0.00  0.00    +0.000 C 
ATOM      7  C   UNL     1       0.124   2.774   0.762  0.00  0.00    +0.000 C 
ATOM      8  C   UNL     1       0.455   1.457   0.113  0.00  0.00    +0.002 C 
ATOM      9  C   UNL     1       1.262   0.606   1.115  0.00  0.00    +0.032 C 
BRANCH   3  10
ATOM     10  C   UNL     1       3.389   0.068   2.113  0.00  0.00    +0.193 A 
ATOM     11  N   UNL     1       4.698   0.109   2.419  0.00  0.00    -0.194 NA
ATOM     12  C   UNL     1       4.891  -0.865   3.275  0.00  0.00    +0.224 A 
ATOM     13  O   UNL     1       3.709  -1.459   3.461  0.00  0.00    -0.338 OA
ATOM     14  N   UNL     1       2.862  -0.911   2.787  0.00  0.00    -0.059 NA
ATOM     15  C   UNL     1       6.197  -1.242   3.926  0.00  0.00    +0.112 C 
ENDBRANCH   3  10
ENDBRANCH   1   3
BRANCH   1  16
ATOM     16  S   UNL     1       3.227  -0.638  -0.923  0.00  0.00    +0.060 S 
ATOM     17  O   UNL     1       3.918  -0.476  -2.155  0.00  0.00    -0.153 OA
ATOM     18  O   UNL     1       3.622  -1.593   0.052  0.00  0.00    -0.153 OA
BRANCH  16  24
ATOM     19  C   UNL     1      -1.183  -3.356  -0.225  0.00  0.00    +0.044 C 
ATOM     20  C   UNL     1      -0.443  -2.273  -0.968  0.00  0.00    -0.045 A 
ATOM     21  C   UNL     1      -1.080  -1.561  -1.967  0.00  0.00    +0.007 A 
ATOM     22  C   UNL     1      -0.401  -0.567  -2.648  0.00  0.00    -0.045 A 
ATOM     23  C   UNL     1       0.914  -0.286  -2.329  0.00  0.00    -0.021 A 
ATOM     24  C   UNL     1       1.551  -0.997  -1.329  0.00  0.00    +0.112 A 
ATOM     25  C   UNL     1       0.874  -1.994  -0.652  0.00  0.00    -0.021 A 
ATOM     26  C   UNL     1       1.570  -2.774   0.434  0.00  0.00    +0.046 C 
ATOM     27  C   UNL     1       1.654   0.797  -3.072  0.00  0.00    +0.046 C 
ATOM     28  C   UNL     1      -1.095   0.208  -3.737  0.00  0.00    +0.044 C 
ENDBRANCH  16  24
ENDBRANCH   1  16
TORSDOF 4
