REMARK  Name = ZINC38032740
REMARK  3 active torsions:
REMARK  status: ('A' for Active; 'I' for Inactive)
REMARK    1  A    between atoms: C_5  and  N_7
REMARK    2  A    between atoms: N_10  and  S_12
REMARK    3  A    between atoms: S_12  and  C_15
REMARK                            x       y       z     vdW  Elec       q    Type
REMARK                         _______ _______ _______ _____ _____    ______ ____
ROOT
ATOM      1  C   UNL     1      -0.017   1.377   0.010  0.00  0.00    +0.002 A 
ATOM      2  C   UNL     1       1.172   2.079   0.002  0.00  0.00    +0.005 A 
ATOM      3  C   UNL     1       2.389   1.411  -0.009  0.00  0.00    -0.027 A 
ATOM      4  C   UNL     1       2.416   0.035  -0.007  0.00  0.00    -0.021 A 
ATOM      5  C   UNL     1       1.215  -0.675  -0.007  0.00  0.00    +0.028 A 
ATOM      6  C   UNL     1       0.002  -0.004   0.002  0.00  0.00    +0.023 A 
ATOM      7  C   UNL     1       3.697  -0.757   0.011  0.00  0.00    +0.054 C 
ATOM      8  C   UNL     1       4.871   0.095  -0.469  0.00  0.00    +0.114 C 
ATOM      9  N   UNL     1       4.809   1.388   0.233  0.00  0.00    -0.171 NA
ATOM     10  C   UNL     1       3.647   2.243  -0.032  0.00  0.00    +0.144 C 
ENDROOT
BRANCH   5  11
ATOM     11  N   UNL     1       1.235  -2.072  -0.018  0.00  0.00    -0.358 N 
ATOM     12  H   UNL     1       2.082  -2.545  -0.024  0.00  0.00    +0.142 HD
ATOM     13  H   UNL     1       0.402  -2.569  -0.018  0.00  0.00    +0.142 HD
ENDBRANCH   5  11
BRANCH   9  14
ATOM     14  S   UNL     1       6.005   1.858   1.278  0.00  0.00    +0.067 S 
ATOM     15  O   UNL     1       5.419   2.800   2.167  0.00  0.00    -0.152 OA
ATOM     16  O   UNL     1       6.636   0.670   1.734  0.00  0.00    -0.152 OA
BRANCH  14  17
ATOM     17  C   UNL     1       7.206   2.736   0.334  0.00  0.00    +0.144 A 
ATOM     18  C   UNL     1       7.277   4.062   0.065  0.00  0.00    +0.037 A 
ATOM     19  C   UNL     1       8.322   4.535  -0.707  0.00  0.00    +0.025 A 
ATOM     20  C   UNL     1       9.245   3.656  -1.172  0.00  0.00    +0.057 A 
ATOM     21  S   UNL     1       8.650   2.110  -0.508  0.00  0.00    -0.062 S 
ATOM     22 BR   UNL     1      10.771   3.986  -2.239  0.00  0.00    -0.043 Br
ENDBRANCH  14  17
ENDBRANCH   9  14
TORSDOF 3
