REMARK  Name = ZINC32089718
REMARK  3 active torsions:
REMARK  status: ('A' for Active; 'I' for Inactive)
REMARK    1  A    between atoms: C_6  and  C_7
REMARK    2  A    between atoms: C_12  and  C_18
REMARK    3  A    between atoms: N_20  and  C_21
REMARK                            x       y       z     vdW  Elec       q    Type
REMARK                         _______ _______ _______ _____ _____    ______ ____
ROOT
ATOM      1  C   UNL     1      -1.272  -0.786   0.005  0.00  0.00    +0.095 A 
ATOM      2  C   UNL     1      -1.397  -2.191   0.015  0.00  0.00    +0.073 A 
ATOM      3  C   UNL     1      -2.712  -2.484   0.028  0.00  0.00    +0.125 A 
ATOM      4  N   UNL     1      -3.406  -1.306   0.024  0.00  0.00    -0.237 N 
ATOM      5  N   UNL     1      -2.484  -0.263   0.016  0.00  0.00    -0.169 NA
ATOM      6  C   UNL     1      -4.870  -1.252   0.032  0.00  0.00    +0.204 C 
ATOM      7  C   UNL     1      -5.410  -2.499  -0.673  0.00  0.00    +0.132 C 
ATOM      8  C   UNL     1      -4.683  -3.737  -0.233  0.00  0.00    +0.221 C 
ATOM      9  O   UNL     1      -5.298  -4.777  -0.122  0.00  0.00    -0.275 OA
ATOM     10  N   UNL     1      -3.359  -3.721   0.044  0.00  0.00    -0.270 N 
ATOM     11  H   UNL     1      -2.877  -4.538   0.245  0.00  0.00    +0.156 HD
ENDROOT
BRANCH   1  17
ATOM     12  C   UNL     1      -0.015   1.368  -0.014  0.00  0.00    +0.013 A 
ATOM     13  C   UNL     1       1.173   2.070  -0.028  0.00  0.00    +0.039 A 
ATOM     14  C   UNL     1       2.381   1.393  -0.039  0.00  0.00    +0.123 A 
ATOM     15  C   UNL     1       2.403   0.007  -0.035  0.00  0.00    +0.039 A 
ATOM     16  C   UNL     1       1.220  -0.703  -0.022  0.00  0.00    +0.013 A 
ATOM     17  C   UNL     1       0.003  -0.026  -0.011  0.00  0.00    +0.002 A 
ATOM     18  F   UNL     1       3.541   2.084  -0.053  0.00  0.00    -0.205 F 
ENDBRANCH   1  17
BRANCH   6  19
ATOM     19  C   UNL     1      -5.367  -1.217   1.454  0.00  0.00    +0.242 C 
ATOM     20  O   UNL     1      -4.576  -1.235   2.374  0.00  0.00    -0.273 OA
ATOM     21  N   UNL     1      -6.690  -1.167   1.705  0.00  0.00    -0.283 N 
ATOM     22  H   UNL     1      -7.319  -1.071   0.972  0.00  0.00    +0.155 HD
BRANCH  21  23
ATOM     23  C   UNL     1      -7.157  -1.251   3.022  0.00  0.00    +0.052 A 
ATOM     24  C   UNL     1      -6.390  -1.880   3.993  0.00  0.00    +0.026 A 
ATOM     25  C   UNL     1      -6.852  -1.962   5.292  0.00  0.00    +0.022 A 
ATOM     26  C   UNL     1      -8.080  -1.418   5.626  0.00  0.00    +0.042 A 
ATOM     27  C   UNL     1      -8.848  -0.790   4.661  0.00  0.00    +0.041 A 
ATOM     28  C   UNL     1      -8.387  -0.700   3.361  0.00  0.00    +0.064 A 
ATOM     29 CL   UNL     1      -9.346   0.094   2.152  0.00  0.00    -0.082 Cl
ATOM     30 CL   UNL     1      -8.659  -1.524   7.260  0.00  0.00    -0.083 Cl
ENDBRANCH  21  23
ENDBRANCH   6  19
TORSDOF 3
