REMARK  Name = ZINC39599311
REMARK  12 active torsions:
REMARK  status: ('A' for Active; 'I' for Inactive)
REMARK    1  A    between atoms: C_1  and  C_2
REMARK    2  A    between atoms: N_4  and  C_37
REMARK    3  A    between atoms: C_5  and  C_8
REMARK    4  A    between atoms: C_12  and  C_21
REMARK    5  A    between atoms: N_23  and  C_24
REMARK    6  A    between atoms: C_24  and  C_25
REMARK    7  A    between atoms: C_25  and  C_26
REMARK    8  A    between atoms: C_29  and  O_35
REMARK    9  A    between atoms: O_35  and  C_36
REMARK   10  A    between atoms: C_37  and  C_38
REMARK   11  A    between atoms: C_37  and  C_39
REMARK   12  A    between atoms: C_37  and  C_40
REMARK                            x       y       z     vdW  Elec       q    Type
REMARK                         _______ _______ _______ _____ _____    ______ ____
ROOT
ATOM      1  C   UNL     1      -0.547  -1.377  -0.360  0.00  0.00    +0.238 C 
ATOM      2  O   UNL     1      -0.190  -1.721  -1.467  0.00  0.00    -0.273 OA
ATOM      3  N   UNL     1      -1.812  -0.956  -0.161  0.00  0.00    -0.299 N 
ATOM      4  C   UNL     1      -2.426  -0.493   1.106  0.00  0.00    +0.121 C 
ATOM      5  C   UNL     1      -3.326   0.693   0.693  0.00  0.00    +0.100 C 
ATOM      6  C   UNL     1      -3.637   0.451  -0.793  0.00  0.00    -0.004 C 
ATOM      7  C   UNL     1      -2.901  -0.846  -1.161  0.00  0.00    +0.115 C 
ATOM      8  C   UNL     1      -3.109   1.607  -1.638  0.00  0.00    -0.010 C 
ATOM      9  C   UNL     1      -3.481   1.371  -3.105  0.00  0.00    -0.082 C 
ATOM     10  N   UNL     1      -4.940   1.272  -3.232  0.00  0.00    +0.379 N 
ATOM     11  C   UNL     1      -5.428   0.102  -2.492  0.00  0.00    -0.082 C 
ATOM     12  C   UNL     1      -5.139   0.284  -0.999  0.00  0.00    -0.010 C 
ATOM     13  H   UNL     1      -5.366   2.107  -2.860  0.00  0.00    -0.086 HD
ATOM     14  H   UNL     1      -5.185   1.177  -4.207  0.00  0.00    -0.086 HD
ENDROOT
BRANCH   1  19
ATOM     15  C   UNL     1       4.094  -0.229   0.456  0.00  0.00    +0.062 C 
ATOM     16  C   UNL     1       2.768  -0.935   0.575  0.00  0.00    +0.036 C 
ATOM     17  N   UNL     1       2.609  -2.195   0.581  0.00  0.00    -0.192 NA
ATOM     18  N   UNL     1       1.284  -2.610   0.702  0.00  0.00    -0.238 N 
ATOM     19  C   UNL     1       0.423  -1.419   0.791  0.00  0.00    +0.184 C 
ATOM     20  C   UNL     1       1.427  -0.250   0.712  0.00  0.00    +0.085 C 
BRANCH  18  21
ATOM     21  C   UNL     1       0.825  -4.000   0.735  0.00  0.00    +0.044 C 
ATOM     22  C   UNL     1       2.034  -4.937   0.760  0.00  0.00    +0.033 C 
ATOM     23  C   UNL     1      -0.023  -4.228   1.988  0.00  0.00    +0.033 C 
ATOM     24  C   UNL     1      -0.018  -4.288  -0.510  0.00  0.00    +0.033 C 
ENDBRANCH  18  21
ENDBRANCH   1  19
BRANCH   5  25
ATOM     25  C   UNL     1      -4.596   0.695   1.504  0.00  0.00    +0.218 C 
ATOM     26  O   UNL     1      -5.221  -0.333   1.654  0.00  0.00    -0.275 OA
ATOM     27  N   UNL     1      -5.038   1.840   2.062  0.00  0.00    -0.315 N 
ATOM     28  H   UNL     1      -4.538   2.662   1.941  0.00  0.00    +0.149 HD
BRANCH  27  29
ATOM     29  C   UNL     1      -6.273   1.842   2.850  0.00  0.00    +0.109 C 
BRANCH  29  30
ATOM     30  C   UNL     1      -6.546   3.256   3.365  0.00  0.00    +0.056 C 
BRANCH  30  31
ATOM     31  C   UNL     1      -7.816   3.258   4.176  0.00  0.00    -0.021 A 
ATOM     32  C   UNL     1      -7.944   2.925   5.597  0.00  0.00    +0.006 A 
ATOM     33  C   UNL     1      -7.038   2.534   6.585  0.00  0.00    +0.056 A 
ATOM     34  C   UNL     1      -7.491   2.288   7.867  0.00  0.00    +0.121 A 
ATOM     35  C   UNL     1      -8.842   2.429   8.172  0.00  0.00    +0.047 A 
ATOM     36  C   UNL     1      -9.744   2.814   7.205  0.00  0.00    +0.030 A 
ATOM     37  C   UNL     1      -9.308   3.066   5.909  0.00  0.00    +0.047 A 
ATOM     38  N   UNL     1      -9.950   3.457   4.753  0.00  0.00    -0.360 N 
ATOM     39  C   UNL     1      -9.045   3.572   3.734  0.00  0.00    +0.087 A 
ATOM     40  H   UNL     1     -10.902   3.630   4.676  0.00  0.00    +0.165 HD
BRANCH  34  41
ATOM     41  O   UNL     1      -6.614   1.907   8.833  0.00  0.00    -0.495 OA
ATOM     42  C   UNL     1      -7.149   1.669  10.137  0.00  0.00    +0.277 C 
ENDBRANCH  34  41
ENDBRANCH  30  31
ENDBRANCH  29  30
ENDBRANCH  27  29
ENDBRANCH   5  25
TORSDOF 7
