REMARK  Name = ZINC20151593
REMARK  8 active torsions:
REMARK  status: ('A' for Active; 'I' for Inactive)
REMARK    1  A    between atoms: C_5  and  C_7
REMARK    2  A    between atoms: C_7  and  N_8
REMARK    3  A    between atoms: C_9  and  C_11
REMARK    4  A    between atoms: C_11  and  C_12
REMARK    5  A    between atoms: C_12  and  N_13
REMARK    6  A    between atoms: N_21  and  C_24
REMARK    7  A    between atoms: C_24  and  C_25
REMARK    8  A    between atoms: N_27  and  C_28
REMARK                            x       y       z     vdW  Elec       q    Type
REMARK                         _______ _______ _______ _____ _____    ______ ____
ROOT
ATOM      1  N   UNL     1      -0.014   1.064   2.473  0.00  0.00    -0.259 N 
ATOM      2  C   UNL     1      -0.356  -0.118   3.033  0.00  0.00    +0.271 A 
ATOM      3  O   UNL     1      -1.250  -0.793   2.554  0.00  0.00    -0.266 OA
ATOM      4  C   UNL     1       0.334  -0.555   4.168  0.00  0.00    +0.100 A 
ATOM      5  C   UNL     1       1.358   0.205   4.739  0.00  0.00    +0.066 A 
ATOM      6  C   UNL     1       1.947  -0.361   5.867  0.00  0.00    +0.034 A 
ATOM      7  C   UNL     1       1.515  -1.558   6.326  0.00  0.00    +0.048 A 
ATOM      8  S   UNL     1       0.252  -1.983   5.216  0.00  0.00    -0.090 S 
ATOM      9  N   UNL     1       1.650   1.422   4.101  0.00  0.00    -0.284 N 
ATOM     10  C   UNL     1       0.969   1.806   3.011  0.00  0.00    +0.333 A 
ATOM     11  O   UNL     1       1.253   2.867   2.489  0.00  0.00    -0.246 OA
ENDROOT
BRANCH   1  12
ATOM     12  C   UNL     1      -0.720   1.540   1.280  0.00  0.00    +0.139 C 
BRANCH  12  13
ATOM     13  C   UNL     1      -0.002   1.036   0.027  0.00  0.00    +0.117 C 
BRANCH  13  15
ATOM     14  N   UNL     1      -0.273   1.203  -2.426  0.00  0.00    -0.311 N 
ATOM     15  C   UNL     1      -0.728   1.526  -1.199  0.00  0.00    +0.215 C 
ATOM     16  O   UNL     1      -1.722   2.211  -1.082  0.00  0.00    -0.276 OA
ATOM     17  H   UNL     1       0.629   0.582  -2.532  0.00  0.00    +0.149 HD
BRANCH  14  18
ATOM     18  C   UNL     1      -0.978   1.679  -3.618  0.00  0.00    +0.141 C 
BRANCH  18  23
ATOM     19  C   UNL     1       1.229   1.567  -6.679  0.00  0.00    +0.000 A 
ATOM     20  C   UNL     1       1.027   0.272  -7.118  0.00  0.00    +0.001 A 
ATOM     21  C   UNL     1       0.176  -0.569  -6.426  0.00  0.00    +0.020 A 
ATOM     22  C   UNL     1      -0.474  -0.114  -5.292  0.00  0.00    +0.046 A 
ATOM     23  C   UNL     1      -0.271   1.182  -4.853  0.00  0.00    -0.012 A 
ATOM     24  C   UNL     1       0.577   2.024  -5.549  0.00  0.00    +0.006 A 
ATOM     25 CL   UNL     1      -1.543  -1.168  -4.422  0.00  0.00    -0.083 Cl
ENDBRANCH  18  23
ENDBRANCH  14  18
ENDBRANCH  13  15
ENDBRANCH  12  13
ENDBRANCH   1  12
BRANCH   9  26
ATOM     26  C   UNL     1       2.710   2.282   4.633  0.00  0.00    +0.222 C 
BRANCH  26  27
ATOM     27  C   UNL     1       2.123   3.237   5.641  0.00  0.00    +0.237 C 
ATOM     28  O   UNL     1       0.937   3.202   5.890  0.00  0.00    -0.274 OA
ATOM     29  N   UNL     1       2.917   4.129   6.265  0.00  0.00    -0.282 N 
ATOM     30  H   UNL     1       4.004   4.113   6.094  0.00  0.00    +0.155 HD
BRANCH  29  31
ATOM     31  C   UNL     1       2.359   5.078   7.131  0.00  0.00    +0.069 A 
ATOM     32  C   UNL     1       1.258   4.747   7.908  0.00  0.00    +0.026 A 
ATOM     33  C   UNL     1       0.713   5.682   8.766  0.00  0.00    +0.002 A 
ATOM     34  C   UNL     1       1.255   6.952   8.843  0.00  0.00    +0.003 A 
ATOM     35  C   UNL     1       2.349   7.288   8.067  0.00  0.00    +0.040 A 
ATOM     36  C   UNL     1       2.903   6.355   7.210  0.00  0.00    +0.144 A 
ATOM     37  F   UNL     1       3.971   6.684   6.451  0.00  0.00    -0.204 F 
ENDBRANCH  29  31
ENDBRANCH  26  27
ENDBRANCH   9  26
TORSDOF 8
