REMARK  Name = ZINC65496652
REMARK  2 active torsions:
REMARK  status: ('A' for Active; 'I' for Inactive)
REMARK    1  A    between atoms: C_4  and  C_7
REMARK    2  A    between atoms: C_13  and  C_14
REMARK                            x       y       z     vdW  Elec       q    Type
REMARK                         _______ _______ _______ _____ _____    ______ ____
ROOT
ATOM      1  C   UNL     1       4.007  -0.756   0.209  0.00  0.00    +0.159 C 
ATOM      2  N   UNL     1       3.861  -2.131   0.723  0.00  0.00    -0.331 N 
ATOM      3  C   UNL     1       3.785  -3.145  -0.164  0.00  0.00    +0.020 C 
ATOM      4  C   UNL     1       4.385  -2.862  -1.536  0.00  0.00    +0.121 C 
ATOM      5  S   UNL     1       4.152  -1.027  -1.608  0.00  0.00    -0.128 S 
ATOM      6  C   UNL     1       3.216  -4.329   0.143  0.00  0.00    +0.086 C 
ATOM      7  H   UNL     1       3.821  -2.302   1.677  0.00  0.00    +0.147 HD
ENDROOT
BRANCH   6   8
ATOM      8  C   UNL     1       2.556  -4.496   1.383  0.00  0.00    +0.241 C 
ATOM      9  O   UNL     1       2.380  -3.538   2.113  0.00  0.00    -0.271 OA
ATOM     10  N   UNL     1       2.120  -5.716   1.755  0.00  0.00    -0.292 N 
ATOM     11  C   UNL     1       1.332  -5.891   2.984  0.00  0.00    +0.114 C 
ATOM     12  C   UNL     1      -0.073  -6.384   2.613  0.00  0.00    +0.074 C 
ATOM     13  C   UNL     1       0.052  -7.481   1.589  0.00  0.00    +0.039 A 
ATOM     14  N   UNL     1      -0.878  -8.410   1.232  0.00  0.00    -0.349 N 
ATOM     15  C   UNL     1      -0.318  -9.183   0.272  0.00  0.00    +0.171 A 
ATOM     16  N   UNL     1       0.897  -8.758   0.046  0.00  0.00    -0.348 N 
ATOM     17  C   UNL     1       1.151  -7.717   0.841  0.00  0.00    +0.054 A 
ATOM     18  H   UNL     1      -1.772  -8.501   1.597  0.00  0.00    +0.166 HD
ATOM     19  C   UNL     1       2.417  -6.906   0.937  0.00  0.00    +0.163 C 
ATOM     20  H   UNL     1       1.516  -9.139  -0.597  0.00  0.00    +0.166 HD
ENDBRANCH   6   8
BRANCH   1  24
ATOM     21  C   UNL     1       0.553   1.585   1.125  0.00  0.00    +0.000 A 
ATOM     22  C   UNL     1       1.781   2.198   0.966  0.00  0.00    +0.000 A 
ATOM     23  C   UNL     1       2.899   1.441   0.670  0.00  0.00    +0.006 A 
ATOM     24  C   UNL     1       2.788   0.070   0.533  0.00  0.00    -0.017 A 
ATOM     25  C   UNL     1       1.560  -0.544   0.692  0.00  0.00    +0.006 A 
ATOM     26  C   UNL     1       0.442   0.214   0.987  0.00  0.00    +0.000 A 
ENDBRANCH   1  24
TORSDOF 2
