REMARK  Name = ZINC46705980
REMARK  10 active torsions:
REMARK  status: ('A' for Active; 'I' for Inactive)
REMARK    1  A    between atoms: C_1  and  C_2
REMARK    2  A    between atoms: C_3  and  C_15
REMARK    3  A    between atoms: C_4  and  C_7
REMARK    4  A    between atoms: N_17  and  C_18
REMARK    5  A    between atoms: C_18  and  C_19
REMARK    6  A    between atoms: C_19  and  C_20
REMARK    7  A    between atoms: C_20  and  C_21
REMARK    8  A    between atoms: C_22  and  C_33
REMARK    9  A    between atoms: C_23  and  N_32
REMARK   10  A    between atoms: N_24  and  C_26
REMARK                            x       y       z     vdW  Elec       q    Type
REMARK                         _______ _______ _______ _____ _____    ______ ____
ROOT
ATOM      1  C   UNL     1      -4.277   0.037   2.070  0.00  0.00    +0.105 C 
ENDROOT
BRANCH   1   4
ATOM      2  C   UNL     1      -2.459  -0.424   0.515  0.00  0.00    +0.250 C 
ATOM      3  O   UNL     1      -3.207  -0.136  -0.399  0.00  0.00    -0.270 OA
ATOM      4  N   UNL     1      -2.898  -0.369   1.788  0.00  0.00    -0.311 N 
ATOM      5  H   UNL     1      -2.302  -0.598   2.518  0.00  0.00    +0.149 HD
BRANCH   2   8
ATOM      6  C   UNL     1       0.008   1.484   0.315  0.00  0.00    +0.090 C 
ATOM      7  C   UNL     1       0.014  -0.013   0.142  0.00  0.00    +0.147 A 
ATOM      8  C   UNL     1      -1.073  -0.832   0.232  0.00  0.00    +0.106 A 
ATOM      9  C   UNL     1      -0.593  -2.201  -0.007  0.00  0.00    +0.130 A 
ATOM     10  N   UNL     1       0.697  -2.121  -0.217  0.00  0.00    -0.077 NA
ATOM     11  O   UNL     1       1.084  -0.764  -0.132  0.00  0.00    -0.359 OA
BRANCH   9  12
ATOM     12  C   UNL     1      -1.412  -3.436  -0.010  0.00  0.00    +0.058 A 
ATOM     13  C   UNL     1      -2.571  -3.507  -0.785  0.00  0.00    +0.134 A 
ATOM     14  C   UNL     1      -3.331  -4.662  -0.782  0.00  0.00    +0.039 A 
ATOM     15  C   UNL     1      -2.945  -5.745  -0.014  0.00  0.00    +0.004 A 
ATOM     16  C   UNL     1      -1.798  -5.681   0.756  0.00  0.00    +0.021 A 
ATOM     17  C   UNL     1      -1.026  -4.535   0.758  0.00  0.00    +0.053 A 
ATOM     18 CL   UNL     1       0.417  -4.460   1.720  0.00  0.00    -0.083 Cl
ATOM     19  F   UNL     1      -2.950  -2.449  -1.535  0.00  0.00    -0.205 F 
ENDBRANCH   9  12
ENDBRANCH   2   8
ENDBRANCH   1   4
BRANCH   1  20
ATOM     20  C   UNL     1      -4.517   0.016   3.581  0.00  0.00    +0.025 C 
BRANCH  20  21
ATOM     21  C   UNL     1      -5.957   0.440   3.876  0.00  0.00    +0.060 C 
BRANCH  21  22
ATOM     22  C   UNL     1      -6.193   0.418   5.364  0.00  0.00    +0.083 A 
ATOM     23  C   UNL     1      -6.653  -0.689   6.114  0.00  0.00    +0.114 A 
ATOM     24  C   UNL     1      -6.729  -0.277   7.442  0.00  0.00    +0.138 A 
ATOM     25  N   UNL     1      -6.332   1.015   7.481  0.00  0.00    -0.217 N 
ATOM     26  N   UNL     1      -6.002   1.416   6.182  0.00  0.00    -0.168 NA
BRANCH  25  27
ATOM     27  C   UNL     1      -6.259   1.816   8.629  0.00  0.00    +0.067 A 
ATOM     28  C   UNL     1      -7.189   1.658   9.648  0.00  0.00    +0.028 A 
ATOM     29  C   UNL     1      -7.114   2.448  10.778  0.00  0.00    +0.002 A 
ATOM     30  C   UNL     1      -6.114   3.396  10.896  0.00  0.00    +0.000 A 
ATOM     31  C   UNL     1      -5.186   3.555   9.883  0.00  0.00    +0.002 A 
ATOM     32  C   UNL     1      -5.253   2.764   8.752  0.00  0.00    +0.028 A 
ENDBRANCH  25  27
BRANCH  24  33
ATOM     33  N   UNL     1      -7.133  -1.044   8.518  0.00  0.00    -0.342 N 
ATOM     34  H   UNL     1      -7.400  -1.967   8.382  0.00  0.00    +0.144 HD
ATOM     35  H   UNL     1      -7.151  -0.660   9.408  0.00  0.00    +0.144 HD
ENDBRANCH  24  33
BRANCH  23  36
ATOM     36  C   UNL     1      -6.979  -1.987   5.605  0.00  0.00    +0.104 C 
ATOM     37  N   UNL     1      -7.238  -3.016   5.201  0.00  0.00    -0.191 NA
ENDBRANCH  23  36
ENDBRANCH  21  22
ENDBRANCH  20  21
ENDBRANCH   1  20
TORSDOF 9
