REMARK  Name = ZINC22502740
REMARK  5 active torsions:
REMARK  status: ('A' for Active; 'I' for Inactive)
REMARK    1  A    between atoms: C_1  and  C_2
REMARK    2  A    between atoms: C_2  and  C_3
REMARK    3  A    between atoms: C_2  and  C_4
REMARK    4  A    between atoms: C_6  and  C_10
REMARK    5  A    between atoms: C_16  and  C_18
REMARK                            x       y       z     vdW  Elec       q    Type
REMARK                         _______ _______ _______ _____ _____    ______ ____
ROOT
ATOM      1  C   UNL     1      -0.837  10.652   0.069  0.00  0.00    +0.203 A 
ATOM      2  N   UNL     1      -0.050  11.705   0.068  0.00  0.00    -0.125 NA
ATOM      3  N   UNL     1       1.182  11.331   0.054  0.00  0.00    -0.120 NA
ATOM      4  C   UNL     1       1.246  10.032   0.047  0.00  0.00    +0.219 A 
ATOM      5  N   UNL     1      -0.030   9.521   0.056  0.00  0.00    -0.184 N 
ATOM      6  N   UNL     1      -0.143   8.137   0.049  0.00  0.00    -0.154 NA
ATOM      7  C   UNL     1       0.917   7.370   0.034  0.00  0.00    +0.151 A 
ATOM      8  S   UNL     1       2.245   8.565   0.037  0.00  0.00    -0.025 S 
ENDROOT
BRANCH   7   9
ATOM      9  C   UNL     1       0.996   5.893   0.025  0.00  0.00    +0.098 A 
ATOM     10  C   UNL     1       2.256   5.273   0.010  0.00  0.00    +0.031 A 
ATOM     11  C   UNL     1       2.342   3.912   0.001  0.00  0.00    +0.012 A 
ATOM     12  C   UNL     1       1.146   3.167   0.008  0.00  0.00    +0.000 A 
ATOM     13  C   UNL     1       1.163   1.764   0.000  0.00  0.00    +0.010 A 
ATOM     14  C   UNL     1      -0.013   1.076   0.008  0.00  0.00    +0.001 A 
ATOM     15  C   UNL     1      -1.234   1.747   0.017  0.00  0.00    +0.002 A 
ATOM     16  C   UNL     1      -1.288   3.106   0.031  0.00  0.00    +0.028 A 
ATOM     17  C   UNL     1      -0.095   3.852   0.024  0.00  0.00    +0.072 A 
ATOM     18  N   UNL     1      -0.120   5.187   0.032  0.00  0.00    -0.245 NA
ENDBRANCH   7   9
BRANCH   1  21
ATOM     19  C   UNL     1      -4.441  11.328   0.278  0.00  0.00    +0.066 A 
ATOM     20  C   UNL     1      -3.115  11.748   0.384  0.00  0.00    +0.056 A 
ATOM     21  C   UNL     1      -2.310  10.668   0.084  0.00  0.00    +0.105 A 
ATOM     22  N   UNL     1      -3.136   9.620  -0.204  0.00  0.00    -0.274 N 
ATOM     23  H   UNL     1      -2.710   8.644  -0.482  0.00  0.00    +0.189 HD
ATOM     24  N   UNL     1      -4.456  10.066  -0.067  0.00  0.00    -0.178 NA
BRANCH  19  26
ATOM     25  C   UNL     1      -5.982  12.197   2.015  0.00  0.00    +0.014 C 
ATOM     26  C   UNL     1      -5.655  12.187   0.521  0.00  0.00    +0.033 C 
ATOM     27  C   UNL     1      -5.372  13.616   0.051  0.00  0.00    +0.014 C 
ENDBRANCH  19  26
ENDBRANCH   1  21
TORSDOF 3
