REMARK  Name = ZINC09633105
REMARK  6 active torsions:
REMARK  status: ('A' for Active; 'I' for Inactive)
REMARK    1  A    between atoms: C_1  and  C_2
REMARK    2  A    between atoms: C_11  and  S_15
REMARK    3  A    between atoms: S_15  and  C_16
REMARK    4  A    between atoms: C_16  and  C_17
REMARK    5  A    between atoms: N_19  and  C_20
REMARK    6  A    between atoms: C_21  and  C_28
REMARK                            x       y       z     vdW  Elec       q    Type
REMARK                         _______ _______ _______ _____ _____    ______ ____
ROOT
ATOM      1  C   UNL     1      -0.018   1.503   0.010  0.00  0.00    +0.228 C 
ATOM      2  O   UNL     1      -1.077   2.095   0.018  0.00  0.00    -0.275 OA
ATOM      3  N   UNL     1       1.139   2.192   0.003  0.00  0.00    -0.279 N 
ATOM      4  H   UNL     1       1.986   1.719  -0.008  0.00  0.00    +0.155 HD
ENDROOT
BRANCH   3   5
ATOM      5  C   UNL     1       1.121   3.579   0.011  0.00  0.00    +0.084 A 
ATOM      6  C   UNL     1       2.193   4.454   0.011  0.00  0.00    +0.068 A 
ATOM      7  C   UNL     1       1.899   5.886   0.016  0.00  0.00    -0.023 A 
ATOM      8  C   UNL     1       0.591   6.200   0.030  0.00  0.00    -0.004 A 
ATOM      9  S   UNL     1      -0.250   4.636   0.030  0.00  0.00    -0.077 S 
ATOM     10  C   UNL     1       0.368   7.689   0.037  0.00  0.00    +0.043 C 
ATOM     11  C   UNL     1       1.720   8.287  -0.411  0.00  0.00    +0.010 C 
ATOM     12  C   UNL     1       2.709   7.184   0.017  0.00  0.00    +0.037 C 
BRANCH   6  13
ATOM     13  C   UNL     1       3.575   3.962   0.002  0.00  0.00    +0.244 C 
ATOM     14  O   UNL     1       4.144   3.764  -1.056  0.00  0.00    -0.270 OA
ATOM     15  N   UNL     1       4.215   3.729   1.165  0.00  0.00    -0.325 N 
ATOM     16  H   UNL     1       3.761   3.887   2.008  0.00  0.00    +0.145 HD
ATOM     17  H   UNL     1       5.128   3.404   1.159  0.00  0.00    +0.145 HD
ENDBRANCH   6  13
ENDBRANCH   3   5
BRANCH   1  18
ATOM     18  C   UNL     1       0.002  -0.004   0.002  0.00  0.00    +0.172 C 
BRANCH  18  19
ATOM     19  S   UNL     1      -1.696  -0.631   0.015  0.00  0.00    -0.096 S 
BRANCH  19  29
ATOM     20  C   UNL     1      -8.195  -2.551   0.150  0.00  0.00    +0.008 C 
ATOM     21  C   UNL     1      -6.695  -2.679   0.424  0.00  0.00    -0.009 C 
ATOM     22  C   UNL     1      -5.926  -1.654  -0.415  0.00  0.00    +0.008 C 
ATOM     23  C   UNL     1      -4.466  -1.607   0.035  0.00  0.00    +0.037 C 
ATOM     24  C   UNL     1      -3.900  -3.025   0.022  0.00  0.00    -0.025 A 
ATOM     25  C   UNL     1      -4.722  -4.094   0.025  0.00  0.00    -0.004 A 
ATOM     26  S   UNL     1      -3.646  -5.503   0.008  0.00  0.00    -0.073 S 
ATOM     27  C   UNL     1      -2.090  -4.652  -0.003  0.00  0.00    +0.113 A 
ATOM     28  C   UNL     1      -2.461  -3.292   0.014  0.00  0.00    +0.043 A 
ATOM     29  C   UNL     1      -1.383  -2.364   0.003  0.00  0.00    +0.109 A 
ATOM     30  N   UNL     1      -0.140  -2.822  -0.012  0.00  0.00    -0.229 NA
ATOM     31  C   UNL     1       0.134  -4.114  -0.021  0.00  0.00    +0.223 A 
ATOM     32  N   UNL     1      -0.824  -5.021  -0.017  0.00  0.00    -0.228 NA
ATOM     33  C   UNL     1      -6.220  -4.087   0.038  0.00  0.00    +0.046 C 
ENDBRANCH  19  29
ENDBRANCH  18  19
ENDBRANCH   1  18
TORSDOF 5
