REMARK  Name = ZINC39918540
REMARK  8 active torsions:
REMARK  status: ('A' for Active; 'I' for Inactive)
REMARK    1  A    between atoms: C_1  and  C_2
REMARK    2  A    between atoms: N_8  and  C_9
REMARK    3  A    between atoms: N_17  and  C_20
REMARK    4  A    between atoms: C_20  and  C_21
REMARK    5  A    between atoms: C_28  and  C_32
REMARK    6  A    between atoms: C_29  and  N_31
REMARK    7  A    between atoms: C_32  and  O_34
REMARK    8  A    between atoms: O_34  and  C_35
REMARK                            x       y       z     vdW  Elec       q    Type
REMARK                         _______ _______ _______ _____ _____    ______ ____
ROOT
ATOM      1  C   UNL     1      -0.088   1.503   0.004  0.00  0.00    +0.064 C 
ATOM      2  C   UNL     1      -0.030  -0.003  -0.003  0.00  0.00    +0.022 A 
ATOM      3  C   UNL     1      -0.064  -0.665  -1.179  0.00  0.00    +0.068 A 
ATOM      4  C   UNL     1      -0.010  -2.074  -1.192  0.00  0.00    +0.142 A 
ATOM      5  C   UNL     1       0.078  -2.750   0.008  0.00  0.00    +0.083 A 
ATOM      6  C   UNL     1       0.110  -2.020   1.203  0.00  0.00    +0.260 A 
ATOM      7  O   UNL     1       0.188  -2.605   2.272  0.00  0.00    -0.267 OA
ATOM      8  N   UNL     1       0.060  -0.675   1.175  0.00  0.00    -0.315 N 
ATOM      9  C   UNL     1       0.099   0.075   2.432  0.00  0.00    +0.152 C 
ATOM     10  C   UNL     1       0.141  -4.250   0.037  0.00  0.00    +0.144 C 
ATOM     11  C   UNL     1      -1.140  -4.829   0.553  0.00  0.00    -0.002 A 
ATOM     12  C   UNL     1      -2.430  -4.761   0.073  0.00  0.00    +0.007 A 
ATOM     13  C   UNL     1      -3.410  -5.423   0.804  0.00  0.00    +0.000 A 
ATOM     14  C   UNL     1      -3.102  -6.116   1.957  0.00  0.00    +0.002 A 
ATOM     15  C   UNL     1      -1.807  -6.188   2.446  0.00  0.00    +0.024 A 
ATOM     16  C   UNL     1      -0.814  -5.528   1.721  0.00  0.00    +0.041 A 
ATOM     17  N   UNL     1       0.543  -5.435   1.974  0.00  0.00    -0.265 N 
ATOM     18  C   UNL     1       1.184  -4.703   1.039  0.00  0.00    +0.240 C 
ATOM     19  O   UNL     1       2.371  -4.455   1.006  0.00  0.00    -0.274 OA
ATOM     20  C   UNL     1       0.469  -4.794  -1.323  0.00  0.00    +0.117 C 
ATOM     21  C   UNL     1       0.358  -4.018  -2.432  0.00  0.00    +0.196 C 
ATOM     22  O   UNL     1      -0.048  -2.739  -2.366  0.00  0.00    -0.441 OA
ENDROOT
BRANCH  21  23
ATOM     23  N   UNL     1       0.670  -4.553  -3.653  0.00  0.00    -0.329 N 
ATOM     24  H   UNL     1       0.877  -5.498  -3.729  0.00  0.00    +0.145 HD
ATOM     25  H   UNL     1       0.683  -3.989  -4.441  0.00  0.00    +0.145 HD
ENDBRANCH  21  23
BRANCH  20  26
ATOM     26  C   UNL     1       0.896  -6.124  -1.451  0.00  0.00    +0.341 C 
ATOM     27  O   UNL     1       0.087  -7.032  -1.386  0.00  0.00    -0.245 OA
BRANCH  26  28
ATOM     28  O   UNL     1       2.204  -6.397  -1.646  0.00  0.00    -0.465 OA
ATOM     29  C   UNL     1       2.568  -7.774  -1.767  0.00  0.00    +0.280 C 
ENDBRANCH  26  28
ENDBRANCH  20  26
BRANCH  17  30
ATOM     30  C   UNL     1       1.207  -6.057   3.123  0.00  0.00    +0.151 C 
BRANCH  30  31
ATOM     31  C   UNL     1       1.657  -7.446   2.751  0.00  0.00    +0.005 A 
ATOM     32  C   UNL     1       0.905  -8.542   3.129  0.00  0.00    +0.008 A 
ATOM     33  C   UNL     1       1.318  -9.816   2.788  0.00  0.00    +0.000 A 
ATOM     34  C   UNL     1       2.485  -9.996   2.068  0.00  0.00    +0.003 A 
ATOM     35  C   UNL     1       3.239  -8.902   1.689  0.00  0.00    +0.038 A 
ATOM     36  C   UNL     1       2.823  -7.625   2.025  0.00  0.00    +0.128 A 
ATOM     37  F   UNL     1       3.557  -6.554   1.651  0.00  0.00    -0.205 F 
ENDBRANCH  30  31
ENDBRANCH  17  30
TORSDOF 5
