REMARK  Name = ZINC13127653
REMARK  6 active torsions:
REMARK  status: ('A' for Active; 'I' for Inactive)
REMARK    1  A    between atoms: C_1  and  C_2
REMARK    2  A    between atoms: C_2  and  O_3
REMARK    3  A    between atoms: C_8  and  C_22
REMARK    4  A    between atoms: C_11  and  C_15
REMARK    5  A    between atoms: C_25  and  O_28
REMARK    6  A    between atoms: O_28  and  C_29
REMARK                            x       y       z     vdW  Elec       q    Type
REMARK                         _______ _______ _______ _____ _____    ______ ____
ROOT
ATOM      1  C   UNL     1      -0.018   1.503   0.010  0.00  0.00    +0.107 C 
ATOM      2  C   UNL     1       0.002  -0.004   0.002  0.00  0.00    +0.164 C 
ATOM      3  N   UNL     1       0.000  -0.648  -1.127  0.00  0.00    -0.298 N 
ATOM      4  C   UNL     1       0.019  -2.020  -1.134  0.00  0.00    +0.251 A 
ATOM      5  N   UNL     1       0.024  -2.781  -2.212  0.00  0.00    -0.129 NA
ATOM      6  N   UNL     1       0.042  -4.103  -1.769  0.00  0.00    -0.219 N 
ATOM      7  C   UNL     1       0.045  -5.343  -2.539  0.00  0.00    +0.165 C 
ATOM      8  C   UNL     1       0.359  -6.503  -1.634  0.00  0.00    +0.028 C 
ATOM      9  C   UNL     1       0.364  -6.415  -0.311  0.00  0.00    +0.039 C 
ATOM     10  N   UNL     1       0.079  -5.215   0.354  0.00  0.00    -0.283 N 
ATOM     11  C   UNL     1       0.051  -4.059  -0.412  0.00  0.00    +0.220 A 
ATOM     12  N   UNL     1       0.040  -2.808  -0.044  0.00  0.00    -0.178 NA
ATOM     13  H   UNL     1      -0.015  -0.158  -1.964  0.00  0.00    +0.171 HD
ATOM     14  H   UNL     1      -0.091  -5.193   1.309  0.00  0.00    +0.155 HD
ENDROOT
BRANCH   9  15
ATOM     15  C   UNL     1       0.679  -7.621   0.488  0.00  0.00    -0.004 A 
ATOM     16  C   UNL     1       0.972  -8.826  -0.150  0.00  0.00    +0.011 A 
ATOM     17  C   UNL     1       1.265  -9.947   0.599  0.00  0.00    +0.020 A 
ATOM     18  C   UNL     1       1.269  -9.877   1.982  0.00  0.00    +0.041 A 
ATOM     19  C   UNL     1       0.979  -8.683   2.621  0.00  0.00    +0.020 A 
ATOM     20  C   UNL     1       0.691  -7.555   1.881  0.00  0.00    +0.011 A 
ATOM     21 CL   UNL     1       1.638 -11.291   2.919  0.00  0.00    -0.084 Cl
ENDBRANCH   9  15
BRANCH   7  22
ATOM     22  C   UNL     1      -1.311  -5.549  -3.163  0.00  0.00    -0.019 A 
ATOM     23  C   UNL     1      -2.432  -5.651  -2.361  0.00  0.00    +0.009 A 
ATOM     24  C   UNL     1      -3.676  -5.840  -2.930  0.00  0.00    +0.046 A 
ATOM     25  C   UNL     1      -3.800  -5.928  -4.309  0.00  0.00    +0.120 A 
ATOM     26  C   UNL     1      -2.674  -5.825  -5.113  0.00  0.00    +0.046 A 
ATOM     27  C   UNL     1      -1.433  -5.631  -4.538  0.00  0.00    +0.009 A 
BRANCH  25  28
ATOM     28  O   UNL     1      -5.023  -6.114  -4.872  0.00  0.00    -0.495 OA
ATOM     29  C   UNL     1      -5.075  -6.195  -6.298  0.00  0.00    +0.277 C 
ENDBRANCH  25  28
ENDBRANCH   7  22
BRANCH   2  30
ATOM     30  O   UNL     1       0.022  -0.685   1.166  0.00  0.00    -0.497 OA
ATOM     31  H   UNL     1       0.022  -0.120   1.952  0.00  0.00    +0.293 HD
ENDBRANCH   2  30
TORSDOF 4
