REMARK  Name = ZINC10244786
REMARK  11 active torsions:
REMARK  status: ('A' for Active; 'I' for Inactive)
REMARK    1  A    between atoms: C_1  and  C_2
REMARK    2  A    between atoms: C_2  and  O_3
REMARK    3  A    between atoms: O_3  and  C_4
REMARK    4  A    between atoms: C_4  and  C_6
REMARK    5  A    between atoms: C_6  and  N_7
REMARK    6  A    between atoms: C_8  and  C_10
REMARK    7  A    between atoms: C_10  and  S_11
REMARK    8  A    between atoms: S_11  and  C_12
REMARK    9  A    between atoms: N_26  and  C_27
REMARK   10  A    between atoms: C_29  and  C_34
REMARK   11  A    between atoms: C_32  and  C_33
REMARK                            x       y       z     vdW  Elec       q    Type
REMARK                         _______ _______ _______ _____ _____    ______ ____
ROOT
ATOM      1  C   UNL     1       1.335   5.813   0.023  0.00  0.00    +0.177 A 
ATOM      2  N   UNL     1       0.770   4.627   0.022  0.00  0.00    -0.221 NA
ATOM      3  C   UNL     1       1.511   3.507   0.007  0.00  0.00    +0.104 A 
ATOM      4  C   UNL     1       1.184   2.074   0.002  0.00  0.00    +0.026 A 
ATOM      5  C   UNL     1      -0.017   1.362   0.009  0.00  0.00    +0.012 A 
ATOM      6  C   UNL     1       0.002  -0.004   0.002  0.00  0.00    +0.001 A 
ATOM      7  C   UNL     1       1.208  -0.691  -0.013  0.00  0.00    +0.002 A 
ATOM      8  C   UNL     1       2.404  -0.009  -0.021  0.00  0.00    +0.026 A 
ATOM      9  C   UNL     1       2.408   1.384  -0.014  0.00  0.00    +0.049 A 
ATOM     10  N   UNL     1       3.427   2.312  -0.018  0.00  0.00    -0.349 N 
ATOM     11  H   UNL     1       4.374   2.099  -0.029  0.00  0.00    +0.166 HD
ATOM     12  C   UNL     1       2.902   3.595  -0.005  0.00  0.00    +0.132 A 
ATOM     13  C   UNL     1       3.496   4.874  -0.003  0.00  0.00    +0.283 A 
ATOM     14  O   UNL     1       4.709   4.998  -0.015  0.00  0.00    -0.265 OA
ATOM     15  N   UNL     1       2.693   5.960   0.011  0.00  0.00    -0.254 N 
ENDROOT
BRANCH  15  16
ATOM     16  C   UNL     1       3.256   7.243   0.013  0.00  0.00    +0.055 A 
ATOM     17  C   UNL     1       3.524   7.887  -1.188  0.00  0.00    +0.030 A 
ATOM     18  C   UNL     1       4.078   9.152  -1.182  0.00  0.00    -0.048 A 
ATOM     19  C   UNL     1       4.367   9.777   0.018  0.00  0.00    +0.004 A 
ATOM     20  C   UNL     1       4.101   9.138   1.215  0.00  0.00    +0.005 A 
ATOM     21  C   UNL     1       3.541   7.875   1.216  0.00  0.00    -0.026 A 
ATOM     22  C   UNL     1       3.246   7.181   2.521  0.00  0.00    +0.046 C 
ATOM     23  C   UNL     1       4.370   9.852  -2.484  0.00  0.00    +0.044 C 
ENDBRANCH  15  16
BRANCH   1  24
ATOM     24  S   UNL     1       0.315   7.250   0.043  0.00  0.00    -0.078 S 
BRANCH  24  25
ATOM     25  C   UNL     1      -1.320   6.475   0.054  0.00  0.00    +0.173 C 
BRANCH  25  27
ATOM     26  N   UNL     1      -3.686   7.199   0.083  0.00  0.00    -0.304 N 
ATOM     27  C   UNL     1      -2.383   7.544   0.072  0.00  0.00    +0.224 C 
ATOM     28  O   UNL     1      -2.065   8.714   0.076  0.00  0.00    -0.275 OA
ATOM     29  H   UNL     1      -3.939   6.263   0.079  0.00  0.00    +0.149 HD
BRANCH  26  30
ATOM     30  C   UNL     1      -4.718   8.238   0.100  0.00  0.00    +0.224 C 
BRANCH  30  31
ATOM     31  C   UNL     1      -6.080   7.593   0.109  0.00  0.00    +0.324 C 
ATOM     32  O   UNL     1      -6.178   6.388   0.102  0.00  0.00    -0.249 OA
BRANCH  31  33
ATOM     33  O   UNL     1      -7.184   8.356   0.125  0.00  0.00    -0.464 OA
BRANCH  33  35
ATOM     34  C   UNL     1      -9.596   8.693   0.151  0.00  0.00    +0.048 C 
ATOM     35  C   UNL     1      -8.462   7.666   0.133  0.00  0.00    +0.229 C 
ENDBRANCH  33  35
ENDBRANCH  31  33
ENDBRANCH  30  31
ENDBRANCH  26  30
ENDBRANCH  25  27
ENDBRANCH  24  25
ENDBRANCH   1  24
TORSDOF 8
