REMARK  Name = ZINC04729402
REMARK  9 active torsions:
REMARK  status: ('A' for Active; 'I' for Inactive)
REMARK    1  A    between atoms: C_1  and  C_2
REMARK    2  A    between atoms: C_2  and  O_3
REMARK    3  A    between atoms: O_3  and  C_4
REMARK    4  A    between atoms: C_7  and  C_10
REMARK    5  A    between atoms: C_12  and  C_24
REMARK    6  A    between atoms: C_14  and  C_17
REMARK    7  A    between atoms: C_22  and  O_23
REMARK    8  A    between atoms: C_27  and  O_30
REMARK    9  A    between atoms: O_30  and  C_31
REMARK                            x       y       z     vdW  Elec       q    Type
REMARK                         _______ _______ _______ _____ _____    ______ ____
ROOT
ATOM      1  C   UNL     1       1.130   6.588  -1.836  0.00  0.00    +0.040 C 
ATOM      2  N   UNL     1       1.119   6.127  -0.641  0.00  0.00    -0.299 NA
ATOM      3  C   UNL     1      -0.074   5.628   0.031  0.00  0.00    +0.081 C 
ATOM      4  C   UNL     1      -1.208   5.808  -2.090  0.00  0.00    -0.028 C 
ATOM      5  C   UNL     1      -0.102   6.678  -2.693  0.00  0.00    +0.044 C 
ATOM      6  N   UNL     1      -1.291   6.101  -0.646  0.00  0.00    +0.401 N 
ATOM      7  H   UNL     1      -1.386   7.114  -0.509  0.00  0.00    -0.081 HD
ATOM      8  H   UNL     1      -2.109   5.624  -0.248  0.00  0.00    -0.081 HD
ENDROOT
BRANCH   1  12
ATOM      9  C   UNL     1       4.822   7.920  -3.454  0.00  0.00    +0.121 A 
ATOM     10  C   UNL     1       4.775   7.415  -2.160  0.00  0.00    +0.046 A 
ATOM     11  C   UNL     1       3.579   6.982  -1.631  0.00  0.00    +0.013 A 
ATOM     12  C   UNL     1       2.413   7.051  -2.398  0.00  0.00    -0.004 A 
ATOM     13  C   UNL     1       2.466   7.553  -3.701  0.00  0.00    +0.013 A 
ATOM     14  C   UNL     1       3.665   7.989  -4.220  0.00  0.00    +0.046 A 
BRANCH   9  15
ATOM     15  O   UNL     1       6.003   8.345  -3.972  0.00  0.00    -0.492 OA
BRANCH  15  17
ATOM     16  C   UNL     1       7.392   9.279  -5.715  0.00  0.00    +0.048 C 
ATOM     17  C   UNL     1       5.981   8.852  -5.308  0.00  0.00    +0.225 C 
ENDBRANCH  15  17
ENDBRANCH   9  15
ENDBRANCH   1  12
BRANCH   4  18
ATOM     18  C   UNL     1      -2.525   6.132  -2.747  0.00  0.00    -0.019 A 
ATOM     19  C   UNL     1      -3.371   7.064  -2.177  0.00  0.00    +0.005 A 
ATOM     20  C   UNL     1      -4.579   7.362  -2.780  0.00  0.00    +0.000 A 
ATOM     21  C   UNL     1      -4.944   6.730  -3.954  0.00  0.00    +0.004 A 
ATOM     22  C   UNL     1      -4.101   5.798  -4.528  0.00  0.00    +0.045 A 
ATOM     23  C   UNL     1      -2.886   5.500  -3.928  0.00  0.00    +0.118 A 
BRANCH  23  24
ATOM     24  O   UNL     1      -2.053   4.587  -4.494  0.00  0.00    -0.507 OA
ATOM     25  H   UNL     1      -2.202   3.680  -4.194  0.00  0.00    +0.292 HD
ENDBRANCH  23  24
ENDBRANCH   4  18
BRANCH   3  26
ATOM     26  C   UNL     1      -0.054   4.121   0.024  0.00  0.00    -0.040 A 
ATOM     27  C   UNL     1       1.153   3.447   0.009  0.00  0.00    +0.007 A 
ATOM     28  C   UNL     1       1.175   2.066   0.002  0.00  0.00    +0.046 A 
ATOM     29  C   UNL     1      -0.016   1.355   0.009  0.00  0.00    +0.120 A 
ATOM     30  C   UNL     1      -1.226   2.033   0.019  0.00  0.00    +0.046 A 
ATOM     31  C   UNL     1      -1.242   3.414   0.031  0.00  0.00    +0.007 A 
BRANCH  29  32
ATOM     32  O   UNL     1       0.002  -0.004   0.002  0.00  0.00    -0.495 OA
ATOM     33  C   UNL     1      -1.262  -0.670   0.011  0.00  0.00    +0.277 C 
ENDBRANCH  29  32
ENDBRANCH   3  26
TORSDOF 7
