REMARK  Name = ZINC36575863
REMARK  9 active torsions:
REMARK  status: ('A' for Active; 'I' for Inactive)
REMARK    1  A    between atoms: C_1  and  C_2
REMARK    2  A    between atoms: C_2  and  C_3
REMARK    3  A    between atoms: C_2  and  C_4
REMARK    4  A    between atoms: C_4  and  C_5
REMARK    5  A    between atoms: C_5  and  C_7
REMARK    6  A    between atoms: C_5  and  N_11
REMARK    7  A    between atoms: C_7  and  O_9
REMARK    8  A    between atoms: O_9  and  C_10
REMARK    9  A    between atoms: C_23  and  C_25
REMARK                            x       y       z     vdW  Elec       q    Type
REMARK                         _______ _______ _______ _____ _____    ______ ____
ROOT
ATOM      1  N   UNL     1       0.090   0.907  -2.514  0.00  0.00    -0.286 N 
ATOM      2  C   UNL     1      -0.401  -0.254  -2.993  0.00  0.00    +0.304 C 
ATOM      3  O   UNL     1      -1.329  -0.800  -2.429  0.00  0.00    -0.253 OA
ATOM      4  N   UNL     1       0.138  -0.808  -4.097  0.00  0.00    -0.273 N 
ATOM      5  C   UNL     1      -0.454  -2.012  -4.701  0.00  0.00    +0.116 C 
ATOM      6  C   UNL     1      -0.975  -1.666  -6.102  0.00  0.00    +0.074 C 
ATOM      7  C   UNL     1       0.069  -0.851  -6.820  0.00  0.00    +0.040 A 
ATOM      8  C   UNL     1       1.091  -0.205  -6.219  0.00  0.00    +0.062 A 
ATOM      9  N   UNL     1       1.805   0.411  -7.164  0.00  0.00    -0.348 N 
ATOM     10  C   UNL     1       1.267   0.172  -8.331  0.00  0.00    +0.171 A 
ATOM     11  N   UNL     1       0.180  -0.615  -8.157  0.00  0.00    -0.349 N 
ATOM     12  H   UNL     1      -0.408  -0.947  -8.852  0.00  0.00    +0.166 HD
ATOM     13  C   UNL     1       1.331  -0.220  -4.732  0.00  0.00    +0.156 C 
ATOM     14  H   UNL     1       0.880   1.301  -2.914  0.00  0.00    +0.151 HD
ATOM     15  H   UNL     1       2.596   0.951  -7.009  0.00  0.00    +0.167 HD
ENDROOT
BRANCH  13  16
ATOM     16  C   UNL     1       2.544  -1.058  -4.421  0.00  0.00    -0.018 A 
ATOM     17  C   UNL     1       2.630  -2.353  -4.899  0.00  0.00    +0.006 A 
ATOM     18  C   UNL     1       3.742  -3.123  -4.614  0.00  0.00    +0.003 A 
ATOM     19  C   UNL     1       4.769  -2.600  -3.850  0.00  0.00    +0.038 A 
ATOM     20  C   UNL     1       4.684  -1.304  -3.372  0.00  0.00    +0.124 A 
ATOM     21  C   UNL     1       3.572  -0.531  -3.663  0.00  0.00    +0.044 A 
ATOM     22  F   UNL     1       5.686  -0.791  -2.626  0.00  0.00    -0.205 F 
ENDBRANCH  13  16
BRANCH   1  23
ATOM     23  C   UNL     1      -0.572   1.573  -1.389  0.00  0.00    +0.183 C 
BRANCH  23  24
ATOM     24  C   UNL     1       0.424   2.438  -0.662  0.00  0.00    +0.327 C 
ATOM     25  O   UNL     1       1.569   2.494  -1.044  0.00  0.00    -0.249 OA
BRANCH  24  26
ATOM     26  O   UNL     1       0.040   3.148   0.410  0.00  0.00    -0.467 OA
ATOM     27  C   UNL     1       1.036   3.947   1.051  0.00  0.00    +0.280 C 
ENDBRANCH  24  26
ENDBRANCH  23  24
BRANCH  23  28
ATOM     28  C   UNL     1      -1.717   2.442  -1.913  0.00  0.00    +0.036 C 
BRANCH  28  30
ATOM     29  C   UNL     1      -3.414   0.665  -1.462  0.00  0.00    +0.007 C 
ATOM     30  C   UNL     1      -2.788   1.550  -2.542  0.00  0.00    -0.015 C 
ATOM     31  C   UNL     1      -3.872   2.424  -3.176  0.00  0.00    +0.007 C 
ENDBRANCH  28  30
ENDBRANCH  23  28
ENDBRANCH   1  23
TORSDOF 6
