REMARK  Name = ZINC36534342
REMARK  11 active torsions:
REMARK  status: ('A' for Active; 'I' for Inactive)
REMARK    1  A    between atoms: C_1  and  C_2
REMARK    2  A    between atoms: C_5  and  S_8
REMARK    3  A    between atoms: S_8  and  C_11
REMARK    4  A    between atoms: C_11  and  N_12
REMARK    5  A    between atoms: C_13  and  C_15
REMARK    6  A    between atoms: C_15  and  C_17
REMARK    7  A    between atoms: C_15  and  N_24
REMARK    8  A    between atoms: C_22  and  O_23
REMARK    9  A    between atoms: N_24  and  C_25
REMARK   10  A    between atoms: C_26  and  C_28
REMARK   11  A    between atoms: C_28  and  C_29
REMARK                            x       y       z     vdW  Elec       q    Type
REMARK                         _______ _______ _______ _____ _____    ______ ____
ROOT
ATOM      1  C   UNL     1       3.163  -4.858   3.507  0.00  0.00    +0.195 C 
ENDROOT
BRANCH   1   2
ATOM      2  C   UNL     1       4.473  -4.199   3.158  0.00  0.00    +0.023 A 
ATOM      3  C   UNL     1       5.096  -4.490   1.959  0.00  0.00    +0.009 A 
ATOM      4  C   UNL     1       6.298  -3.887   1.639  0.00  0.00    +0.001 A 
ATOM      5  C   UNL     1       6.880  -2.991   2.517  0.00  0.00    +0.004 A 
ATOM      6  C   UNL     1       6.261  -2.696   3.716  0.00  0.00    +0.046 A 
ATOM      7  C   UNL     1       5.052  -3.296   4.037  0.00  0.00    +0.122 A 
BRANCH   7   8
ATOM      8  O   UNL     1       4.439  -3.004   5.214  0.00  0.00    -0.506 OA
ATOM      9  H   UNL     1       4.697  -3.580   5.947  0.00  0.00    +0.292 HD
ENDBRANCH   7   8
ENDBRANCH   1   2
BRANCH   1  11
ATOM     10  N   UNL     1       2.241  -4.638   1.222  0.00  0.00    -0.294 N 
ATOM     11  C   UNL     1       2.546  -5.440   2.261  0.00  0.00    +0.239 C 
ATOM     12  O   UNL     1       2.325  -6.631   2.194  0.00  0.00    -0.273 OA
ATOM     13  H   UNL     1       2.418  -3.686   1.276  0.00  0.00    +0.150 HD
BRANCH  10  14
ATOM     14  C   UNL     1       1.641  -5.204   0.011  0.00  0.00    +0.278 C 
BRANCH  14  15
ATOM     15  S   UNL     1      -0.164  -5.050   0.102  0.00  0.00    +0.013 S 
ATOM     16  O   UNL     1      -0.630  -5.485   1.371  0.00  0.00    -0.168 OA
ATOM     17  O   UNL     1      -0.757  -5.537  -1.094  0.00  0.00    -0.168 OA
BRANCH  15  22
ATOM     18  C   UNL     1      -1.220   0.890   0.031  0.00  0.00    +0.044 C 
ATOM     19  C   UNL     1      -0.956  -0.593   0.049  0.00  0.00    -0.050 A 
ATOM     20  C   UNL     1      -0.896  -1.298  -1.139  0.00  0.00    +0.005 A 
ATOM     21  C   UNL     1      -0.654  -2.659  -1.123  0.00  0.00    +0.027 A 
ATOM     22  C   UNL     1      -0.471  -3.315   0.081  0.00  0.00    +0.090 A 
ATOM     23  C   UNL     1      -0.531  -2.609   1.268  0.00  0.00    +0.027 A 
ATOM     24  C   UNL     1      -0.768  -1.248   1.252  0.00  0.00    +0.005 A 
ENDBRANCH  15  22
ENDBRANCH  14  15
ENDBRANCH  10  14
ENDBRANCH   1  11
BRANCH   1  25
ATOM     25  N   UNL     1       3.398  -5.926   4.481  0.00  0.00    -0.289 N 
ATOM     26  C   UNL     1       4.372  -6.981   4.191  0.00  0.00    +0.133 C 
ATOM     27  C   UNL     1       2.717  -5.939   5.644  0.00  0.00    +0.221 C 
ATOM     28  O   UNL     1       1.911  -5.066   5.885  0.00  0.00    -0.275 OA
BRANCH  27  29
ATOM     29  C   UNL     1       2.959  -7.038   6.647  0.00  0.00    +0.131 C 
BRANCH  29  30
ATOM     30  C   UNL     1       2.079  -6.822   7.851  0.00  0.00    -0.035 A 
ATOM     31  C   UNL     1       2.537  -6.062   8.912  0.00  0.00    +0.008 A 
ATOM     32  C   UNL     1       1.734  -5.861  10.019  0.00  0.00    +0.050 A 
ATOM     33  C   UNL     1       0.468  -6.420  10.068  0.00  0.00    +0.166 A 
ATOM     34  C   UNL     1       0.007  -7.186   9.000  0.00  0.00    +0.166 A 
ATOM     35  C   UNL     1       0.815  -7.379   7.891  0.00  0.00    +0.053 A 
ATOM     36  O   UNL     1      -1.255  -7.620   9.287  0.00  0.00    -0.453 OA
ATOM     37  C   UNL     1      -1.404  -7.455  10.709  0.00  0.00    +0.466 C 
ATOM     38  O   UNL     1      -0.505  -6.375  11.024  0.00  0.00    -0.453 OA
ENDBRANCH  29  30
ENDBRANCH  27  29
ENDBRANCH   1  25
TORSDOF 9
