REMARK  Name = ZINC39711510
REMARK  12 active torsions:
REMARK  status: ('A' for Active; 'I' for Inactive)
REMARK    1  A    between atoms: C_1  and  C_2
REMARK    2  A    between atoms: C_2  and  O_3
REMARK    3  A    between atoms: O_3  and  C_4
REMARK    4  A    between atoms: C_11  and  C_16
REMARK    5  A    between atoms: C_16  and  C_18
REMARK    6  A    between atoms: C_16  and  N_28
REMARK    7  A    between atoms: N_23  and  C_24
REMARK    8  A    between atoms: C_24  and  C_25
REMARK    9  A    between atoms: C_24  and  C_26
REMARK   10  A    between atoms: C_24  and  C_27
REMARK   11  A    between atoms: N_31  and  C_34
REMARK   12  A    between atoms: C_34  and  C_35
REMARK                            x       y       z     vdW  Elec       q    Type
REMARK                         _______ _______ _______ _____ _____    ______ ____
ROOT
ATOM      1  C   UNL     1       3.623  -6.172  -3.945  0.00  0.00    -0.009 C 
ENDROOT
BRANCH   1   9
ATOM      2  C   UNL     1      -0.563  -4.113  -7.455  0.00  0.00    +0.121 A 
ATOM      3  C   UNL     1      -0.317  -2.795  -7.052  0.00  0.00    +0.047 A 
ATOM      4  C   UNL     1       0.458  -2.491  -5.980  0.00  0.00    +0.027 A 
ATOM      5  C   UNL     1       1.056  -3.511  -5.216  0.00  0.00    +0.041 A 
ATOM      6  N   UNL     1       1.815  -3.197  -4.166  0.00  0.00    -0.285 N 
ATOM      7  C   UNL     1       2.406  -4.104  -3.406  0.00  0.00    +0.223 C 
ATOM      8  O   UNL     1       3.087  -3.757  -2.459  0.00  0.00    -0.275 OA
ATOM      9  C   UNL     1       2.233  -5.573  -3.719  0.00  0.00    +0.088 C 
ATOM     10  C   UNL     1       1.372  -5.935  -4.912  0.00  0.00    -0.006 C 
ATOM     11  C   UNL     1       0.816  -4.908  -5.616  0.00  0.00    -0.004 A 
ATOM     12  C   UNL     1      -0.034  -5.170  -6.779  0.00  0.00    +0.055 A 
ATOM     13  H   UNL     1       1.938  -2.260  -3.948  0.00  0.00    +0.155 HD
BRANCH   2  14
ATOM     14  O   UNL     1      -1.349  -4.342  -8.540  0.00  0.00    -0.492 OA
BRANCH  14  16
ATOM     15  C   UNL     1      -2.731  -3.651 -10.398  0.00  0.00    +0.048 C 
ATOM     16  C   UNL     1      -1.878  -3.197  -9.212  0.00  0.00    +0.225 C 
ENDBRANCH  14  16
ENDBRANCH   2  14
ENDBRANCH   1   9
BRANCH   1  17
ATOM     17  N   UNL     1       3.499  -7.611  -4.209  0.00  0.00    +0.386 N 
ATOM     18  C   UNL     1       2.704  -8.238  -3.144  0.00  0.00    -0.063 C 
ATOM     19  C   UNL     1       2.559  -9.734  -3.429  0.00  0.00    +0.066 C 
ATOM     20  N   UNL     1       3.892 -10.349  -3.496  0.00  0.00    -0.302 NA
ATOM     21  C   UNL     1       4.708  -9.715  -4.541  0.00  0.00    +0.066 C 
ATOM     22  C   UNL     1       4.836  -8.219  -4.247  0.00  0.00    -0.063 C 
ATOM     23  H   UNL     1       3.041  -7.752  -5.097  0.00  0.00    -0.081 HD
BRANCH  20  24
ATOM     24  C   UNL     1       3.793 -11.799  -3.712  0.00  0.00    +0.119 C 
BRANCH  24  25
ATOM     25  C   UNL     1       5.151 -12.428  -3.530  0.00  0.00    -0.033 A 
ATOM     26  C   UNL     1       6.005 -12.553  -4.610  0.00  0.00    +0.005 A 
ATOM     27  C   UNL     1       7.250 -13.130  -4.444  0.00  0.00    +0.000 A 
ATOM     28  C   UNL     1       7.641 -13.581  -3.197  0.00  0.00    +0.000 A 
ATOM     29  C   UNL     1       6.788 -13.455  -2.117  0.00  0.00    +0.000 A 
ATOM     30  C   UNL     1       5.545 -12.874  -2.283  0.00  0.00    +0.005 A 
ENDBRANCH  24  25
ENDBRANCH  20  24
ENDBRANCH   1  17
BRANCH   1  31
ATOM     31  C   UNL     1       4.284  -5.488  -5.144  0.00  0.00    +0.205 C 
ATOM     32  N   UNL     1       3.636  -5.907  -6.394  0.00  0.00    -0.152 NA
ATOM     33  N   UNL     1       4.470  -6.472  -7.105  0.00  0.00    -0.070 NA
ATOM     34  N   UNL     1       5.733  -6.534  -6.516  0.00  0.00    -0.179 N 
ATOM     35  N   UNL     1       5.686  -5.932  -5.282  0.00  0.00    -0.183 NA
ATOM     36  H   UNL     1       6.520  -6.937  -6.915  0.00  0.00    +0.191 HD
BRANCH  35  37
ATOM     37  C   UNL     1       6.609  -4.791  -5.215  0.00  0.00    +0.035 C 
ATOM     38  C   UNL     1       6.456  -4.090  -3.864  0.00  0.00    +0.029 C 
ATOM     39  C   UNL     1       8.048  -5.289  -5.372  0.00  0.00    +0.029 C 
ATOM     40  C   UNL     1       6.285  -3.806  -6.340  0.00  0.00    +0.029 C 
ENDBRANCH  35  37
ENDBRANCH   1  31
TORSDOF 8
