REMARK  Name = ZINC12894488
REMARK  6 active torsions:
REMARK  status: ('A' for Active; 'I' for Inactive)
REMARK    1  A    between atoms: C_1  and  C_2
REMARK    2  A    between atoms: C_3  and  C_26
REMARK    3  A    between atoms: C_4  and  C_19
REMARK    4  A    between atoms: N_9  and  C_10
REMARK    5  A    between atoms: C_26  and  O_28
REMARK    6  A    between atoms: O_28  and  C_29
REMARK                            x       y       z     vdW  Elec       q    Type
REMARK                         _______ _______ _______ _____ _____    ______ ____
ROOT
ATOM      1  C   UNL     1       4.360  -2.944   2.919  0.00  0.00    +0.062 C 
ATOM      2  C   UNL     1       5.358  -1.817   2.849  0.00  0.00    +0.029 C 
ATOM      3  C   UNL     1       6.541  -1.936   3.491  0.00  0.00    +0.078 C 
ATOM      4  C   UNL     1       7.515  -0.780   3.394  0.00  0.00    +0.144 C 
ATOM      5  N   UNL     1       7.090   0.387   2.603  0.00  0.00    -0.288 N 
ATOM      6  C   UNL     1       5.878   0.356   2.015  0.00  0.00    +0.311 C 
ATOM      7  O   UNL     1       5.519   1.313   1.356  0.00  0.00    -0.252 OA
ATOM      8  N   UNL     1       5.053  -0.691   2.138  0.00  0.00    -0.228 N 
ATOM      9  H   UNL     1       7.670   1.158   2.505  0.00  0.00    +0.151 HD
ENDROOT
BRANCH   8  10
ATOM     10  C   UNL     1       3.808  -0.632   1.495  0.00  0.00    +0.046 A 
ATOM     11  C   UNL     1       3.675  -1.095   0.193  0.00  0.00    +0.028 A 
ATOM     12  C   UNL     1       2.449  -1.038  -0.441  0.00  0.00    +0.051 A 
ATOM     13  C   UNL     1       1.348  -0.518   0.220  0.00  0.00    +0.166 A 
ATOM     14  C   UNL     1       1.478  -0.053   1.527  0.00  0.00    +0.168 A 
ATOM     15  C   UNL     1       2.707  -0.111   2.161  0.00  0.00    +0.073 A 
ATOM     16  O   UNL     1       0.263   0.404   1.950  0.00  0.00    -0.453 OA
ATOM     17  C   UNL     1      -0.699  -0.160   1.039  0.00  0.00    +0.466 C 
ATOM     18  O   UNL     1       0.051  -0.352  -0.175  0.00  0.00    -0.453 OA
ENDBRANCH   8  10
BRANCH   4  19
ATOM     19  C   UNL     1       8.798  -1.301   2.800  0.00  0.00    -0.022 A 
ATOM     20  C   UNL     1       8.900  -1.489   1.434  0.00  0.00    +0.007 A 
ATOM     21  C   UNL     1      10.079  -1.963   0.888  0.00  0.00    +0.015 A 
ATOM     22  C   UNL     1      11.151  -2.259   1.709  0.00  0.00    +0.018 A 
ATOM     23  C   UNL     1      11.046  -2.076   3.076  0.00  0.00    +0.015 A 
ATOM     24  C   UNL     1       9.870  -1.598   3.621  0.00  0.00    +0.007 A 
ATOM     25 BR   UNL     1      12.761  -2.915   0.964  0.00  0.00    -0.050 Br
ENDBRANCH   4  19
BRANCH   3  26
ATOM     26  C   UNL     1       6.859  -3.100   4.229  0.00  0.00    +0.339 C 
ATOM     27  O   UNL     1       6.061  -4.017   4.293  0.00  0.00    -0.245 OA
BRANCH  26  28
ATOM     28  O   UNL     1       8.047  -3.195   4.861  0.00  0.00    -0.465 OA
ATOM     29  C   UNL     1       8.301  -4.399   5.588  0.00  0.00    +0.280 C 
ENDBRANCH  26  28
ENDBRANCH   3  26
TORSDOF 4
