REMARK  Name = ZINC38613518
REMARK  9 active torsions:
REMARK  status: ('A' for Active; 'I' for Inactive)
REMARK    1  A    between atoms: C_1  and  C_2
REMARK    2  A    between atoms: C_4  and  C_15
REMARK    3  A    between atoms: C_5  and  C_14
REMARK    4  A    between atoms: N_7  and  C_8
REMARK    5  A    between atoms: C_18  and  C_20
REMARK    6  A    between atoms: N_22  and  N_23
REMARK    7  A    between atoms: C_24  and  C_25
REMARK    8  A    between atoms: C_24  and  C_26
REMARK    9  A    between atoms: C_31  and  O_32
REMARK                            x       y       z     vdW  Elec       q    Type
REMARK                         _______ _______ _______ _____ _____    ______ ____
ROOT
ATOM      1  C   UNL     1      -2.297  -0.751  -1.141  0.00  0.00    +0.076 C 
ATOM      2  N   UNL     1      -2.246   0.011  -2.222  0.00  0.00    -0.153 NA
ATOM      3  N   UNL     1      -3.352   0.095  -2.851  0.00  0.00    -0.148 NA
ATOM      4  C   UNL     1      -4.335  -0.587  -2.313  0.00  0.00    +0.132 C 
ATOM      5  C   UNL     1      -3.732  -1.251  -1.086  0.00  0.00    +0.120 C 
ENDROOT
BRANCH   1   8
ATOM      6  C   UNL     1       0.189   1.001  -0.231  0.00  0.00    +0.035 C 
ATOM      7  C   UNL     1       0.163  -0.526  -0.326  0.00  0.00    +0.124 C 
ATOM      8  C   UNL     1      -1.260  -1.037  -0.250  0.00  0.00    +0.016 C 
ATOM      9  C   UNL     1      -1.333  -1.827   0.852  0.00  0.00    +0.026 C 
ATOM     10  N   UNL     1      -0.144  -1.893   1.497  0.00  0.00    -0.267 N 
ATOM     11  N   UNL     1       0.831  -1.126   0.842  0.00  0.00    -0.246 N 
ATOM     12  C   UNL     1      -2.582  -2.542   1.301  0.00  0.00    +0.062 C 
ATOM     13  H   UNL     1       0.013  -2.405   2.306  0.00  0.00    +0.170 HD
BRANCH  11  14
ATOM     14  C   UNL     1       2.165  -0.961   1.220  0.00  0.00    +0.048 A 
ATOM     15  C   UNL     1       3.009  -0.157   0.465  0.00  0.00    +0.025 A 
ATOM     16  C   UNL     1       4.327   0.004   0.842  0.00  0.00    +0.002 A 
ATOM     17  C   UNL     1       4.809  -0.635   1.970  0.00  0.00    +0.000 A 
ATOM     18  C   UNL     1       3.971  -1.437   2.724  0.00  0.00    +0.002 A 
ATOM     19  C   UNL     1       2.650  -1.597   2.356  0.00  0.00    +0.025 A 
ENDBRANCH  11  14
ENDBRANCH   1   8
BRANCH   4  20
ATOM     20  C   UNL     1      -5.669  -0.687  -2.778  0.00  0.00    +0.280 C 
ATOM     21  O   UNL     1      -6.477  -1.364  -2.168  0.00  0.00    -0.267 OA
ATOM     22  N   UNL     1      -6.043  -0.034  -3.896  0.00  0.00    -0.202 N 
ATOM     23  H   UNL     1      -5.400   0.504  -4.382  0.00  0.00    +0.178 HD
BRANCH  22  24
ATOM     24  N   UNL     1      -7.363  -0.134  -4.356  0.00  0.00    -0.184 NA
ATOM     25  C   UNL     1      -7.749   0.569  -5.378  0.00  0.00    +0.067 C 
ATOM     26  C   UNL     1      -9.198   0.561  -5.794  0.00  0.00    +0.068 C 
BRANCH  25  27
ATOM     27  C   UNL     1      -6.771   1.375  -6.129  0.00  0.00    +0.039 A 
ATOM     28  C   UNL     1      -5.747   0.750  -6.845  0.00  0.00    +0.013 A 
ATOM     29  C   UNL     1      -4.836   1.510  -7.546  0.00  0.00    +0.001 A 
ATOM     30  C   UNL     1      -4.931   2.892  -7.545  0.00  0.00    +0.004 A 
ATOM     31  C   UNL     1      -5.939   3.522  -6.841  0.00  0.00    +0.046 A 
ATOM     32  C   UNL     1      -6.867   2.774  -6.136  0.00  0.00    +0.126 A 
BRANCH  32  33
ATOM     33  O   UNL     1      -7.862   3.393  -5.448  0.00  0.00    -0.506 OA
ATOM     34  H   UNL     1      -7.660   3.542  -4.514  0.00  0.00    +0.292 HD
ENDBRANCH  32  33
ENDBRANCH  25  27
ENDBRANCH  22  24
ENDBRANCH   4  20
TORSDOF 6
