REMARK  Name = ZINC36272360
REMARK  8 active torsions:
REMARK  status: ('A' for Active; 'I' for Inactive)
REMARK    1  A    between atoms: C_1  and  C_2
REMARK    2  A    between atoms: C_2  and  O_3
REMARK    3  A    between atoms: O_3  and  C_4
REMARK    4  A    between atoms: C_7  and  C_13
REMARK    5  A    between atoms: C_9  and  N_10
REMARK    6  A    between atoms: C_14  and  C_23
REMARK    7  A    between atoms: C_17  and  N_22
REMARK    8  A    between atoms: C_23  and  N_24
REMARK                            x       y       z     vdW  Elec       q    Type
REMARK                         _______ _______ _______ _____ _____    ______ ____
ROOT
ATOM      1  C   UNL     1       1.216  -6.074   1.547  0.00  0.00    +0.091 A 
ATOM      2  C   UNL     1       0.136  -6.990   1.467  0.00  0.00    +0.035 A 
ATOM      3  N   UNL     1       0.603  -8.182   1.972  0.00  0.00    -0.303 N 
ATOM      4  C   UNL     1       0.005  -9.394   2.136  0.00  0.00    +0.115 A 
ATOM      5  C   UNL     1       0.722 -10.470   2.688  0.00  0.00    +0.041 A 
ATOM      6  C   UNL     1       2.045 -10.286   3.065  0.00  0.00    +0.028 A 
ATOM      7  C   UNL     1       2.641  -9.030   2.888  0.00  0.00    +0.048 A 
ATOM      8  C   UNL     1       1.905  -7.984   2.338  0.00  0.00    +0.138 A 
ATOM      9  N   UNL     1       2.246  -6.711   2.066  0.00  0.00    -0.228 NA
ENDROOT
BRANCH   1  13
ATOM     10  C   UNL     1       1.145  -2.006   0.319  0.00  0.00    +0.151 A 
ATOM     11  C   UNL     1       0.547  -2.981  -0.473  0.00  0.00    +0.048 A 
ATOM     12  C   UNL     1       0.568  -4.300  -0.079  0.00  0.00    +0.014 A 
ATOM     13  C   UNL     1       1.191  -4.659   1.120  0.00  0.00    +0.004 A 
ATOM     14  C   UNL     1       1.792  -3.677   1.913  0.00  0.00    +0.046 A 
ATOM     15  C   UNL     1       1.771  -2.361   1.510  0.00  0.00    +0.168 A 
BRANCH  15  16
ATOM     16  N   UNL     1       2.412  -1.321   2.346  0.00  0.00    +0.060 N 
ATOM     17  O   UNL     1       3.005  -1.655   3.473  0.00  0.00    -0.126 OA
ATOM     18  O   UNL     1       2.388  -0.061   1.963  0.00  0.00    -0.126 OA
ENDBRANCH  15  16
BRANCH  10  19
ATOM     19  O   UNL     1       1.122  -0.707  -0.073  0.00  0.00    -0.490 OA
BRANCH  19  21
ATOM     20  C   UNL     1       0.538   1.091  -1.579  0.00  0.00    +0.048 C 
ATOM     21  C   UNL     1       0.462  -0.413  -1.305  0.00  0.00    +0.226 C 
ENDBRANCH  19  21
ENDBRANCH  10  19
ENDBRANCH   1  13
BRANCH   5  22
ATOM     22  N   UNL     1       0.112 -11.705   2.856  0.00  0.00    -0.357 N 
ATOM     23  H   UNL     1      -0.813 -11.828   2.591  0.00  0.00    +0.142 HD
ATOM     24  H   UNL     1       0.610 -12.444   3.237  0.00  0.00    +0.142 HD
ENDBRANCH   5  22
BRANCH   2  25
ATOM     25  C   UNL     1      -1.247  -6.714   0.934  0.00  0.00    -0.022 C 
BRANCH  25  26
ATOM     26  N   UNL     1      -2.148  -6.403   2.052  0.00  0.00    +0.383 N 
ATOM     27  C   UNL     1      -1.784  -5.097   2.656  0.00  0.00    -0.078 C 
ATOM     28  C   UNL     1      -3.086  -4.662   3.374  0.00  0.00    -0.020 C 
ATOM     29  C   UNL     1      -4.191  -5.139   2.404  0.00  0.00    -0.020 C 
ATOM     30  C   UNL     1      -3.535  -6.247   1.560  0.00  0.00    -0.078 C 
ATOM     31  H   UNL     1      -2.106  -7.133   2.747  0.00  0.00    -0.081 HD
ENDBRANCH  25  26
ENDBRANCH   2  25
TORSDOF 7
