REMARK  Name = ZINC20725287
REMARK  5 active torsions:
REMARK  status: ('A' for Active; 'I' for Inactive)
REMARK    1  A    between atoms: C_1  and  N_2
REMARK    2  A    between atoms: C_3  and  C_21
REMARK    3  A    between atoms: C_6  and  S_7
REMARK    4  A    between atoms: S_7  and  C_8
REMARK    5  A    between atoms: C_24  and  O_27
REMARK                            x       y       z     vdW  Elec       q    Type
REMARK                         _______ _______ _______ _____ _____    ______ ____
ROOT
ATOM      1  C   UNL     1      -0.039   1.460   0.012  0.00  0.00    +0.153 C 
ATOM      2  N   UNL     1      -0.007  -0.004   0.003  0.00  0.00    -0.305 N 
ATOM      3  C   UNL     1      -0.087  -0.831  -1.094  0.00  0.00    +0.165 A 
ATOM      4  N   UNL     1      -0.019  -2.065  -0.652  0.00  0.00    -0.128 NA
ATOM      5  N   UNL     1       0.096  -2.067   0.628  0.00  0.00    -0.122 NA
ATOM      6  C   UNL     1       0.114  -0.834   1.081  0.00  0.00    +0.192 A 
ENDROOT
BRANCH   3   7
ATOM      7  C   UNL     1      -0.224  -0.409  -2.504  0.00  0.00    +0.019 A 
ATOM      8  C   UNL     1      -0.719  -1.301  -3.457  0.00  0.00    +0.015 A 
ATOM      9  C   UNL     1      -0.846  -0.903  -4.771  0.00  0.00    +0.046 A 
ATOM     10  C   UNL     1      -0.481   0.383  -5.147  0.00  0.00    +0.117 A 
ATOM     11  C   UNL     1       0.012   1.273  -4.202  0.00  0.00    +0.046 A 
ATOM     12  C   UNL     1       0.136   0.885  -2.885  0.00  0.00    +0.015 A 
BRANCH  10  13
ATOM     13  O   UNL     1      -0.607   0.771  -6.443  0.00  0.00    -0.507 OA
ATOM     14  H   UNL     1      -1.465   1.164  -6.654  0.00  0.00    +0.292 HD
ENDBRANCH  10  13
ENDBRANCH   3   7
BRANCH   6  15
ATOM     15  S   UNL     1       0.262  -0.343   2.767  0.00  0.00    -0.073 S 
BRANCH  15  16
ATOM     16  C   UNL     1       0.384  -1.910   3.672  0.00  0.00    +0.141 C 
ATOM     17  C   UNL     1       0.669  -1.617   5.125  0.00  0.00    +0.028 C 
ATOM     18  C   UNL     1       1.115  -2.819   5.899  0.00  0.00    +0.038 C 
ATOM     19  C   UNL     1       0.038  -3.775   6.295  0.00  0.00    -0.026 A 
ATOM     20  C   UNL     1       0.204  -4.387   7.538  0.00  0.00    +0.005 A 
ATOM     21  C   UNL     1      -0.720  -5.281   8.028  0.00  0.00    +0.000 A 
ATOM     22  C   UNL     1      -1.841  -5.581   7.277  0.00  0.00    +0.002 A 
ATOM     23  C   UNL     1      -2.014  -4.987   6.050  0.00  0.00    +0.023 A 
ATOM     24  C   UNL     1      -1.072  -4.078   5.536  0.00  0.00    +0.037 A 
ATOM     25  N   UNL     1      -1.365  -3.588   4.284  0.00  0.00    -0.284 N 
ATOM     26  C   UNL     1      -0.883  -2.668   3.499  0.00  0.00    +0.231 C 
ATOM     27  O   UNL     1      -1.541  -2.402   2.515  0.00  0.00    -0.274 OA
ATOM     28  H   UNL     1      -2.123  -4.044   3.886  0.00  0.00    +0.155 HD
ENDBRANCH  15  16
ENDBRANCH   6  15
TORSDOF 4
