REMARK  Name = ZINC09777940
REMARK  7 active torsions:
REMARK  status: ('A' for Active; 'I' for Inactive)
REMARK    1  A    between atoms: C_1  and  C_2
REMARK    2  A    between atoms: C_5  and  C_8
REMARK    3  A    between atoms: C_13  and  C_18
REMARK    4  A    between atoms: C_26  and  C_36
REMARK    5  A    between atoms: C_27  and  C_28
REMARK    6  A    between atoms: C_28  and  O_30
REMARK    7  A    between atoms: O_30  and  C_31
REMARK                            x       y       z     vdW  Elec       q    Type
REMARK                         _______ _______ _______ _____ _____    ______ ____
ROOT
ATOM      1  C   UNL     1      -1.332   2.114   0.020  0.00  0.00    +0.092 C 
ATOM      2  C   UNL     1      -1.422   2.984  -1.209  0.00  0.00    +0.024 C 
ATOM      3  C   UNL     1      -1.217   4.316  -1.127  0.00  0.00    +0.016 C 
ATOM      4  C   UNL     1      -1.308   5.193  -2.351  0.00  0.00    +0.059 C 
ATOM      5  C   UNL     1      -0.893   4.394  -3.588  0.00  0.00    +0.032 C 
ATOM      6  C   UNL     1      -1.809   3.172  -3.708  0.00  0.00    +0.088 C 
ATOM      7  C   UNL     1      -1.722   2.370  -2.437  0.00  0.00    +0.162 C 
ATOM      8  O   UNL     1      -1.916   1.171  -2.474  0.00  0.00    -0.292 OA
ATOM      9  N   UNL     1      -0.924   4.901   0.076  0.00  0.00    -0.321 N 
ATOM     10  C   UNL     1      -1.220   4.265   1.250  0.00  0.00    +0.016 C 
ATOM     11  C   UNL     1      -1.426   2.937   1.271  0.00  0.00    +0.065 C 
ATOM     12  C   UNL     1      -1.314   5.058   2.527  0.00  0.00    +0.061 C 
ATOM     13  H   UNL     1      -0.447   5.891   0.104  0.00  0.00    +0.152 HD
ENDROOT
BRANCH   1  18
ATOM     14  C   UNL     1       3.711  -0.707  -0.038  0.00  0.00    +0.044 C 
ATOM     15  C   UNL     1       2.396   0.029  -0.021  0.00  0.00    -0.050 A 
ATOM     16  C   UNL     1       1.208  -0.679  -0.014  0.00  0.00    +0.003 A 
ATOM     17  C   UNL     1       0.002  -0.004   0.002  0.00  0.00    +0.005 A 
ATOM     18  C   UNL     1      -0.017   1.378   0.010  0.00  0.00    -0.035 A 
ATOM     19  C   UNL     1       1.171   2.086   0.002  0.00  0.00    +0.005 A 
ATOM     20  C   UNL     1       2.377   1.411  -0.014  0.00  0.00    +0.003 A 
ENDBRANCH   1  18
BRANCH   5  21
ATOM     21  C   UNL     1      -1.034   5.255  -4.817  0.00  0.00    -0.043 A 
ATOM     22  C   UNL     1      -2.265   5.788  -5.149  0.00  0.00    +0.005 A 
ATOM     23  C   UNL     1      -2.394   6.582  -6.273  0.00  0.00    +0.020 A 
ATOM     24  C   UNL     1      -1.293   6.834  -7.072  0.00  0.00    +0.041 A 
ATOM     25  C   UNL     1      -0.062   6.295  -6.742  0.00  0.00    +0.020 A 
ATOM     26  C   UNL     1       0.067   5.506  -5.615  0.00  0.00    +0.005 A 
ATOM     27 CL   UNL     1      -1.456   7.825  -8.488  0.00  0.00    -0.084 Cl
ENDBRANCH   5  21
BRANCH  11  28
ATOM     28  C   UNL     1      -1.739   2.303   2.496  0.00  0.00    +0.338 C 
ATOM     29  O   UNL     1      -1.818   2.960   3.518  0.00  0.00    -0.245 OA
BRANCH  28  30
ATOM     30  O   UNL     1      -1.950   0.971   2.532  0.00  0.00    -0.458 OA
BRANCH  30  31
ATOM     31  C   UNL     1      -2.261   0.398   3.804  0.00  0.00    +0.177 C 
ATOM     32  C   UNL     1      -0.971  -0.095   4.492  0.00  0.00    +0.044 C 
ATOM     33  C   UNL     1      -1.398  -1.399   5.210  0.00  0.00    +0.004 C 
ATOM     34  C   UNL     1      -2.385  -2.038   4.201  0.00  0.00    +0.004 C 
ATOM     35  C   UNL     1      -3.160  -0.838   3.619  0.00  0.00    +0.044 C 
ENDBRANCH  30  31
ENDBRANCH  28  30
ENDBRANCH  11  28
TORSDOF 5
