REMARK  Name = ZINC15776984
REMARK  12 active torsions:
REMARK  status: ('A' for Active; 'I' for Inactive)
REMARK    1  A    between atoms: C_1  and  C_2
REMARK    2  A    between atoms: N_4  and  C_5
REMARK    3  A    between atoms: C_8  and  N_11
REMARK    4  A    between atoms: N_11  and  C_12
REMARK    5  A    between atoms: C_12  and  N_14
REMARK    6  A    between atoms: N_14  and  C_15
REMARK    7  A    between atoms: C_15  and  C_17
REMARK    8  A    between atoms: C_15  and  N_21
REMARK    9  A    between atoms: N_21  and  O_22
REMARK   10  A    between atoms: O_22  and  C_23
REMARK   11  A    between atoms: C_23  and  C_25
REMARK   12  A    between atoms: C_25  and  C_26
REMARK                            x       y       z     vdW  Elec       q    Type
REMARK                         _______ _______ _______ _____ _____    ______ ____
ROOT
ATOM      1  N   UNL     1       0.142   9.688  -0.689  0.00  0.00    -0.305 N 
ATOM      2  H   UNL     1      -0.686  10.193  -0.679  0.00  0.00    +0.149 HD
ENDROOT
BRANCH   1   3
ATOM      3  C   UNL     1       0.120   8.353  -0.508  0.00  0.00    +0.136 C 
ATOM      4  S   UNL     1       1.581   7.462  -0.527  0.00  0.00    -0.019 S 
BRANCH   3   5
ATOM      5  N   UNL     1      -1.054   7.719  -0.312  0.00  0.00    -0.297 N 
ATOM      6  H   UNL     1      -1.875   8.231  -0.239  0.00  0.00    +0.154 HD
BRANCH   5  10
ATOM      7  C   UNL     1      -1.154   3.561  -0.016  0.00  0.00    +0.033 A 
ATOM      8  C   UNL     1      -2.067   4.222  -0.828  0.00  0.00    +0.025 A 
ATOM      9  C   UNL     1      -2.037   5.599  -0.922  0.00  0.00    +0.025 A 
ATOM     10  C   UNL     1      -1.087   6.323  -0.213  0.00  0.00    +0.033 A 
ATOM     11  C   UNL     1      -0.171   5.662   0.595  0.00  0.00    +0.025 A 
ATOM     12  C   UNL     1      -0.204   4.285   0.693  0.00  0.00    +0.025 A 
BRANCH   7  16
ATOM     13  C   UNL     1      -2.400   0.009   0.015  0.00  0.00    +0.109 C 
ATOM     14  C   UNL     1      -2.369   1.516   0.058  0.00  0.00    +0.214 C 
ATOM     15  O   UNL     1      -3.406   2.144   0.073  0.00  0.00    -0.276 OA
ATOM     16  N   UNL     1      -1.188   2.164   0.084  0.00  0.00    -0.286 N 
ATOM     17  H   UNL     1      -0.362   1.664   0.172  0.00  0.00    +0.155 HD
ENDBRANCH   7  16
ENDBRANCH   5  10
ENDBRANCH   3   5
ENDBRANCH   1   3
BRANCH   1  18
ATOM     18  C   UNL     1       1.417  10.377  -0.903  0.00  0.00    +0.228 C 
BRANCH  18  19
ATOM     19  C   UNL     1       1.464  11.642  -0.043  0.00  0.00    +0.224 C 
ATOM     20 CL   UNL     1       1.307  11.193   1.696  0.00  0.00    -0.080 Cl
ATOM     21 CL   UNL     1       3.033  12.490  -0.305  0.00  0.00    -0.080 Cl
ATOM     22 CL   UNL     1       0.106  12.734  -0.507  0.00  0.00    -0.080 Cl
ENDBRANCH  18  19
BRANCH  18  23
ATOM     23  N   UNL     1       1.546  10.743  -2.320  0.00  0.00    -0.127 NA
ATOM     24  H   UNL     1       2.444  11.162  -2.505  0.00  0.00    +0.169 HD
BRANCH  23  25
ATOM     25  O   UNL     1       0.576  11.534  -2.687  0.00  0.00    -0.367 OA
BRANCH  25  26
ATOM     26  C   UNL     1       0.576  11.944  -3.966  0.00  0.00    +0.330 C 
ATOM     27  O   UNL     1       1.449  11.579  -4.717  0.00  0.00    -0.249 OA
BRANCH  26  28
ATOM     28  C   UNL     1      -0.512  12.860  -4.463  0.00  0.00    +0.157 C 
BRANCH  28  29
ATOM     29  C   UNL     1      -0.283  13.168  -5.920  0.00  0.00    -0.037 A 
ATOM     30  C   UNL     1       0.478  14.264  -6.283  0.00  0.00    +0.004 A 
ATOM     31  C   UNL     1       0.693  14.543  -7.620  0.00  0.00    +0.000 A 
ATOM     32  C   UNL     1       0.138  13.734  -8.593  0.00  0.00    +0.000 A 
ATOM     33  C   UNL     1      -0.627  12.642  -8.230  0.00  0.00    +0.000 A 
ATOM     34  C   UNL     1      -0.838  12.359  -6.894  0.00  0.00    +0.004 A 
ENDBRANCH  28  29
ENDBRANCH  26  28
ENDBRANCH  25  26
ENDBRANCH  23  25
ENDBRANCH  18  23
ENDBRANCH   1  18
TORSDOF 11
