REMARK  Name = ZINC22258684
REMARK  8 active torsions:
REMARK  status: ('A' for Active; 'I' for Inactive)
REMARK    1  A    between atoms: C_1  and  C_2
REMARK    2  A    between atoms: C_3  and  C_22
REMARK    3  A    between atoms: C_4  and  C_21
REMARK    4  A    between atoms: C_7  and  C_8
REMARK    5  A    between atoms: N_10  and  N_11
REMARK    6  A    between atoms: C_12  and  C_14
REMARK    7  A    between atoms: C_19  and  O_20
REMARK    8  A    between atoms: C_22  and  C_24
REMARK                            x       y       z     vdW  Elec       q    Type
REMARK                         _______ _______ _______ _____ _____    ______ ____
ROOT
ATOM      1  C   UNL     1      -0.374  -0.767   2.560  0.00  0.00    +0.277 C 
ATOM      2  O   UNL     1      -0.527   0.363   2.983  0.00  0.00    -0.267 OA
ATOM      3  N   UNL     1      -0.398  -1.813   3.410  0.00  0.00    -0.229 N 
ATOM      4  H   UNL     1      -0.276  -2.715   3.073  0.00  0.00    +0.173 HD
ENDROOT
BRANCH   1  11
ATOM      5  C   UNL     1      -0.274   1.457   0.378  0.00  0.00    +0.047 C 
ATOM      6  C   UNL     1      -0.118  -0.026   0.165  0.00  0.00    -0.010 A 
ATOM      7  C   UNL     1       0.109  -0.681  -1.070  0.00  0.00    +0.041 A 
ATOM      8  C   UNL     1       0.187  -2.038  -0.800  0.00  0.00    +0.024 A 
ATOM      9  N   UNL     1       0.020  -2.217   0.519  0.00  0.00    -0.354 N 
ATOM     10  H   UNL     1       0.030  -3.073   0.975  0.00  0.00    +0.166 HD
ATOM     11  C   UNL     1      -0.164  -0.992   1.125  0.00  0.00    +0.107 A 
ATOM     12  C   UNL     1       0.420  -3.127  -1.815  0.00  0.00    +0.064 C 
BRANCH   7  13
ATOM     13  C   UNL     1       0.236  -0.044  -2.384  0.00  0.00    +0.162 C 
ATOM     14  O   UNL     1      -0.754   0.174  -3.051  0.00  0.00    -0.292 OA
ATOM     15  C   UNL     1       1.596   0.341  -2.907  0.00  0.00    +0.091 C 
ENDBRANCH   7  13
ENDBRANCH   1  11
BRANCH   3  16
ATOM     16  N   UNL     1      -0.599  -1.599   4.780  0.00  0.00    -0.230 N 
ATOM     17  C   UNL     1      -0.623  -2.645   5.629  0.00  0.00    +0.264 C 
ATOM     18  O   UNL     1      -0.469  -3.775   5.207  0.00  0.00    -0.269 OA
ATOM     19  H   UNL     1      -0.721  -0.697   5.117  0.00  0.00    +0.173 HD
BRANCH  17  20
ATOM     20  C   UNL     1      -0.834  -2.419   7.072  0.00  0.00    +0.079 A 
ATOM     21  C   UNL     1      -1.016  -1.123   7.561  0.00  0.00    +0.017 A 
ATOM     22  C   UNL     1      -1.214  -0.918   8.909  0.00  0.00    +0.001 A 
ATOM     23  C   UNL     1      -1.233  -1.993   9.783  0.00  0.00    +0.004 A 
ATOM     24  C   UNL     1      -1.054  -3.279   9.314  0.00  0.00    +0.046 A 
ATOM     25  C   UNL     1      -0.860  -3.503   7.959  0.00  0.00    +0.129 A 
BRANCH  25  26
ATOM     26  O   UNL     1      -0.689  -4.767   7.495  0.00  0.00    -0.506 OA
ATOM     27  H   UNL     1       0.233  -5.058   7.477  0.00  0.00    +0.292 HD
ENDBRANCH  25  26
ENDBRANCH  17  20
ENDBRANCH   3  16
TORSDOF 5
