REMARK  Name = ZINC39966348
REMARK  10 active torsions:
REMARK  status: ('A' for Active; 'I' for Inactive)
REMARK    1  A    between atoms: C_1  and  C_2
REMARK    2  A    between atoms: C_2  and  C_3
REMARK    3  A    between atoms: C_4  and  C_32
REMARK    4  A    between atoms: C_6  and  N_11
REMARK    5  A    between atoms: C_7  and  C_8
REMARK    6  A    between atoms: C_12  and  C_14
REMARK    7  A    between atoms: C_14  and  S_15
REMARK    8  A    between atoms: S_15  and  C_16
REMARK    9  A    between atoms: C_19  and  C_22
REMARK   10  A    between atoms: N_20  and  C_21
REMARK                            x       y       z     vdW  Elec       q    Type
REMARK                         _______ _______ _______ _____ _____    ______ ____
ROOT
ATOM      1  C   UNL     1       5.758  -2.278  -4.285  0.00  0.00    +0.173 C 
ENDROOT
BRANCH   1   3
ATOM      2  N   UNL     1       3.981  -1.522  -2.739  0.00  0.00    -0.279 N 
ATOM      3  C   UNL     1       4.311  -2.038  -3.940  0.00  0.00    +0.228 C 
ATOM      4  O   UNL     1       3.442  -2.308  -4.742  0.00  0.00    -0.275 OA
ATOM      5  H   UNL     1       4.675  -1.305  -2.097  0.00  0.00    +0.155 HD
BRANCH   2   9
ATOM      6  C   UNL     1       0.691  -0.654  -1.176  0.00  0.00    -0.024 A 
ATOM      7  C   UNL     1       0.013  -1.056  -2.267  0.00  0.00    -0.008 A 
ATOM      8  S   UNL     1       1.299  -1.598  -3.371  0.00  0.00    -0.078 S 
ATOM      9  C   UNL     1       2.650  -1.300  -2.421  0.00  0.00    +0.084 A 
ATOM     10  C   UNL     1       2.129  -0.775  -1.248  0.00  0.00    +0.068 A 
ATOM     11  C   UNL     1      -1.476  -1.050  -2.498  0.00  0.00    +0.052 C 
BRANCH  10  12
ATOM     12  C   UNL     1       2.993  -0.369  -0.135  0.00  0.00    +0.244 C 
ATOM     13  O   UNL     1       3.289  -1.173   0.730  0.00  0.00    -0.270 OA
ATOM     14  N   UNL     1       3.458   0.894  -0.069  0.00  0.00    -0.325 N 
ATOM     15  H   UNL     1       3.222   1.534  -0.758  0.00  0.00    +0.145 HD
ATOM     16  H   UNL     1       4.030   1.163   0.667  0.00  0.00    +0.145 HD
ENDBRANCH  10  12
BRANCH   6  18
ATOM     17  C   UNL     1      -0.159   1.411  -0.097  0.00  0.00    +0.009 C 
ATOM     18  C   UNL     1      -0.007  -0.105   0.042  0.00  0.00    +0.033 C 
ENDBRANCH   6  18
ENDBRANCH   2   9
ENDBRANCH   1   3
BRANCH   1  19
ATOM     19  S   UNL     1       5.873  -2.973  -5.957  0.00  0.00    -0.077 S 
BRANCH  19  20
ATOM     20  C   UNL     1       7.603  -3.195  -6.208  0.00  0.00    +0.192 A 
ATOM     21  N   UNL     1       8.556  -2.914  -5.351  0.00  0.00    -0.122 NA
ATOM     22  N   UNL     1       9.703  -3.198  -5.856  0.00  0.00    -0.128 NA
ATOM     23  C   UNL     1       9.552  -3.678  -7.069  0.00  0.00    +0.165 A 
ATOM     24  N   UNL     1       8.202  -3.697  -7.330  0.00  0.00    -0.305 N 
ATOM     25  C   UNL     1       7.543  -4.155  -8.556  0.00  0.00    +0.153 C 
BRANCH  23  26
ATOM     26  C   UNL     1      10.630  -4.121  -7.979  0.00  0.00    +0.030 A 
ATOM     27  C   UNL     1      10.648  -3.699  -9.276  0.00  0.00    +0.057 A 
ATOM     28  S   UNL     1      12.113  -4.504  -9.903  0.00  0.00    -0.101 S 
ATOM     29  C   UNL     1      12.597  -5.331  -8.409  0.00  0.00    -0.006 A 
ATOM     30  C   UNL     1      11.646  -4.978  -7.509  0.00  0.00    -0.026 A 
ATOM     31  C   UNL     1      11.661  -5.490  -6.072  0.00  0.00    +0.036 C 
ATOM     32  C   UNL     1      13.087  -5.823  -5.653  0.00  0.00    +0.005 C 
ATOM     33  C   UNL     1      13.425  -7.274  -5.988  0.00  0.00    +0.001 C 
ATOM     34  C   UNL     1      13.359  -7.492  -7.497  0.00  0.00    +0.005 C 
ATOM     35  C   UNL     1      13.791  -6.204  -8.195  0.00  0.00    +0.043 C 
ENDBRANCH  23  26
ENDBRANCH  19  20
ENDBRANCH   1  19
TORSDOF 7
