REMARK  Name = ZINC39662565
REMARK  6 active torsions:
REMARK  status: ('A' for Active; 'I' for Inactive)
REMARK    1  A    between atoms: C_4  and  C_7
REMARK    2  A    between atoms: C_7  and  C_9
REMARK    3  A    between atoms: C_7  and  N_11
REMARK    4  A    between atoms: C_12  and  C_14
REMARK    5  A    between atoms: C_25  and  C_27
REMARK    6  A    between atoms: C_30  and  C_32
REMARK                            x       y       z     vdW  Elec       q    Type
REMARK                         _______ _______ _______ _____ _____    ______ ____
ROOT
ATOM      1  C   UNL     1       4.668  -3.585   2.299  0.00  0.00    +0.100 C 
ATOM      2  C   UNL     1       4.008  -4.772   1.563  0.00  0.00    +0.121 C 
ATOM      3  N   UNL     1       5.144  -5.563   1.034  0.00  0.00    -0.294 N 
ATOM      4  C   UNL     1       6.158  -5.519   2.114  0.00  0.00    +0.115 C 
ATOM      5  C   UNL     1       6.078  -4.080   2.663  0.00  0.00    -0.004 C 
ATOM      6  C   UNL     1       6.264  -4.081   4.177  0.00  0.00    -0.010 C 
ATOM      7  C   UNL     1       7.692  -4.521   4.511  0.00  0.00    -0.082 C 
ATOM      8  N   UNL     1       8.649  -3.604   3.881  0.00  0.00    +0.379 N 
ATOM      9  C   UNL     1       8.527  -3.679   2.420  0.00  0.00    -0.082 C 
ATOM     10  C   UNL     1       7.134  -3.203   1.997  0.00  0.00    -0.010 C 
ATOM     11  C   UNL     1       5.234  -6.183  -0.159  0.00  0.00    +0.282 C 
ATOM     12  O   UNL     1       6.243  -6.800  -0.450  0.00  0.00    -0.267 OA
ATOM     13  H   UNL     1       8.459  -2.660   4.185  0.00  0.00    -0.086 HD
ATOM     14  H   UNL     1       9.586  -3.859   4.152  0.00  0.00    -0.086 HD
ENDROOT
BRANCH  11  15
ATOM     15  C   UNL     1       4.119  -6.116  -1.106  0.00  0.00    +0.190 A 
ATOM     16  C   UNL     1       4.077  -6.705  -2.351  0.00  0.00    +0.055 A 
ATOM     17  C   UNL     1       2.835  -6.386  -2.907  0.00  0.00    +0.051 A 
ATOM     18  C   UNL     1       2.169  -5.622  -1.992  0.00  0.00    +0.139 A 
ATOM     19  O   UNL     1       2.950  -5.470  -0.909  0.00  0.00    -0.450 OA
BRANCH  18  20
ATOM     20  C   UNL     1       0.815  -5.060  -2.162  0.00  0.00    +0.052 A 
ATOM     21  C   UNL     1       0.487  -4.357  -3.323  0.00  0.00    +0.014 A 
ATOM     22  C   UNL     1      -0.781  -3.835  -3.476  0.00  0.00    +0.001 A 
ATOM     23  C   UNL     1      -1.728  -4.006  -2.481  0.00  0.00    +0.003 A 
ATOM     24  C   UNL     1      -1.413  -4.700  -1.328  0.00  0.00    +0.039 A 
ATOM     25  C   UNL     1      -0.149  -5.234  -1.163  0.00  0.00    +0.134 A 
ATOM     26  F   UNL     1       0.157  -5.917  -0.038  0.00  0.00    -0.205 F 
ENDBRANCH  18  20
ENDBRANCH  11  15
BRANCH   1  28
ATOM     27  N   UNL     1       4.740  -1.142   1.913  0.00  0.00    -0.296 N 
ATOM     28  C   UNL     1       4.751  -2.385   1.391  0.00  0.00    +0.219 C 
ATOM     29  O   UNL     1       4.829  -2.538   0.190  0.00  0.00    -0.275 OA
ATOM     30  H   UNL     1       4.678  -1.020   2.873  0.00  0.00    +0.150 HD
BRANCH  27  31
ATOM     31  C   UNL     1       4.821   0.024   1.030  0.00  0.00    +0.207 C 
BRANCH  31  35
ATOM     32  C   UNL     1       6.443   3.335   3.187  0.00  0.00    +0.000 A 
ATOM     33  C   UNL     1       6.821   3.112   1.876  0.00  0.00    +0.000 A 
ATOM     34  C   UNL     1       6.296   2.040   1.178  0.00  0.00    +0.006 A 
ATOM     35  C   UNL     1       5.394   1.191   1.791  0.00  0.00    -0.013 A 
ATOM     36  C   UNL     1       5.016   1.414   3.102  0.00  0.00    +0.006 A 
ATOM     37  C   UNL     1       5.540   2.486   3.800  0.00  0.00    +0.000 A 
ENDBRANCH  31  35
BRANCH  31  38
ATOM     38  C   UNL     1       3.474   0.367   0.545  0.00  0.00    +0.090 C 
ATOM     39  N   UNL     1       2.434   0.632   0.172  0.00  0.00    -0.194 NA
ENDBRANCH  31  38
ENDBRANCH  27  31
ENDBRANCH   1  28
TORSDOF 6
