REMARK  Name = ZINC63828013
REMARK  7 active torsions:
REMARK  status: ('A' for Active; 'I' for Inactive)
REMARK    1  A    between atoms: C_1  and  C_2
REMARK    2  A    between atoms: C_9  and  N_14
REMARK    3  A    between atoms: C_15  and  C_17
REMARK    4  A    between atoms: C_17  and  C_19
REMARK    5  A    between atoms: C_17  and  N_29
REMARK    6  A    between atoms: C_19  and  C_20
REMARK    7  A    between atoms: C_30  and  C_32
REMARK                            x       y       z     vdW  Elec       q    Type
REMARK                         _______ _______ _______ _____ _____    ______ ____
ROOT
ATOM      1  C   UNL     1       1.044  -8.042   3.025  0.00  0.00    +0.163 C 
ENDROOT
BRANCH   1   3
ATOM      2  N   UNL     1       0.119  -5.854   2.336  0.00  0.00    -0.284 N 
ATOM      3  C   UNL     1       1.167  -6.555   2.812  0.00  0.00    +0.238 C 
ATOM      4  O   UNL     1       2.208  -5.989   3.070  0.00  0.00    -0.273 OA
ATOM      5  H   UNL     1      -0.737  -6.290   2.203  0.00  0.00    +0.155 HD
BRANCH   2  13
ATOM      6  C   UNL     1       2.082   1.446   0.680  0.00  0.00    +0.062 C 
ATOM      7  C   UNL     1       1.997   0.080   1.363  0.00  0.00    +0.256 C 
ATOM      8  C   UNL     1       3.046  -0.836   0.786  0.00  0.00    +0.258 C 
ATOM      9  O   UNL     1       4.077  -0.378   0.341  0.00  0.00    -0.271 OA
ATOM     10  N   UNL     1       2.833  -2.170   0.767  0.00  0.00    -0.279 N 
ATOM     11  C   UNL     1       1.618  -2.672   1.255  0.00  0.00    +0.077 A 
ATOM     12  C   UNL     1       1.478  -4.016   1.552  0.00  0.00    +0.050 A 
ATOM     13  C   UNL     1       0.266  -4.493   2.034  0.00  0.00    +0.035 A 
ATOM     14  C   UNL     1      -0.801  -3.623   2.217  0.00  0.00    +0.027 A 
ATOM     15  C   UNL     1      -0.661  -2.280   1.920  0.00  0.00    +0.049 A 
ATOM     16  C   UNL     1       0.545  -1.800   1.440  0.00  0.00    +0.143 A 
ATOM     17  O   UNL     1       0.699  -0.480   1.147  0.00  0.00    -0.478 OA
ATOM     18  H   UNL     1       3.510  -2.772   0.420  0.00  0.00    +0.155 HD
ENDBRANCH   2  13
ENDBRANCH   1   3
BRANCH   1  19
ATOM     19  N   UNL     1       2.309  -8.567   3.545  0.00  0.00    -0.300 N 
ATOM     20  C   UNL     1       2.633  -9.860   3.349  0.00  0.00    +0.245 C 
ATOM     21  O   UNL     1       1.876 -10.591   2.741  0.00  0.00    -0.270 OA
ATOM     22  H   UNL     1       2.913  -7.983   4.031  0.00  0.00    +0.150 HD
BRANCH  20  23
ATOM     23  C   UNL     1       3.909 -10.389   3.874  0.00  0.00    +0.037 A 
ATOM     24  C   UNL     1       4.778  -9.553   4.578  0.00  0.00    +0.016 A 
ATOM     25  C   UNL     1       5.966 -10.052   5.065  0.00  0.00    +0.039 A 
ATOM     26  C   UNL     1       6.301 -11.382   4.856  0.00  0.00    +0.123 A 
ATOM     27  C   UNL     1       5.441 -12.216   4.158  0.00  0.00    +0.039 A 
ATOM     28  C   UNL     1       4.247 -11.729   3.672  0.00  0.00    +0.016 A 
ATOM     29  F   UNL     1       7.468 -11.866   5.335  0.00  0.00    -0.205 F 
ENDBRANCH  20  23
ENDBRANCH   1  19
BRANCH   1  30
ATOM     30  C   UNL     1      -0.076  -8.322   4.029  0.00  0.00    +0.065 C 
BRANCH  30  31
ATOM     31  C   UNL     1      -0.281  -9.810   4.150  0.00  0.00    -0.039 C 
ATOM     32  C   UNL     1       0.258 -10.633   5.078  0.00  0.00    -0.001 A 
ATOM     33  C   UNL     1       1.164 -10.399   6.209  0.00  0.00    +0.010 A 
ATOM     34  C   UNL     1       1.538 -11.446   6.978  0.00  0.00    +0.001 A 
ATOM     35  C   UNL     1       1.085 -12.748   6.722  0.00  0.00    +0.002 A 
ATOM     36  C   UNL     1       0.252 -13.042   5.701  0.00  0.00    +0.026 A 
ATOM     37  C   UNL     1      -0.207 -12.017   4.829  0.00  0.00    +0.043 A 
ATOM     38  N   UNL     1      -1.003 -12.048   3.788  0.00  0.00    -0.380 N 
ATOM     39  C   UNL     1      -1.138 -10.685   3.261  0.00  0.00    +0.144 C 
ATOM     40  H   UNL     1      -1.434 -12.839   3.428  0.00  0.00    +0.160 HD
ENDBRANCH  30  31
ENDBRANCH   1  30
TORSDOF 6
