REMARK  Name = ZINC02120802
REMARK  9 active torsions:
REMARK  status: ('A' for Active; 'I' for Inactive)
REMARK    1  A    between atoms: C_1  and  C_2
REMARK    2  A    between atoms: C_6  and  C_32
REMARK    3  A    between atoms: C_7  and  C_31
REMARK    4  A    between atoms: C_10  and  C_30
REMARK    5  A    between atoms: C_15  and  C_16
REMARK    6  A    between atoms: C_16  and  C_17
REMARK    7  A    between atoms: N_19  and  CA_20
REMARK    8  A    between atoms: CA_20  and  C_22
REMARK    9  A    between atoms: CA_20  and  C_28
REMARK                            x       y       z     vdW  Elec       q    Type
REMARK                         _______ _______ _______ _____ _____    ______ ____
ROOT
ATOM      1  C   UNL     1       0.695   5.049  -4.080  0.00  0.00    +0.045 C 
ATOM      2  C   UNL     1       0.859   3.840  -4.965  0.00  0.00    -0.029 A 
ATOM      3  C   UNL     1       1.782   3.861  -6.104  0.00  0.00    +0.022 A 
ATOM      4  C   UNL     1       2.532   5.002  -6.395  0.00  0.00    +0.024 A 
ATOM      5  C   UNL     1       3.390   4.990  -7.482  0.00  0.00    +0.029 A 
ATOM      6  C   UNL     1       4.310   5.982  -8.073  0.00  0.00    +0.031 A 
ATOM      7  C   UNL     1       4.878   5.372  -9.137  0.00  0.00    +0.111 A 
ATOM      8  O   UNL     1       4.405   4.120  -9.258  0.00  0.00    -0.459 OA
ATOM      9  C   UNL     1       3.509   3.841  -8.289  0.00  0.00    +0.142 A 
ATOM     10  C   UNL     1       2.761   2.710  -7.994  0.00  0.00    +0.035 A 
ATOM     11  C   UNL     1       1.900   2.710  -6.910  0.00  0.00    +0.146 A 
ATOM     12  O   UNL     1       1.169   1.611  -6.618  0.00  0.00    -0.422 OA
ATOM     13  C   UNL     1       0.327   1.585  -5.574  0.00  0.00    +0.341 A 
ATOM     14  O   UNL     1      -0.310   0.572  -5.351  0.00  0.00    -0.245 OA
ATOM     15  C   UNL     1       0.160   2.701  -4.726  0.00  0.00    +0.049 A 
ATOM     16  C   UNL     1       2.887   1.480  -8.854  0.00  0.00    +0.051 C 
ATOM     17  C   UNL     1       5.893   6.004 -10.054  0.00  0.00    +0.087 C 
ENDROOT
BRANCH   6  18
ATOM     18  C   UNL     1       4.559   7.364  -7.597  0.00  0.00    -0.014 A 
ATOM     19  C   UNL     1       3.538   8.313  -7.640  0.00  0.00    +0.008 A 
ATOM     20  C   UNL     1       3.774   9.596  -7.191  0.00  0.00    +0.001 A 
ATOM     21  C   UNL     1       5.023   9.945  -6.710  0.00  0.00    +0.000 A 
ATOM     22  C   UNL     1       6.041   9.009  -6.670  0.00  0.00    +0.001 A 
ATOM     23  C   UNL     1       5.815   7.721  -7.111  0.00  0.00    +0.008 A 
ENDBRANCH   6  18
BRANCH  15  24
ATOM     24  C   UNL     1      -0.796   2.631  -3.564  0.00  0.00    +0.138 C 
BRANCH  24  25
ATOM     25  C   UNL     1      -0.068   2.132  -2.343  0.00  0.00    +0.218 C 
ATOM     26  O   UNL     1       1.113   1.860  -2.410  0.00  0.00    -0.275 OA
ATOM     27  N   UNL     1      -0.727   1.988  -1.177  0.00  0.00    -0.298 N 
ATOM     28  H   UNL     1      -1.671   2.206  -1.123  0.00  0.00    +0.150 HD
BRANCH  27  29
ATOM     29  CA  UNL     1      -0.018   1.503   0.010  0.00  0.00    +0.217 C 
BRANCH  29  30
ATOM     30  C   UNL     1      -0.724   1.989   1.250  0.00  0.00    -0.016 A 
ATOM     31  C   UNL     1      -2.105   2.010   1.296  0.00  0.00    +0.006 A 
ATOM     32  C   UNL     1      -2.752   2.451   2.435  0.00  0.00    +0.000 A 
ATOM     33  C   UNL     1      -2.018   2.881   3.525  0.00  0.00    +0.000 A 
ATOM     34  C   UNL     1      -0.636   2.865   3.477  0.00  0.00    +0.000 A 
ATOM     35  C   UNL     1       0.011   2.419   2.339  0.00  0.00    +0.006 A 
ENDBRANCH  29  30
BRANCH  29  36
ATOM     36  C   UNL     1       0.002  -0.004   0.002  0.00  0.00    +0.380 C 
ATOM     37  O   UNL     1      -0.521  -0.610  -0.902  0.00  0.00    -0.244 OA
ATOM     38  OXT UNL     1       0.602  -0.673   1.000  0.00  0.00    -0.244 OA
ENDBRANCH  29  36
ENDBRANCH  27  29
ENDBRANCH  24  25
ENDBRANCH  15  24
TORSDOF 6
