REMARK  Name = ZINC06506821
REMARK  5 active torsions:
REMARK  status: ('A' for Active; 'I' for Inactive)
REMARK    1  A    between atoms: C_7  and  N_12
REMARK    2  A    between atoms: C_8  and  C_10
REMARK    3  A    between atoms: C_13  and  C_15
REMARK    4  A    between atoms: C_15  and  S_16
REMARK    5  A    between atoms: S_16  and  C_17
REMARK                            x       y       z     vdW  Elec       q    Type
REMARK                         _______ _______ _______ _____ _____    ______ ____
ROOT
ATOM      1  N   UNL     1      -8.810   3.078   0.105  0.00  0.00    -0.281 N 
ATOM      2  C   UNL     1      -7.949   3.251  -0.918  0.00  0.00    +0.228 C 
ATOM      3  O   UNL     1      -8.003   2.522  -1.886  0.00  0.00    -0.275 OA
ATOM      4  H   UNL     1      -8.710   3.683   1.017  0.00  0.00    +0.155 HD
ENDROOT
BRANCH   1  11
ATOM      5  C   UNL     1     -13.262   3.385  -1.107  0.00  0.00    +0.001 A 
ATOM      6  C   UNL     1     -13.892   2.150  -1.055  0.00  0.00    +0.004 A 
ATOM      7  C   UNL     1     -13.198   1.021  -0.677  0.00  0.00    +0.047 A 
ATOM      8  C   UNL     1     -11.852   1.115  -0.343  0.00  0.00    +0.139 A 
ATOM      9  C   UNL     1     -11.221   2.370  -0.392  0.00  0.00    +0.043 A 
ATOM     10  C   UNL     1     -11.939   3.501  -0.783  0.00  0.00    +0.013 A 
ATOM     11  C   UNL     1      -9.828   2.132   0.005  0.00  0.00    +0.098 A 
ATOM     12  C   UNL     1      -9.736   0.793   0.263  0.00  0.00    +0.226 A 
ATOM     13  O   UNL     1     -10.936   0.208   0.053  0.00  0.00    -0.443 OA
BRANCH  12  14
ATOM     14  C   UNL     1      -8.550   0.113   0.690  0.00  0.00    +0.140 C 
ATOM     15  N   UNL     1      -7.609  -0.426   1.029  0.00  0.00    -0.188 NA
ENDBRANCH  12  14
ENDBRANCH   1  11
BRANCH   2  16
ATOM     16  C   UNL     1      -6.919   4.349  -0.857  0.00  0.00    +0.173 C 
BRANCH  16  17
ATOM     17  S   UNL     1      -5.919   4.324  -2.370  0.00  0.00    -0.076 S 
BRANCH  17  18
ATOM     18  C   UNL     1      -4.778   5.648  -2.149  0.00  0.00    +0.198 A 
ATOM     19  N   UNL     1      -4.710   6.441  -1.107  0.00  0.00    -0.120 NA
ATOM     20  N   UNL     1      -3.671   7.355  -1.325  0.00  0.00    -0.110 NA
ATOM     21  C   UNL     1      -3.136   7.091  -2.495  0.00  0.00    +0.235 A 
ATOM     22  N   UNL     1      -3.806   6.029  -3.035  0.00  0.00    -0.255 N 
ATOM     23  C   UNL     1      -3.242   5.742  -4.280  0.00  0.00    +0.075 A 
ATOM     24  C   UNL     1      -3.530   4.786  -5.244  0.00  0.00    +0.028 A 
ATOM     25  C   UNL     1      -2.786   4.734  -6.405  0.00  0.00    +0.002 A 
ATOM     26  C   UNL     1      -1.759   5.637  -6.618  0.00  0.00    +0.002 A 
ATOM     27  C   UNL     1      -1.468   6.596  -5.668  0.00  0.00    +0.028 A 
ATOM     28  C   UNL     1      -2.208   6.653  -4.494  0.00  0.00    +0.066 A 
ATOM     29  N   UNL     1      -2.149   7.487  -3.381  0.00  0.00    -0.322 N 
ATOM     30  H   UNL     1      -1.493   8.334  -3.131  0.00  0.00    +0.169 HD
ENDBRANCH  17  18
ENDBRANCH  16  17
ENDBRANCH   2  16
TORSDOF 5
