REMARK  Name = ZINC39623252
REMARK  5 active torsions:
REMARK  status: ('A' for Active; 'I' for Inactive)
REMARK    1  A    between atoms: C_5  and  C_7
REMARK    2  A    between atoms: C_7  and  N_8
REMARK    3  A    between atoms: C_9  and  C_11
REMARK    4  A    between atoms: C_22  and  C_24
REMARK    5  A    between atoms: C_27  and  C_29
REMARK                            x       y       z     vdW  Elec       q    Type
REMARK                         _______ _______ _______ _____ _____    ______ ____
ROOT
ATOM      1  C   UNL     1       1.819  -4.511   2.961  0.00  0.00    +0.100 C 
ATOM      2  C   UNL     1       3.261  -4.161   3.393  0.00  0.00    +0.121 C 
ATOM      3  N   UNL     1       3.713  -5.336   4.175  0.00  0.00    -0.294 N 
ATOM      4  C   UNL     1       3.163  -6.501   3.441  0.00  0.00    +0.115 C 
ATOM      5  C   UNL     1       1.760  -6.048   2.993  0.00  0.00    -0.004 C 
ATOM      6  C   UNL     1       1.448  -6.593   1.603  0.00  0.00    -0.010 C 
ATOM      7  C   UNL     1       1.336  -8.119   1.671  0.00  0.00    -0.082 C 
ATOM      8  N   UNL     1       0.274  -8.492   2.614  0.00  0.00    +0.379 N 
ATOM      9  C   UNL     1       0.626  -8.044   3.967  0.00  0.00    -0.082 C 
ATOM     10  C   UNL     1       0.708  -6.515   3.995  0.00  0.00    -0.010 C 
ATOM     11  C   UNL     1       4.456  -5.344   5.300  0.00  0.00    +0.282 C 
ATOM     12  O   UNL     1       4.748  -6.401   5.829  0.00  0.00    -0.267 OA
ATOM     13  H   UNL     1      -0.592  -8.057   2.332  0.00  0.00    -0.086 HD
ATOM     14  H   UNL     1       0.161  -9.494   2.612  0.00  0.00    -0.086 HD
ENDROOT
BRANCH  11  15
ATOM     15  C   UNL     1       4.912  -4.081   5.885  0.00  0.00    +0.190 A 
ATOM     16  C   UNL     1       5.678  -3.947   7.022  0.00  0.00    +0.055 A 
ATOM     17  C   UNL     1       5.877  -2.576   7.215  0.00  0.00    +0.050 A 
ATOM     18  C   UNL     1       5.232  -1.930   6.199  0.00  0.00    +0.136 A 
ATOM     19  O   UNL     1       4.660  -2.846   5.401  0.00  0.00    -0.450 OA
BRANCH  18  20
ATOM     20  C   UNL     1       5.179  -0.467   6.006  0.00  0.00    +0.017 A 
ATOM     21  C   UNL     1       5.829   0.383   6.905  0.00  0.00    +0.014 A 
ATOM     22  C   UNL     1       5.776   1.748   6.720  0.00  0.00    +0.039 A 
ATOM     23  C   UNL     1       5.079   2.278   5.644  0.00  0.00    +0.123 A 
ATOM     24  C   UNL     1       4.432   1.439   4.750  0.00  0.00    +0.039 A 
ATOM     25  C   UNL     1       4.483   0.072   4.922  0.00  0.00    +0.014 A 
ATOM     26  F   UNL     1       5.030   3.616   5.468  0.00  0.00    -0.205 F 
ENDBRANCH  18  20
ENDBRANCH  11  15
BRANCH   1  28
ATOM     27  N   UNL     1       0.298  -3.671   1.201  0.00  0.00    -0.311 N 
ATOM     28  C   UNL     1       1.552  -4.005   1.567  0.00  0.00    +0.218 C 
ATOM     29  O   UNL     1       2.464  -3.897   0.776  0.00  0.00    -0.275 OA
ATOM     30  H   UNL     1      -0.431  -3.756   1.834  0.00  0.00    +0.149 HD
BRANCH  27  31
ATOM     31  C   UNL     1       0.038  -3.178  -0.154  0.00  0.00    +0.141 C 
BRANCH  31  36
ATOM     32  C   UNL     1      -3.607  -3.511  -1.079  0.00  0.00    +0.000 A 
ATOM     33  C   UNL     1      -4.127  -2.328  -0.586  0.00  0.00    +0.001 A 
ATOM     34  C   UNL     1      -3.299  -1.420   0.046  0.00  0.00    +0.020 A 
ATOM     35  C   UNL     1      -1.950  -1.694   0.187  0.00  0.00    +0.046 A 
ATOM     36  C   UNL     1      -1.431  -2.878  -0.306  0.00  0.00    -0.012 A 
ATOM     37  C   UNL     1      -2.259  -3.786  -0.939  0.00  0.00    +0.006 A 
ATOM     38 CL   UNL     1      -0.910  -0.554   0.981  0.00  0.00    -0.083 Cl
ENDBRANCH  31  36
ENDBRANCH  27  31
ENDBRANCH   1  28
TORSDOF 5
