REMARK  Name = ZINC15947629
REMARK  6 active torsions:
REMARK  status: ('A' for Active; 'I' for Inactive)
REMARK    1  A    between atoms: C_1  and  C_2
REMARK    2  A    between atoms: C_11  and  O_30
REMARK    3  A    between atoms: C_13  and  C_16
REMARK    4  A    between atoms: C_19  and  O_22
REMARK    5  A    between atoms: O_22  and  C_23
REMARK    6  A    between atoms: C_23  and  C_25
REMARK                            x       y       z     vdW  Elec       q    Type
REMARK                         _______ _______ _______ _____ _____    ______ ____
ROOT
ATOM      1  C   UNL     1      -0.033   1.494  -0.616  0.00  0.00    +0.008 C 
ATOM      2  C   UNL     1      -0.009  -0.032  -0.499  0.00  0.00    -0.009 C 
ATOM      3  C   UNL     1       0.721  -0.627  -1.706  0.00  0.00    +0.008 C 
ATOM      4  C   UNL     1       0.538  -2.146  -1.728  0.00  0.00    +0.037 C 
ATOM      5  C   UNL     1       0.934  -2.706  -0.369  0.00  0.00    -0.023 A 
ATOM      6  C   UNL     1       1.009  -1.908   0.721  0.00  0.00    -0.004 A 
ATOM      7  S   UNL     1       1.499  -2.987   2.039  0.00  0.00    -0.078 S 
ATOM      8  C   UNL     1       1.603  -4.414   1.200  0.00  0.00    +0.080 A 
ATOM      9  C   UNL     1       1.257  -4.099  -0.119  0.00  0.00    +0.068 A 
ATOM     10  C   UNL     1       1.251  -5.207  -1.109  0.00  0.00    +0.220 C 
ATOM     11  N   UNL     1       1.801  -6.337  -0.757  0.00  0.00    -0.223 NA
ATOM     12  C   UNL     1       2.476  -6.567   0.514  0.00  0.00    +0.224 C 
ATOM     13  N   UNL     1       1.946  -5.693   1.577  0.00  0.00    -0.313 N 
ATOM     14  C   UNL     1       0.732  -0.438   0.783  0.00  0.00    +0.046 C 
ATOM     15  H   UNL     1       1.845  -6.002   2.491  0.00  0.00    +0.149 HD
ENDROOT
BRANCH  12  16
ATOM     16  C   UNL     1       3.949  -6.295   0.345  0.00  0.00    -0.005 A 
ATOM     17  C   UNL     1       4.694  -5.840   1.417  0.00  0.00    +0.011 A 
ATOM     18  C   UNL     1       6.044  -5.589   1.264  0.00  0.00    +0.047 A 
ATOM     19  C   UNL     1       6.652  -5.795   0.034  0.00  0.00    +0.132 A 
ATOM     20  C   UNL     1       5.902  -6.252  -1.040  0.00  0.00    +0.047 A 
ATOM     21  C   UNL     1       4.553  -6.506  -0.880  0.00  0.00    +0.011 A 
BRANCH  19  22
ATOM     22  O   UNL     1       7.980  -5.549  -0.119  0.00  0.00    -0.422 OA
BRANCH  22  23
ATOM     23  C   UNL     1       8.852  -6.370   0.502  0.00  0.00    +0.351 C 
ATOM     24  O   UNL     1       8.447  -7.357   1.087  0.00  0.00    -0.244 OA
BRANCH  23  25
ATOM     25  C   UNL     1      10.285  -6.073   0.472  0.00  0.00    +0.097 A 
ATOM     26  C   UNL     1      11.337  -6.782   1.035  0.00  0.00    +0.022 A 
ATOM     27  C   UNL     1      12.588  -6.251   0.836  0.00  0.00    +0.008 A 
ATOM     28  C   UNL     1      12.711  -5.103   0.124  0.00  0.00    +0.046 A 
ATOM     29  S   UNL     1      11.134  -4.712  -0.304  0.00  0.00    -0.090 S 
ENDBRANCH  23  25
ENDBRANCH  22  23
ENDBRANCH  19  22
ENDBRANCH  12  16
BRANCH  10  30
ATOM     30  O   UNL     1       0.694  -5.050  -2.332  0.00  0.00    -0.492 OA
ATOM     31  H   UNL     1       0.748  -5.837  -2.893  0.00  0.00    +0.294 HD
ENDBRANCH  10  30
TORSDOF 5
