REMARK  Name = ZINC09666723
REMARK  11 active torsions:
REMARK  status: ('A' for Active; 'I' for Inactive)
REMARK    1  A    between atoms: C_1  and  C_2
REMARK    2  A    between atoms: N_6  and  C_29
REMARK    3  A    between atoms: C_9  and  C_28
REMARK    4  A    between atoms: C_10  and  C_11
REMARK    5  A    between atoms: C_11  and  C_12
REMARK    6  A    between atoms: C_12  and  C_13
REMARK    7  A    between atoms: N_15  and  C_16
REMARK    8  A    between atoms: C_16  and  C_17
REMARK    9  A    between atoms: C_17  and  N_71
REMARK   10  A    between atoms: C_29  and  C_30
REMARK   11  A    between atoms: C_29  and  C_31
REMARK                            x       y       z     vdW  Elec       q    Type
REMARK                         _______ _______ _______ _____ _____    ______ ____
ROOT
ATOM      1  C   UNL     1       0.755  -1.906   1.269  0.00  0.00    +0.213 C 
ATOM      2  O   UNL     1       0.273  -2.651   0.443  0.00  0.00    -0.276 OA
ATOM      3  N   UNL     1       0.616  -0.572   1.136  0.00  0.00    -0.317 N 
ATOM      4  H   UNL     1       1.001   0.024   1.797  0.00  0.00    +0.149 HD
ENDROOT
BRANCH   1   5
ATOM      5  C   UNL     1       1.510  -2.472   2.444  0.00  0.00    +0.100 C 
BRANCH   5   6
ATOM      6  C   UNL     1       1.520  -3.999   2.357  0.00  0.00    +0.046 C 
BRANCH   6  16
ATOM      7  C   UNL     1       0.130  -4.640   4.822  0.00  0.00    +0.045 C 
ATOM      8  C   UNL     1       1.615  -4.866   4.694  0.00  0.00    -0.033 A 
ATOM      9  C   UNL     1       2.357  -5.390   5.759  0.00  0.00    +0.042 A 
ATOM     10  C   UNL     1       2.030  -5.822   7.113  0.00  0.00    +0.144 A 
ATOM     11  N   UNL     1       3.132  -6.229   7.675  0.00  0.00    -0.177 NA
ATOM     12  N   UNL     1       4.202  -6.102   6.783  0.00  0.00    -0.244 N 
ATOM     13  C   UNL     1       3.744  -5.588   5.601  0.00  0.00    +0.159 A 
ATOM     14  N   UNL     1       4.329  -5.276   4.450  0.00  0.00    -0.232 NA
ATOM     15  C   UNL     1       3.642  -4.789   3.441  0.00  0.00    +0.044 A 
ATOM     16  C   UNL     1       2.275  -4.565   3.532  0.00  0.00    -0.022 A 
ATOM     17  C   UNL     1       4.357  -4.460   2.155  0.00  0.00    +0.066 C 
BRANCH  12  18
ATOM     18  C   UNL     1       5.593  -6.461   7.070  0.00  0.00    +0.103 C 
ATOM     19  C   UNL     1       6.099  -5.636   8.255  0.00  0.00    +0.032 C 
ATOM     20  C   UNL     1       5.675  -7.950   7.413  0.00  0.00    +0.032 C 
ENDBRANCH  12  18
ENDBRANCH   6  16
ENDBRANCH   5   6
ENDBRANCH   1   5
BRANCH   3  21
ATOM     21  C   UNL     1      -0.118  -0.022  -0.006  0.00  0.00    +0.092 C 
BRANCH  21  22
ATOM     22  C   UNL     1       0.025   1.501  -0.019  0.00  0.00    -0.049 C 
ATOM     23  C   UNL     1      -0.345   2.059   1.357  0.00  0.00    -0.010 C 
ATOM     24  C   UNL     1      -1.791   1.686   1.687  0.00  0.00    -0.001 C 
ATOM     25  C   UNL     1      -2.725   2.277   0.629  0.00  0.00    -0.000 C 
ATOM     26  C   UNL     1      -2.355   1.718  -0.747  0.00  0.00    -0.001 C 
ATOM     27  C   UNL     1      -0.909   2.092  -1.077  0.00  0.00    -0.010 C 
BRANCH  22  33
ATOM     28  C   UNL     1       1.747   1.501  -1.722  0.00  0.00    -0.049 C 
ATOM     29  C   UNL     1       3.180   1.945  -2.028  0.00  0.00    +0.141 C 
ATOM     30  O   UNL     1       4.071   1.345  -1.084  0.00  0.00    -0.383 OA
ATOM     31  C   UNL     1       3.776   1.673   0.276  0.00  0.00    +0.141 C 
ATOM     32  C   UNL     1       2.349   1.226   0.605  0.00  0.00    -0.049 C 
ATOM     33  N   UNL     1       1.417   1.886  -0.334  0.00  0.00    +0.387 N 
ATOM     34  H   UNL     1       1.512   2.904  -0.238  0.00  0.00    -0.081 HD
ENDBRANCH  22  33
ENDBRANCH  21  22
ENDBRANCH   3  21
TORSDOF 7
