REMARK  Name = ZINC14773300
REMARK  11 active torsions:
REMARK  status: ('A' for Active; 'I' for Inactive)
REMARK    1  A    between atoms: C_1  and  C_2
REMARK    2  A    between atoms: C_2  and  C_3
REMARK    3  A    between atoms: C_2  and  C_4
REMARK    4  A    between atoms: C_4  and  C_5
REMARK    5  A    between atoms: C_5  and  O_6
REMARK    6  A    between atoms: O_6  and  C_7
REMARK    7  A    between atoms: C_7  and  C_9
REMARK    8  A    between atoms: C_9  and  C_10
REMARK    9  A    between atoms: C_18  and  C_20
REMARK   10  A    between atoms: C_20  and  O_21
REMARK   11  A    between atoms: O_21  and  C_22
REMARK                            x       y       z     vdW  Elec       q    Type
REMARK                         _______ _______ _______ _____ _____    ______ ____
ROOT
ATOM      1  C   UNL     1       6.337   6.074  -0.026  0.00  0.00    +0.173 C 
ATOM      2  C   UNL     1       6.355   7.223   0.946  0.00  0.00    +0.234 C 
ATOM      3  O   UNL     1       7.425   7.704   1.253  0.00  0.00    -0.274 OA
ATOM      4  N   UNL     1       5.248   7.736   1.485  0.00  0.00    -0.312 N 
ATOM      5  C   UNL     1       3.906   7.206   1.280  0.00  0.00    +0.123 C 
ATOM      6  C   UNL     1       3.842   6.372  -0.007  0.00  0.00    +0.127 C 
ATOM      7  N   UNL     1       5.000   5.463  -0.016  0.00  0.00    -0.285 N 
ATOM      8  C   UNL     1       4.840   4.125  -0.022  0.00  0.00    +0.254 C 
ATOM      9  O   UNL     1       5.812   3.398  -0.035  0.00  0.00    -0.272 OA
ATOM     10  H   UNL     1       5.343   8.517   2.052  0.00  0.00    +0.149 HD
ENDROOT
BRANCH   1  11
ATOM     11  C   UNL     1       6.656   6.587  -1.431  0.00  0.00    +0.152 C 
BRANCH  11  12
ATOM     12  C   UNL     1       6.745   5.422  -2.383  0.00  0.00    +0.309 C 
ATOM     13  O   UNL     1       6.571   4.297  -1.979  0.00  0.00    -0.251 OA
BRANCH  12  14
ATOM     14  O   UNL     1       7.017   5.635  -3.680  0.00  0.00    -0.465 OA
BRANCH  14  15
ATOM     15  C   UNL     1       7.087   4.466  -4.539  0.00  0.00    +0.232 C 
BRANCH  15  16
ATOM     16  C   UNL     1       7.405   4.903  -5.971  0.00  0.00    +0.044 C 
BRANCH  16  18
ATOM     17  C   UNL     1       6.101   3.011  -6.950  0.00  0.00    +0.007 C 
ATOM     18  C   UNL     1       7.479   3.672  -6.875  0.00  0.00    -0.014 C 
ATOM     19  C   UNL     1       7.918   4.095  -8.278  0.00  0.00    +0.007 C 
ENDBRANCH  16  18
ENDBRANCH  15  16
ENDBRANCH  14  15
ENDBRANCH  12  14
ENDBRANCH  11  12
ENDBRANCH   1  11
BRANCH   8  20
ATOM     20  C   UNL     1       3.455   3.531  -0.012  0.00  0.00    +0.324 C 
BRANCH  20  21
ATOM     21  O   UNL     1       3.549   2.105  -0.021  0.00  0.00    -0.483 OA
BRANCH  21  22
ATOM     22  C   UNL     1       2.380   1.410  -0.013  0.00  0.00    +0.121 A 
ATOM     23  C   UNL     1       1.170   2.087   0.002  0.00  0.00    +0.047 A 
ATOM     24  C   UNL     1      -0.017   1.379   0.010  0.00  0.00    +0.023 A 
ATOM     25  C   UNL     1       0.002  -0.004   0.002  0.00  0.00    +0.041 A 
ATOM     26  C   UNL     1       1.209  -0.681  -0.013  0.00  0.00    +0.023 A 
ATOM     27  C   UNL     1       2.397   0.023  -0.021  0.00  0.00    +0.047 A 
ATOM     28 CL   UNL     1      -1.490  -0.891   0.012  0.00  0.00    -0.084 Cl
ENDBRANCH  21  22
ENDBRANCH  20  21
ENDBRANCH   8  20
TORSDOF 9
