REMARK  Name = ZINC21200850
REMARK  10 active torsions:
REMARK  status: ('A' for Active; 'I' for Inactive)
REMARK    1  A    between atoms: C_1  and  C_2
REMARK    2  A    between atoms: C_6  and  C_8
REMARK    3  A    between atoms: N_14  and  C_15
REMARK    4  A    between atoms: C_15  and  C_16
REMARK    5  A    between atoms: C_16  and  C_17
REMARK    6  A    between atoms: N_19  and  C_20
REMARK    7  A    between atoms: C_20  and  C_21
REMARK    8  A    between atoms: C_21  and  N_28
REMARK    9  A    between atoms: N_28  and  C_29
REMARK   10  A    between atoms: N_28  and  C_30
REMARK                            x       y       z     vdW  Elec       q    Type
REMARK                         _______ _______ _______ _____ _____    ______ ____
ROOT
ATOM      1  C   UNL     1       0.711   3.173  -2.722  0.00  0.00    +0.117 C 
ENDROOT
BRANCH   1   2
ATOM      2  C   UNL     1       1.138   4.615  -2.621  0.00  0.00    +0.215 C 
ATOM      3  O   UNL     1       1.193   5.157  -1.538  0.00  0.00    -0.276 OA
ATOM      4  N   UNL     1       1.460   5.302  -3.735  0.00  0.00    -0.317 N 
ATOM      5  H   UNL     1       1.410   4.811  -4.718  0.00  0.00    +0.149 HD
BRANCH   4   6
ATOM      6  C   UNL     1       1.875   6.704  -3.637  0.00  0.00    +0.092 C 
BRANCH   6   7
ATOM      7  C   UNL     1       2.270   7.217  -5.023  0.00  0.00    -0.050 C 
ATOM      8  C   UNL     1       3.433   8.163  -4.899  0.00  0.00    -0.010 C 
ATOM      9  C   UNL     1       3.502   8.835  -3.515  0.00  0.00    -0.001 C 
ATOM     10  C   UNL     1       2.120   9.273  -2.994  0.00  0.00    -0.000 C 
ATOM     11  C   UNL     1       1.270   9.894  -4.069  0.00  0.00    -0.000 C 
ATOM     12  C   UNL     1       0.374   8.797  -4.680  0.00  0.00    -0.001 C 
ATOM     13  C   UNL     1       1.084   7.978  -5.651  0.00  0.00    -0.010 C 
BRANCH   7  14
ATOM     14  N   UNL     1       2.639   6.084  -5.882  0.00  0.00    +0.381 N 
ATOM     15  C   UNL     1       2.960   6.537  -7.242  0.00  0.00    -0.096 C 
ATOM     16  C   UNL     1       3.756   5.326  -5.302  0.00  0.00    -0.096 C 
ATOM     17  H   UNL     1       1.771   5.411  -5.946  0.00  0.00    -0.082 HD
ENDBRANCH   7  14
ENDBRANCH   6   7
ENDBRANCH   4   6
ENDBRANCH   1   2
BRANCH   1  18
ATOM     18  C   UNL     1       0.406   2.633  -1.324  0.00  0.00    +0.135 C 
BRANCH  18  25
ATOM     19  C   UNL     1       0.806   0.132  -1.240  0.00  0.00    +0.163 A 
ATOM     20  N   UNL     1       0.090  -0.946  -1.400  0.00  0.00    -0.153 NA
ATOM     21  N   UNL     1      -1.223  -0.555  -1.698  0.00  0.00    -0.254 N 
ATOM     22  H   UNL     1      -1.997  -1.316  -1.872  0.00  0.00    +0.191 HD
ATOM     23  C   UNL     1      -1.252   0.794  -1.708  0.00  0.00    +0.176 A 
ATOM     24  S   UNL     1      -2.621   1.773  -2.022  0.00  0.00    -0.011 S 
ATOM     25  N   UNL     1      -0.009   1.231  -1.422  0.00  0.00    -0.303 N 
BRANCH  19  31
ATOM     26  C   UNL     1       5.162   2.566  -1.206  0.00  0.00    +0.044 C 
ATOM     27  C   UNL     1       4.346   1.339  -0.892  0.00  0.00    -0.050 A 
ATOM     28  C   UNL     1       4.946   0.246  -0.291  0.00  0.00    +0.003 A 
ATOM     29  C   UNL     1       4.203  -0.884  -0.000  0.00  0.00    +0.001 A 
ATOM     30  C   UNL     1       2.859  -0.928  -0.308  0.00  0.00    +0.011 A 
ATOM     31  C   UNL     1       2.249   0.170  -0.913  0.00  0.00    +0.019 A 
ATOM     32  C   UNL     1       3.003   1.307  -1.204  0.00  0.00    +0.015 A 
ENDBRANCH  19  31
ENDBRANCH  18  25
ENDBRANCH   1  18
TORSDOF 7
