REMARK  Name = ZINC59507008
REMARK  7 active torsions:
REMARK  status: ('A' for Active; 'I' for Inactive)
REMARK    1  A    between atoms: C_4  and  C_7
REMARK    2  A    between atoms: C_10  and  O_13
REMARK    3  A    between atoms: O_13  and  C_14
REMARK    4  A    between atoms: C_17  and  C_31
REMARK    5  A    between atoms: C_19  and  N_20
REMARK    6  A    between atoms: C_21  and  C_22
REMARK    7  A    between atoms: C_27  and  O_28
REMARK                            x       y       z     vdW  Elec       q    Type
REMARK                         _______ _______ _______ _____ _____    ______ ____
ROOT
ATOM      1  C   UNL     1       7.283  -4.054  -0.004  0.00  0.00    +0.154 A 
ATOM      2  C   UNL     1       6.074  -4.731  -0.007  0.00  0.00    +0.049 A 
ATOM      3  C   UNL     1       6.052  -6.109   0.100  0.00  0.00    +0.016 A 
ATOM      4  C   UNL     1       7.233  -6.822   0.212  0.00  0.00    +0.057 A 
ATOM      5  C   UNL     1       8.445  -6.163   0.217  0.00  0.00    +0.043 A 
ATOM      6  C   UNL     1       8.482  -4.772   0.104  0.00  0.00    +0.107 A 
ENDROOT
BRANCH   4   7
ATOM      7  C   UNL     1       7.195  -8.324   0.329  0.00  0.00    +0.417 C 
ATOM      8  F   UNL     1       5.866  -8.760   0.302  0.00  0.00    -0.166 F 
ATOM      9  F   UNL     1       7.895  -8.893  -0.740  0.00  0.00    -0.166 F 
ATOM     10  F   UNL     1       7.789  -8.713   1.535  0.00  0.00    -0.166 F 
ENDBRANCH   4   7
BRANCH   6  11
ATOM     11  N   UNL     1       9.680  -4.113   0.103  0.00  0.00    -0.251 NA
ATOM     12  C   UNL     1      10.666  -4.554  -0.627  0.00  0.00    +0.123 C 
BRANCH  12  13
ATOM     13  C   UNL     1      11.918  -3.787  -0.713  0.00  0.00    +0.037 A 
ATOM     14  C   UNL     1      12.976  -4.254  -1.500  0.00  0.00    +0.033 A 
ATOM     15  C   UNL     1      14.147  -3.530  -1.576  0.00  0.00    +0.043 A 
ATOM     16  C   UNL     1      14.281  -2.341  -0.876  0.00  0.00    +0.043 A 
ATOM     17  C   UNL     1      13.243  -1.869  -0.095  0.00  0.00    +0.084 A 
ATOM     18  C   UNL     1      12.056  -2.581  -0.011  0.00  0.00    +0.144 A 
ATOM     19 CL   UNL     1      13.423  -0.379   0.778  0.00  0.00    -0.080 Cl
ATOM     20 CL   UNL     1      15.460  -4.110  -2.553  0.00  0.00    -0.083 Cl
BRANCH  18  21
ATOM     21  O   UNL     1      11.034  -2.115   0.751  0.00  0.00    -0.505 OA
ATOM     22  H   UNL     1      11.055  -2.421   1.668  0.00  0.00    +0.292 HD
ENDBRANCH  18  21
ENDBRANCH  12  13
ENDBRANCH   6  11
BRANCH   1  23
ATOM     23  O   UNL     1       7.306  -2.700  -0.110  0.00  0.00    -0.454 OA
BRANCH  23  27
ATOM     24  C   UNL     1       3.701  -0.688  -0.040  0.00  0.00    -0.018 A 
ATOM     25  C   UNL     1       4.463  -0.717  -1.207  0.00  0.00    +0.012 A 
ATOM     26  C   UNL     1       5.666  -1.389  -1.227  0.00  0.00    +0.047 A 
ATOM     27  C   UNL     1       6.120  -2.038  -0.086  0.00  0.00    +0.129 A 
ATOM     28  C   UNL     1       5.363  -2.012   1.078  0.00  0.00    +0.047 A 
ATOM     29  C   UNL     1       4.162  -1.336   1.105  0.00  0.00    +0.012 A 
BRANCH  24  33
ATOM     30  C   UNL     1      -0.012   1.383   0.032  0.00  0.00    +0.000 A 
ATOM     31  C   UNL     1       0.738   1.353  -1.130  0.00  0.00    +0.001 A 
ATOM     32  C   UNL     1       1.944   0.682  -1.159  0.00  0.00    +0.008 A 
ATOM     33  C   UNL     1       2.406   0.035  -0.015  0.00  0.00    -0.018 A 
ATOM     34  C   UNL     1       1.646   0.068   1.153  0.00  0.00    +0.008 A 
ATOM     35  C   UNL     1       0.442   0.742   1.171  0.00  0.00    +0.001 A 
ENDBRANCH  24  33
ENDBRANCH  23  27
ENDBRANCH   1  23
TORSDOF 7
