REMARK  Name = ZINC38598762
REMARK  2 active torsions:
REMARK  status: ('A' for Active; 'I' for Inactive)
REMARK    1  A    between atoms: C_1  and  C_2
REMARK    2  A    between atoms: C_4  and  C_25
REMARK                            x       y       z     vdW  Elec       q    Type
REMARK                         _______ _______ _______ _____ _____    ______ ____
ROOT
ATOM      1  C   UNL     1      -0.018   1.503   0.010  0.00  0.00    +0.062 C 
ATOM      2  C   UNL     1       0.002  -0.004   0.002  0.00  0.00    +0.023 C 
ATOM      3  C   UNL     1      -1.069  -0.755   0.003  0.00  0.00    +0.005 C 
ATOM      4  C   UNL     1      -2.522  -0.308  -0.046  0.00  0.00    +0.108 C 
ATOM      5  S   UNL     1      -3.517  -1.607   0.757  0.00  0.00    -0.139 S 
ATOM      6  C   UNL     1      -3.626  -2.930  -0.466  0.00  0.00    +0.165 C 
ATOM      7  C   UNL     1      -2.466  -3.118  -1.336  0.00  0.00    +0.225 C 
ATOM      8  O   UNL     1      -2.725  -3.607  -2.416  0.00  0.00    -0.275 OA
ATOM      9  N   UNL     1      -1.193  -2.851  -1.154  0.00  0.00    -0.291 N 
ATOM     10  C   UNL     1      -0.631  -2.199   0.022  0.00  0.00    +0.210 C 
ATOM     11  N   UNL     1       0.836  -2.134  -0.062  0.00  0.00    -0.213 N 
ATOM     12  N   UNL     1       1.157  -0.768  -0.014  0.00  0.00    -0.265 N 
ATOM     13  C   UNL     1       1.693  -3.169  -0.169  0.00  0.00    +0.150 C 
ATOM     14  N   UNL     1       1.260  -4.417  -0.216  0.00  0.00    -0.221 NA
ATOM     15  C   UNL     1       2.060  -5.477  -0.256  0.00  0.00    +0.225 C 
ATOM     16  N   UNL     1       3.347  -5.410   0.064  0.00  0.00    -0.218 NA
ATOM     17  C   UNL     1       3.811  -4.202   0.365  0.00  0.00    +0.164 C 
ATOM     18  N   UNL     1       4.731  -3.754   1.165  0.00  0.00    -0.219 NA
ATOM     19  C   UNL     1       4.585  -2.442   1.390  0.00  0.00    +0.218 C 
ATOM     20  N   UNL     1       3.675  -1.891   0.636  0.00  0.00    -0.253 NA
ATOM     21  C   UNL     1       3.179  -2.948  -0.246  0.00  0.00    +0.239 C 
ATOM     22  H   UNL     1      -0.578  -3.107  -1.859  0.00  0.00    +0.151 HD
ATOM     23  H   UNL     1       2.058  -0.411   0.009  0.00  0.00    +0.170 HD
ENDROOT
BRANCH   4  24
ATOM     24  C   UNL     1      -2.683   0.995   0.694  0.00  0.00    -0.029 A 
ATOM     25  C   UNL     1      -2.356   1.072   2.035  0.00  0.00    +0.006 A 
ATOM     26  C   UNL     1      -2.504   2.266   2.716  0.00  0.00    +0.022 A 
ATOM     27  C   UNL     1      -2.978   3.385   2.055  0.00  0.00    +0.059 A 
ATOM     28  C   UNL     1      -3.304   3.308   0.712  0.00  0.00    +0.060 A 
ATOM     29  C   UNL     1      -3.151   2.113   0.031  0.00  0.00    +0.026 A 
ATOM     30 CL   UNL     1      -3.899   4.711  -0.119  0.00  0.00    -0.082 Cl
ATOM     31 CL   UNL     1      -3.163   4.885   2.909  0.00  0.00    -0.082 Cl
ENDBRANCH   4  24
TORSDOF 1
