REMARK  Name = ZINC39595758
REMARK  11 active torsions:
REMARK  status: ('A' for Active; 'I' for Inactive)
REMARK    1  A    between atoms: C_1  and  C_2
REMARK    2  A    between atoms: C_2  and  C_4
REMARK    3  A    between atoms: C_2  and  O_31
REMARK    4  A    between atoms: C_4  and  N_5
REMARK    5  A    between atoms: C_6  and  C_8
REMARK    6  A    between atoms: C_19  and  C_21
REMARK    7  A    between atoms: C_24  and  O_29
REMARK    8  A    between atoms: C_26  and  O_27
REMARK    9  A    between atoms: O_27  and  C_28
REMARK   10  A    between atoms: O_29  and  C_30
REMARK   11  A    between atoms: O_31  and  C_32
REMARK                            x       y       z     vdW  Elec       q    Type
REMARK                         _______ _______ _______ _____ _____    ______ ____
ROOT
ATOM      1  C   UNL     1       0.026  -7.304  -2.549  0.00  0.00    +0.100 C 
ATOM      2  C   UNL     1      -1.070  -6.623  -3.399  0.00  0.00    +0.121 C 
ATOM      3  N   UNL     1      -0.354  -5.575  -4.163  0.00  0.00    -0.296 N 
ATOM      4  C   UNL     1       0.931  -6.208  -4.542  0.00  0.00    +0.115 C 
ATOM      5  C   UNL     1       1.337  -7.033  -3.304  0.00  0.00    -0.004 C 
ATOM      6  C   UNL     1       1.982  -8.348  -3.734  0.00  0.00    -0.010 C 
ATOM      7  C   UNL     1       3.313  -8.055  -4.431  0.00  0.00    -0.082 C 
ATOM      8  N   UNL     1       4.199  -7.329  -3.514  0.00  0.00    +0.379 N 
ATOM      9  C   UNL     1       3.614  -6.024  -3.180  0.00  0.00    -0.082 C 
ATOM     10  C   UNL     1       2.296  -6.231  -2.429  0.00  0.00    -0.010 C 
ATOM     11  C   UNL     1      -0.776  -4.327  -4.449  0.00  0.00    +0.250 C 
ATOM     12  O   UNL     1      -0.102  -3.604  -5.157  0.00  0.00    -0.270 OA
ATOM     13  H   UNL     1       4.321  -7.867  -2.670  0.00  0.00    -0.086 HD
ATOM     14  H   UNL     1       5.097  -7.190  -3.954  0.00  0.00    -0.086 HD
ENDROOT
BRANCH  11  15
ATOM     15  C   UNL     1      -2.054  -3.839  -3.902  0.00  0.00    +0.079 A 
ATOM     16  C   UNL     1      -2.150  -3.478  -2.555  0.00  0.00    +0.020 A 
ATOM     17  C   UNL     1      -3.345  -3.023  -2.049  0.00  0.00    +0.046 A 
ATOM     18  C   UNL     1      -4.461  -2.918  -2.873  0.00  0.00    +0.124 A 
ATOM     19  C   UNL     1      -4.378  -3.274  -4.211  0.00  0.00    +0.092 A 
ATOM     20  C   UNL     1      -3.179  -3.728  -4.734  0.00  0.00    +0.136 A 
BRANCH  20  21
ATOM     21  O   UNL     1      -3.094  -4.071  -6.044  0.00  0.00    -0.494 OA
ATOM     22  C   UNL     1      -4.279  -3.932  -6.829  0.00  0.00    +0.277 C 
ENDBRANCH  20  21
BRANCH  18  23
ATOM     23  O   UNL     1      -5.636  -2.468  -2.366  0.00  0.00    -0.495 OA
ATOM     24  C   UNL     1      -5.627  -2.015  -1.010  0.00  0.00    +0.277 C 
ENDBRANCH  18  23
ENDBRANCH  11  15
BRANCH   1  26
ATOM     25  N   UNL     1       0.574  -7.402  -0.139  0.00  0.00    -0.312 N 
ATOM     26  C   UNL     1       0.078  -6.693  -1.172  0.00  0.00    +0.218 C 
ATOM     27  O   UNL     1      -0.327  -5.564  -0.994  0.00  0.00    -0.275 OA
ATOM     28  H   UNL     1       0.836  -8.327  -0.266  0.00  0.00    +0.149 HD
BRANCH  25  29
ATOM     29  C   UNL     1       0.719  -6.774   1.177  0.00  0.00    +0.148 C 
BRANCH  29  31
ATOM     30  C   UNL     1       1.679  -7.048   3.467  0.00  0.00    +0.053 C 
ATOM     31  C   UNL     1       1.411  -7.747   2.133  0.00  0.00    +0.187 C 
BRANCH  31  32
ATOM     32  O   UNL     1       0.570  -8.882   2.350  0.00  0.00    -0.488 OA
BRANCH  32  33
ATOM     33  C   UNL     1       1.179 -10.042   2.713  0.00  0.00    +0.121 A 
ATOM     34  C   UNL     1       2.540 -10.058   2.977  0.00  0.00    +0.048 A 
ATOM     35  C   UNL     1       3.158 -11.237   3.345  0.00  0.00    +0.042 A 
ATOM     36  C   UNL     1       2.419 -12.403   3.451  0.00  0.00    +0.124 A 
ATOM     37  C   UNL     1       1.060 -12.389   3.187  0.00  0.00    +0.042 A 
ATOM     38  C   UNL     1       0.438 -11.209   2.825  0.00  0.00    +0.048 A 
ATOM     39  F   UNL     1       3.024 -13.556   3.811  0.00  0.00    -0.205 F 
ENDBRANCH  32  33
ENDBRANCH  31  32
ENDBRANCH  29  31
ENDBRANCH  25  29
ENDBRANCH   1  26
TORSDOF 8
