REMARK  Name = ZINC39684903
REMARK  5 active torsions:
REMARK  status: ('A' for Active; 'I' for Inactive)
REMARK    1  A    between atoms: C_3  and  C_32
REMARK    2  A    between atoms: C_6  and  C_7
REMARK    3  A    between atoms: C_7  and  N_8
REMARK    4  A    between atoms: C_9  and  C_11
REMARK    5  A    between atoms: C_22  and  C_24
REMARK                            x       y       z     vdW  Elec       q    Type
REMARK                         _______ _______ _______ _____ _____    ______ ____
ROOT
ATOM      1  C   UNL     1      -3.189  -2.383  -3.409  0.00  0.00    +0.100 C 
ATOM      2  C   UNL     1      -3.541  -0.958  -3.891  0.00  0.00    +0.121 C 
ATOM      3  N   UNL     1      -4.809  -1.119  -4.641  0.00  0.00    -0.296 N 
ATOM      4  C   UNL     1      -5.582  -2.107  -3.851  0.00  0.00    +0.115 C 
ATOM      5  C   UNL     1      -4.531  -3.134  -3.383  0.00  0.00    -0.004 C 
ATOM      6  C   UNL     1      -4.848  -3.603  -1.966  0.00  0.00    -0.010 C 
ATOM      7  C   UNL     1      -6.157  -4.397  -1.977  0.00  0.00    -0.082 C 
ATOM      8  N   UNL     1      -6.026  -5.549  -2.877  0.00  0.00    +0.379 N 
ATOM      9  C   UNL     1      -5.814  -5.086  -4.254  0.00  0.00    -0.082 C 
ATOM     10  C   UNL     1      -4.491  -4.321  -4.340  0.00  0.00    -0.010 C 
ATOM     11  C   UNL     1      -5.176  -0.505  -5.783  0.00  0.00    +0.249 C 
ATOM     12  O   UNL     1      -6.294  -0.672  -6.230  0.00  0.00    -0.270 OA
ATOM     13  H   UNL     1      -5.240  -6.112  -2.589  0.00  0.00    -0.086 HD
ATOM     14  H   UNL     1      -6.867  -6.104  -2.836  0.00  0.00    -0.086 HD
ENDROOT
BRANCH  11  15
ATOM     15  C   UNL     1      -4.221   0.370  -6.492  0.00  0.00    +0.073 A 
ATOM     16  C   UNL     1      -3.312   1.147  -5.769  0.00  0.00    +0.036 A 
ATOM     17  C   UNL     1      -2.422   1.962  -6.438  0.00  0.00    +0.042 A 
ATOM     18  C   UNL     1      -2.427   2.012  -7.822  0.00  0.00    +0.023 A 
ATOM     19  C   UNL     1      -3.322   1.246  -8.545  0.00  0.00    +0.040 A 
ATOM     20  C   UNL     1      -4.217   0.420  -7.889  0.00  0.00    +0.136 A 
ATOM     21  F   UNL     1      -5.088  -0.332  -8.596  0.00  0.00    -0.205 F 
ATOM     22 CL   UNL     1      -1.293   2.929  -5.541  0.00  0.00    -0.084 Cl
ENDBRANCH  11  15
BRANCH   1  24
ATOM     23  N   UNL     1      -1.708  -3.283  -1.643  0.00  0.00    -0.311 N 
ATOM     24  C   UNL     1      -2.588  -2.337  -2.028  0.00  0.00    +0.218 C 
ATOM     25  O   UNL     1      -2.895  -1.448  -1.262  0.00  0.00    -0.275 OA
ATOM     26  H   UNL     1      -1.463  -3.994  -2.256  0.00  0.00    +0.149 HD
BRANCH  23  27
ATOM     27  C   UNL     1      -1.124  -3.238  -0.301  0.00  0.00    +0.139 C 
BRANCH  27  33
ATOM     28  C   UNL     1       1.155  -4.259  -0.460  0.00  0.00    +0.006 A 
ATOM     29  C   UNL     1       2.024  -5.318  -0.301  0.00  0.00    +0.019 A 
ATOM     30  C   UNL     1       1.554  -6.534   0.201  0.00  0.00    +0.052 A 
ATOM     31  C   UNL     1       0.206  -6.668   0.537  0.00  0.00    +0.019 A 
ATOM     32  C   UNL     1      -0.653  -5.601   0.373  0.00  0.00    +0.006 A 
ATOM     33  C   UNL     1      -0.180  -4.399  -0.124  0.00  0.00    -0.030 A 
BRANCH  30  34
ATOM     34  C   UNL     1       2.451  -7.638   0.368  0.00  0.00    +0.099 C 
ATOM     35  N   UNL     1       3.162  -8.514   0.501  0.00  0.00    -0.191 NA
ENDBRANCH  30  34
ENDBRANCH  27  33
ENDBRANCH  23  27
ENDBRANCH   1  24
TORSDOF 5
