REMARK  Name = ZINC19329890
REMARK  17 active torsions:
REMARK  status: ('A' for Active; 'I' for Inactive)
REMARK    1  A    between atoms: C_1  and  N_2
REMARK    2  A    between atoms: N_2  and  C_3
REMARK    3  A    between atoms: N_2  and  C_4
REMARK    4  A    between atoms: C_7  and  C_10
REMARK    5  A    between atoms: C_10  and  N_11
REMARK    6  A    between atoms: N_15  and  C_29
REMARK    7  A    between atoms: C_16  and  C_17
REMARK    8  A    between atoms: C_19  and  O_27
REMARK    9  A    between atoms: C_20  and  O_25
REMARK   10  A    between atoms: C_21  and  O_23
REMARK   11  A    between atoms: O_23  and  C_24
REMARK   12  A    between atoms: O_25  and  C_26
REMARK   13  A    between atoms: O_27  and  C_28
REMARK   14  A    between atoms: C_29  and  C_30
REMARK   15  A    between atoms: C_33  and  N_36
REMARK   16  A    between atoms: N_36  and  C_37
REMARK   17  A    between atoms: N_36  and  C_38
REMARK                            x       y       z     vdW  Elec       q    Type
REMARK                         _______ _______ _______ _____ _____    ______ ____
ROOT
ATOM      1  N   UNL     1       0.051  -2.776   0.299  0.00  0.00    +0.395 N 
ATOM      2  C   UNL     1      -0.192  -4.226   0.287  0.00  0.00    -0.074 C 
ATOM      3  C   UNL     1       1.005  -4.942   0.920  0.00  0.00    -0.003 C 
ATOM      4  C   UNL     1       2.278  -4.557   0.161  0.00  0.00    +0.081 C 
ATOM      5  N   UNL     1       2.427  -3.095   0.177  0.00  0.00    -0.307 NA
ATOM      6  C   UNL     1       1.270  -2.441  -0.448  0.00  0.00    +0.034 C 
ATOM      7  H   UNL     1       0.199  -2.466   1.344  0.00  0.00    -0.079 HD
ENDROOT
BRANCH   6   8
ATOM      8  C   UNL     1       1.471  -0.947  -0.435  0.00  0.00    -0.040 A 
ATOM      9  C   UNL     1       1.601  -0.259  -1.627  0.00  0.00    +0.053 A 
ATOM     10  C   UNL     1       1.786   1.115  -1.620  0.00  0.00    +0.165 A 
ATOM     11  C   UNL     1       1.840   1.800  -0.412  0.00  0.00    +0.204 A 
ATOM     12  C   UNL     1       1.709   1.105   0.784  0.00  0.00    +0.165 A 
ATOM     13  C   UNL     1       1.525  -0.269   0.768  0.00  0.00    +0.053 A 
BRANCH  12  14
ATOM     14  O   UNL     1       1.761   1.772   1.968  0.00  0.00    -0.491 OA
ATOM     15  C   UNL     1       1.618   0.993   3.158  0.00  0.00    +0.277 C 
ENDBRANCH  12  14
BRANCH  11  16
ATOM     16  O   UNL     1       2.022   3.149  -0.401  0.00  0.00    -0.488 OA
ATOM     17  C   UNL     1       0.847   3.962  -0.436  0.00  0.00    +0.277 C 
ENDBRANCH  11  16
BRANCH  10  18
ATOM     18  O   UNL     1       1.920   1.790  -2.793  0.00  0.00    -0.491 OA
ATOM     19  C   UNL     1       1.860   1.020  -3.995  0.00  0.00    +0.277 C 
ENDBRANCH  10  18
ENDBRANCH   6   8
BRANCH   1  20
ATOM     20  C   UNL     1      -1.108  -2.044  -0.229  0.00  0.00    -0.040 C 
BRANCH  20  24
ATOM     21  C   UNL     1      -4.641  -3.298   1.823  0.00  0.00    +0.029 A 
ATOM     22  C   UNL     1      -3.895  -2.232   2.309  0.00  0.00    +0.023 A 
ATOM     23  C   UNL     1      -2.754  -1.829   1.644  0.00  0.00    +0.003 A 
ATOM     24  C   UNL     1      -2.354  -2.486   0.495  0.00  0.00    -0.064 A 
ATOM     25  C   UNL     1      -3.097  -3.545   0.005  0.00  0.00    +0.003 A 
ATOM     26  C   UNL     1      -4.236  -3.956   0.669  0.00  0.00    +0.023 A 
BRANCH  21  28
ATOM     27  C   UNL     1      -6.290  -2.938   3.638  0.00  0.00    +0.129 C 
ATOM     28  N   UNL     1      -5.795  -3.708   2.494  0.00  0.00    -0.336 N 
ATOM     29  C   UNL     1      -6.511  -4.909   2.054  0.00  0.00    +0.129 C 
ENDBRANCH  21  28
ENDBRANCH  20  24
ENDBRANCH   1  20
BRANCH   5  30
ATOM     30  C   UNL     1       3.679  -2.687  -0.475  0.00  0.00    +0.118 C 
BRANCH  30  31
ATOM     31  C   UNL     1       4.792  -3.607  -0.046  0.00  0.00    -0.033 A 
ATOM     32  C   UNL     1       5.549  -3.300   1.070  0.00  0.00    +0.007 A 
ATOM     33  C   UNL     1       6.567  -4.144   1.469  0.00  0.00    +0.023 A 
ATOM     34  C   UNL     1       6.837  -5.297   0.742  0.00  0.00    +0.029 A 
ATOM     35  C   UNL     1       6.078  -5.599  -0.382  0.00  0.00    +0.023 A 
ATOM     36  C   UNL     1       5.058  -4.753  -0.772  0.00  0.00    +0.007 A 
BRANCH  34  37
ATOM     37  N   UNL     1       7.869  -6.150   1.140  0.00  0.00    -0.336 N 
ATOM     38  C   UNL     1       8.226  -7.304   0.311  0.00  0.00    +0.129 C 
ATOM     39  C   UNL     1       8.594  -5.891   2.386  0.00  0.00    +0.129 C 
ENDBRANCH  34  37
ENDBRANCH  30  31
ENDBRANCH   5  30
TORSDOF 10
