REMARK  Name = ZINC12040179
REMARK  8 active torsions:
REMARK  status: ('A' for Active; 'I' for Inactive)
REMARK    1  A    between atoms: C_1  and  C_2
REMARK    2  A    between atoms: C_2  and  C_3
REMARK    3  A    between atoms: C_3  and  C_14
REMARK    4  A    between atoms: N_6  and  C_10
REMARK    5  A    between atoms: C_10  and  C_11
REMARK    6  A    between atoms: C_11  and  C_13
REMARK    7  A    between atoms: C_19  and  C_20
REMARK    8  A    between atoms: C_19  and  N_58
REMARK                            x       y       z     vdW  Elec       q    Type
REMARK                         _______ _______ _______ _____ _____    ______ ____
ROOT
ATOM      1  C   UNL     1      -0.950   2.833   3.797  0.00  0.00    +0.018 C 
ATOM      2  C   UNL     1      -0.998   1.311   3.635  0.00  0.00    -0.013 C 
ATOM      3  C   UNL     1      -0.165   0.905   2.417  0.00  0.00    -0.078 C 
ATOM      4  C   UNL     1      -0.620   3.022   1.329  0.00  0.00    -0.078 C 
ATOM      5  C   UNL     1      -1.466   3.491   2.514  0.00  0.00    -0.013 C 
ATOM      6  N   UNL     1      -0.729   1.552   1.213  0.00  0.00    +0.382 N 
ATOM      7  H   UNL     1      -1.720   1.296   1.131  0.00  0.00    -0.081 HD
ENDROOT
BRANCH   1   8
ATOM      8  C   UNL     1      -1.828   3.250   4.977  0.00  0.00    +0.115 C 
ATOM      9  C   UNL     1      -1.351   2.591   6.256  0.00  0.00    +0.247 C 
ATOM     10  O   UNL     1      -0.270   2.724   6.789  0.00  0.00    -0.273 OA
ATOM     11  N   UNL     1      -2.378   1.829   6.679  0.00  0.00    -0.220 N 
ATOM     12  C   UNL     1      -3.428   1.913   5.853  0.00  0.00    +0.310 C 
ATOM     13  O   UNL     1      -4.472   1.315   6.025  0.00  0.00    -0.252 OA
ATOM     14  N   UNL     1      -3.198   2.733   4.812  0.00  0.00    -0.285 N 
ATOM     15  H   UNL     1      -3.814   2.944   4.093  0.00  0.00    +0.151 HD
BRANCH   8  17
ATOM     16  C   UNL     1      -2.723   5.163   6.313  0.00  0.00    +0.006 C 
ATOM     17  C   UNL     1      -1.838   4.773   5.127  0.00  0.00    +0.032 C 
ENDBRANCH   8  17
BRANCH  11  18
ATOM     18  C   UNL     1      -2.350   1.009   7.893  0.00  0.00    +0.148 C 
BRANCH  18  19
ATOM     19  C   UNL     1      -2.845   1.824   9.061  0.00  0.00    -0.062 C 
ATOM     20  C   UNL     1      -4.103   1.756   9.420  0.00  0.00    +0.009 C 
ATOM     21  C   UNL     1      -1.892   2.716   9.814  0.00  0.00    +0.040 C 
ENDBRANCH  18  19
ENDBRANCH  11  18
ENDBRANCH   1   8
BRANCH   6  22
ATOM     22  C   UNL     1      -0.013   1.086   0.008  0.00  0.00    -0.041 C 
BRANCH  22  23
ATOM     23  C   UNL     1      -0.742   1.585  -1.213  0.00  0.00    -0.042 A 
ATOM     24  C   UNL     1      -0.216   2.629  -1.952  0.00  0.00    +0.052 A 
ATOM     25  C   UNL     1      -0.882   3.087  -3.076  0.00  0.00    +0.167 A 
ATOM     26  C   UNL     1      -2.087   2.500  -3.456  0.00  0.00    +0.168 A 
ATOM     27  C   UNL     1      -2.611   1.458  -2.709  0.00  0.00    +0.069 A 
ATOM     28  C   UNL     1      -1.938   1.002  -1.589  0.00  0.00    +0.046 A 
ATOM     29 CL   UNL     1      -2.597  -0.304  -0.654  0.00  0.00    -0.083 Cl
ATOM     30  O   UNL     1      -2.542   3.126  -4.580  0.00  0.00    -0.453 OA
ATOM     31  C   UNL     1      -1.404   3.825  -5.118  0.00  0.00    +0.466 C 
ATOM     32  O   UNL     1      -0.582   4.080  -3.964  0.00  0.00    -0.453 OA
ENDBRANCH  22  23
ENDBRANCH   6  22
TORSDOF 6
