REMARK  Name = ZINC40978945
REMARK  9 active torsions:
REMARK  status: ('A' for Active; 'I' for Inactive)
REMARK    1  A    between atoms: C_1  and  C_2
REMARK    2  A    between atoms: C_3  and  C_27
REMARK    3  A    between atoms: C_4  and  C_12
REMARK    4  A    between atoms: C_17  and  O_18
REMARK    5  A    between atoms: O_18  and  C_19
REMARK    6  A    between atoms: C_19  and  C_20
REMARK    7  A    between atoms: C_27  and  O_29
REMARK    8  A    between atoms: O_29  and  C_30
REMARK    9  A    between atoms: C_30  and  C_31
REMARK                            x       y       z     vdW  Elec       q    Type
REMARK                         _______ _______ _______ _____ _____    ______ ____
ROOT
ATOM      1  C   UNL     1       1.329   0.126  -0.448  0.00  0.00    +0.061 C 
ATOM      2  C   UNL     1       0.940  -1.290  -0.110  0.00  0.00    +0.020 C 
ATOM      3  C   UNL     1      -0.359  -1.584   0.056  0.00  0.00    +0.082 C 
ATOM      4  C   UNL     1      -0.853  -2.962   0.406  0.00  0.00    +0.184 C 
ATOM      5  N   UNL     1       0.235  -3.921   0.247  0.00  0.00    -0.201 N 
ATOM      6  C   UNL     1       1.534  -3.565   0.072  0.00  0.00    +0.240 A 
ATOM      7  N   UNL     1       2.226  -4.665  -0.026  0.00  0.00    -0.092 NA
ATOM      8  N   UNL     1       1.451  -5.690   0.071  0.00  0.00    -0.021 NA
ATOM      9  N   UNL     1       0.224  -5.314   0.238  0.00  0.00    -0.042 NA
ATOM     10  N   UNL     1       1.927  -2.237   0.014  0.00  0.00    -0.286 N 
ATOM     11  H   UNL     1       2.863  -1.986   0.062  0.00  0.00    +0.155 HD
ENDROOT
BRANCH   4  12
ATOM     12  C   UNL     1      -1.331  -2.977   1.835  0.00  0.00    +0.023 A 
ATOM     13  C   UNL     1      -0.469  -2.627   2.857  0.00  0.00    +0.009 A 
ATOM     14  C   UNL     1      -0.907  -2.641   4.168  0.00  0.00    +0.001 A 
ATOM     15  C   UNL     1      -2.209  -3.003   4.460  0.00  0.00    +0.004 A 
ATOM     16  C   UNL     1      -3.075  -3.353   3.443  0.00  0.00    +0.046 A 
ATOM     17  C   UNL     1      -2.639  -3.335   2.126  0.00  0.00    +0.127 A 
BRANCH  17  18
ATOM     18  O   UNL     1      -3.491  -3.674   1.122  0.00  0.00    -0.487 OA
BRANCH  18  19
ATOM     19  C   UNL     1      -4.784  -4.149   1.501  0.00  0.00    +0.264 C 
BRANCH  19  20
ATOM     20  C   UNL     1      -5.557  -4.540   0.268  0.00  0.00    -0.010 A 
ATOM     21  C   UNL     1      -6.380  -3.619  -0.352  0.00  0.00    +0.008 A 
ATOM     22  C   UNL     1      -7.089  -3.976  -1.484  0.00  0.00    +0.020 A 
ATOM     23  C   UNL     1      -6.976  -5.257  -1.994  0.00  0.00    +0.041 A 
ATOM     24  C   UNL     1      -6.152  -6.179  -1.373  0.00  0.00    +0.020 A 
ATOM     25  C   UNL     1      -5.439  -5.818  -0.245  0.00  0.00    +0.008 A 
ATOM     26 CL   UNL     1      -7.867  -5.707  -3.414  0.00  0.00    -0.084 Cl
ENDBRANCH  19  20
ENDBRANCH  18  19
ENDBRANCH  17  18
ENDBRANCH   4  12
BRANCH   3  27
ATOM     27  C   UNL     1      -1.308  -0.550  -0.107  0.00  0.00    +0.339 C 
ATOM     28  O   UNL     1      -0.936   0.595  -0.285  0.00  0.00    -0.245 OA
BRANCH  27  29
ATOM     29  O   UNL     1      -2.627  -0.832  -0.064  0.00  0.00    -0.457 OA
BRANCH  29  30
ATOM     30  C   UNL     1      -3.530   0.248  -0.311  0.00  0.00    +0.259 C 
BRANCH  30  31
ATOM     31  C   UNL     1      -4.948  -0.237  -0.155  0.00  0.00    +0.006 C 
ATOM     32  C   UNL     1      -5.802   0.455   0.557  0.00  0.00    +0.007 C 
ENDBRANCH  30  31
ENDBRANCH  29  30
ENDBRANCH  27  29
ENDBRANCH   3  27
TORSDOF 8
