REMARK  Name = ZINC41530931
REMARK  7 active torsions:
REMARK  status: ('A' for Active; 'I' for Inactive)
REMARK    1  A    between atoms: C_1  and  S_2
REMARK    2  A    between atoms: S_2  and  C_3
REMARK    3  A    between atoms: C_4  and  C_26
REMARK    4  A    between atoms: C_5  and  N_13
REMARK    5  A    between atoms: N_13  and  C_14
REMARK    6  A    between atoms: C_14  and  C_15
REMARK    7  A    between atoms: C_15  and  C_16
REMARK                            x       y       z     vdW  Elec       q    Type
REMARK                         _______ _______ _______ _____ _____    ______ ____
ROOT
ATOM      1  C   UNL     1       0.400  -0.375  -1.901  0.00  0.00    +0.117 A 
ATOM      2  C   UNL     1       0.782  -1.727  -2.061  0.00  0.00    +0.105 A 
ATOM      3  C   UNL     1       1.538  -2.096  -3.180  0.00  0.00    +0.057 A 
ATOM      4  C   UNL     1       1.885  -1.085  -4.109  0.00  0.00    +0.023 A 
ATOM      5  C   UNL     1       2.638  -1.381  -5.253  0.00  0.00    +0.012 A 
ATOM      6  C   UNL     1       2.956  -0.385  -6.128  0.00  0.00    +0.001 A 
ATOM      7  C   UNL     1       2.542   0.923  -5.899  0.00  0.00    +0.002 A 
ATOM      8  C   UNL     1       1.808   1.244  -4.796  0.00  0.00    +0.028 A 
ATOM      9  C   UNL     1       1.461   0.244  -3.873  0.00  0.00    +0.074 A 
ATOM     10  N   UNL     1       0.735   0.541  -2.786  0.00  0.00    -0.239 NA
ENDROOT
BRANCH   1  12
ATOM     11  C   UNL     1      -0.806   1.875  -0.709  0.00  0.00    +0.091 C 
ATOM     12  S   UNL     1      -0.550   0.092  -0.493  0.00  0.00    -0.108 S 
ENDBRANCH   1  12
BRANCH   3  13
ATOM     13  N   UNL     1       1.931  -3.404  -3.373  0.00  0.00    -0.342 N 
ATOM     14  H   UNL     1       2.647  -3.609  -3.995  0.00  0.00    +0.146 HD
BRANCH  13  15
ATOM     15  C   UNL     1       1.268  -4.485  -2.638  0.00  0.00    +0.106 C 
BRANCH  15  16
ATOM     16  C   UNL     1       1.767  -5.835  -3.156  0.00  0.00    +0.056 C 
BRANCH  16  17
ATOM     17  C   UNL     1       1.085  -6.946  -2.401  0.00  0.00    -0.021 A 
ATOM     18  C   UNL     1       1.558  -7.583  -1.318  0.00  0.00    +0.087 A 
ATOM     19  N   UNL     1       0.663  -8.533  -0.907  0.00  0.00    -0.360 N 
ATOM     20  H   UNL     1       0.784  -9.120  -0.145  0.00  0.00    +0.165 HD
ATOM     21  C   UNL     1      -0.436  -8.530  -1.736  0.00  0.00    +0.047 A 
ATOM     22  C   UNL     1      -0.223  -7.532  -2.704  0.00  0.00    +0.003 A 
ATOM     23  C   UNL     1      -1.187  -7.296  -3.686  0.00  0.00    +0.010 A 
ATOM     24  C   UNL     1      -2.337  -8.036  -3.699  0.00  0.00    +0.001 A 
ATOM     25  C   UNL     1      -2.554  -9.018  -2.744  0.00  0.00    +0.002 A 
ATOM     26  C   UNL     1      -1.611  -9.274  -1.772  0.00  0.00    +0.026 A 
ENDBRANCH  16  17
ENDBRANCH  15  16
ENDBRANCH  13  15
ENDBRANCH   3  13
BRANCH   2  27
ATOM     27  C   UNL     1       0.402  -2.707  -1.088  0.00  0.00    +0.104 C 
ATOM     28  N   UNL     1       0.101  -3.484  -0.316  0.00  0.00    -0.191 NA
ENDBRANCH   2  27
TORSDOF 6
