REMARK  Name = ZINC35707649
REMARK  11 active torsions:
REMARK  status: ('A' for Active; 'I' for Inactive)
REMARK    1  A    between atoms: C_1  and  C_2
REMARK    2  A    between atoms: C_2  and  N_3
REMARK    3  A    between atoms: C_4  and  C_34
REMARK    4  A    between atoms: C_5  and  C_28
REMARK    5  A    between atoms: C_6  and  C_11
REMARK    6  A    between atoms: C_14  and  N_17
REMARK    7  A    between atoms: N_20  and  C_21
REMARK    8  A    between atoms: C_28  and  O_30
REMARK    9  A    between atoms: O_30  and  C_31
REMARK   10  A    between atoms: C_31  and  C_32
REMARK   11  A    between atoms: C_31  and  C_33
REMARK                            x       y       z     vdW  Elec       q    Type
REMARK                         _______ _______ _______ _____ _____    ______ ____
ROOT
ATOM      1  C   UNL     1       2.098  -3.112  -3.866  0.00  0.00    -0.022 A 
ATOM      2  C   UNL     1       2.039  -4.060  -2.861  0.00  0.00    +0.007 A 
ATOM      3  C   UNL     1       2.259  -5.392  -3.152  0.00  0.00    +0.024 A 
ATOM      4  C   UNL     1       2.539  -5.779  -4.456  0.00  0.00    +0.035 A 
ATOM      5  C   UNL     1       2.598  -4.825  -5.463  0.00  0.00    +0.024 A 
ATOM      6  C   UNL     1       2.371  -3.495  -5.166  0.00  0.00    +0.007 A 
ENDROOT
BRANCH   1  10
ATOM      7  N   UNL     1       0.700  -0.672  -1.235  0.00  0.00    -0.259 N 
ATOM      8  C   UNL     1      -0.128  -0.959  -2.283  0.00  0.00    +0.024 C 
ATOM      9  C   UNL     1       0.361  -1.445  -3.444  0.00  0.00    +0.078 C 
ATOM     10  C   UNL     1       1.858  -1.660  -3.545  0.00  0.00    +0.143 C 
ATOM     11  N   UNL     1       2.662  -1.319  -2.359  0.00  0.00    -0.288 N 
ATOM     12  C   UNL     1       2.028  -0.838  -1.271  0.00  0.00    +0.307 C 
ATOM     13  O   UNL     1       2.683  -0.550  -0.288  0.00  0.00    -0.252 OA
ATOM     14  C   UNL     1      -1.611  -0.731  -2.140  0.00  0.00    +0.061 C 
ATOM     15  H   UNL     1       3.625  -1.434  -2.362  0.00  0.00    +0.151 HD
BRANCH   7  17
ATOM     16  C   UNL     1      -0.398  -1.311   0.855  0.00  0.00    +0.025 C 
ATOM     17  C   UNL     1       0.101  -0.148  -0.005  0.00  0.00    +0.111 C 
ENDBRANCH   7  17
BRANCH   9  18
ATOM     18  C   UNL     1      -0.495  -1.743  -4.530  0.00  0.00    +0.339 C 
ATOM     19  O   UNL     1      -1.694  -1.563  -4.427  0.00  0.00    -0.245 OA
BRANCH  18  20
ATOM     20  O   UNL     1       0.018  -2.228  -5.680  0.00  0.00    -0.459 OA
BRANCH  20  21
ATOM     21  C   UNL     1      -0.905  -2.507  -6.735  0.00  0.00    +0.171 C 
ATOM     22  C   UNL     1      -0.211  -2.313  -8.085  0.00  0.00    +0.052 C 
ATOM     23  C   UNL     1      -1.394  -3.952  -6.616  0.00  0.00    +0.052 C 
ENDBRANCH  20  21
ENDBRANCH  18  20
ENDBRANCH   9  18
ENDBRANCH   1  10
BRANCH   4  24
ATOM     24  N   UNL     1       2.763  -7.128  -4.754  0.00  0.00    -0.269 N 
ATOM     25  C   UNL     1       2.080  -8.086  -4.097  0.00  0.00    +0.308 C 
ATOM     26  O   UNL     1       1.327  -7.783  -3.192  0.00  0.00    -0.252 OA
ATOM     27  N   UNL     1       2.232  -9.380  -4.443  0.00  0.00    -0.268 N 
ATOM     28  H   UNL     1       3.410  -7.373  -5.434  0.00  0.00    +0.156 HD
ATOM     29  H   UNL     1       2.892  -9.630  -5.108  0.00  0.00    +0.156 HD
BRANCH  27  30
ATOM     30  C   UNL     1       1.435 -10.363  -3.844  0.00  0.00    +0.049 A 
ATOM     31  C   UNL     1       0.124 -10.075  -3.488  0.00  0.00    +0.024 A 
ATOM     32  C   UNL     1      -0.659 -11.046  -2.897  0.00  0.00    +0.002 A 
ATOM     33  C   UNL     1      -0.139 -12.306  -2.659  0.00  0.00    +0.001 A 
ATOM     34  C   UNL     1       1.166 -12.596  -3.011  0.00  0.00    +0.017 A 
ATOM     35  C   UNL     1       1.953 -11.630  -3.608  0.00  0.00    +0.039 A 
ATOM     36 BR   UNL     1       3.736 -12.030  -4.097  0.00  0.00    -0.048 Br
ENDBRANCH  27  30
ENDBRANCH   4  24
TORSDOF 7
