REMARK  Name = ZINC37061570
REMARK  5 active torsions:
REMARK  status: ('A' for Active; 'I' for Inactive)
REMARK    1  A    between atoms: C_1  and  C_2
REMARK    2  A    between atoms: C_2  and  C_4
REMARK    3  A    between atoms: C_2  and  N_13
REMARK    4  A    between atoms: N_13  and  C_14
REMARK    5  A    between atoms: C_17  and  N_20
REMARK                            x       y       z     vdW  Elec       q    Type
REMARK                         _______ _______ _______ _____ _____    ______ ____
ROOT
ATOM      1  C   UNL     1      -0.192   1.513  -0.041  0.00  0.00    +0.033 C 
ATOM      2  C   UNL     1       0.002  -0.004   0.002  0.00  0.00    +0.100 C 
ENDROOT
BRANCH   2   3
ATOM      3  C   UNL     1       0.679  -0.460  -1.265  0.00  0.00    +0.012 A 
ATOM      4  C   UNL     1       1.996  -0.885  -1.231  0.00  0.00    +0.047 A 
ATOM      5  C   UNL     1       2.618  -1.304  -2.394  0.00  0.00    +0.023 A 
ATOM      6  C   UNL     1       1.925  -1.299  -3.590  0.00  0.00    +0.041 A 
ATOM      7  C   UNL     1       0.608  -0.875  -3.625  0.00  0.00    +0.142 A 
ATOM      8  C   UNL     1      -0.017  -0.460  -2.459  0.00  0.00    +0.082 A 
ATOM      9 CL   UNL     1      -1.671   0.066  -2.501  0.00  0.00    -0.080 Cl
ATOM     10  F   UNL     1      -0.070  -0.870  -4.793  0.00  0.00    -0.204 F 
ATOM     11 CL   UNL     1       2.867  -0.891   0.270  0.00  0.00    -0.083 Cl
ENDBRANCH   2   3
BRANCH   2  12
ATOM     12  N   UNL     1      -1.302  -0.660   0.122  0.00  0.00    -0.337 N 
ATOM     13  H   UNL     1      -1.715  -1.065  -0.656  0.00  0.00    +0.147 HD
BRANCH  12  14
ATOM     14  C   UNL     1      -1.952  -0.703   1.358  0.00  0.00    +0.028 A 
ATOM     15  C   UNL     1      -1.365  -0.118   2.473  0.00  0.00    +0.025 A 
ATOM     16  C   UNL     1      -2.009  -0.161   3.694  0.00  0.00    +0.034 A 
ATOM     17  C   UNL     1      -3.238  -0.785   3.806  0.00  0.00    +0.126 A 
ATOM     18  C   UNL     1      -3.825  -1.368   2.699  0.00  0.00    +0.034 A 
ATOM     19  C   UNL     1      -3.188  -1.324   1.474  0.00  0.00    +0.025 A 
BRANCH  17  20
ATOM     20  N   UNL     1      -3.926  -0.830   5.116  0.00  0.00    +0.056 N 
ATOM     21  O   UNL     1      -3.414  -0.321   6.086  0.00  0.00    -0.126 OA
ATOM     22  O   UNL     1      -5.000  -1.375   5.216  0.00  0.00    -0.126 OA
ENDBRANCH  17  20
ENDBRANCH  12  14
ENDBRANCH   2  12
TORSDOF 4
