REMARK  Name = ZINC02023330
REMARK  5 active torsions:
REMARK  status: ('A' for Active; 'I' for Inactive)
REMARK    1  A    between atoms: C_1  and  C_2
REMARK    2  A    between atoms: C_5  and  S_8
REMARK    3  A    between atoms: S_8  and  O_11
REMARK    4  A    between atoms: O_11  and  C_12
REMARK    5  A    between atoms: C_22  and  N_23
REMARK                            x       y       z     vdW  Elec       q    Type
REMARK                         _______ _______ _______ _____ _____    ______ ____
ROOT
ATOM      1  C   UNL     1      -1.210   2.074   0.019  0.00  0.00    +0.195 A 
ATOM      2  C   UNL     1      -1.175   3.543   0.031  0.00  0.00    +0.064 A 
ATOM      3  C   UNL     1      -2.354   4.292   0.045  0.00  0.00    +0.015 A 
ATOM      4  C   UNL     1      -2.287   5.667   0.051  0.00  0.00    +0.001 A 
ATOM      5  C   UNL     1      -1.057   6.308   0.042  0.00  0.00    +0.004 A 
ATOM      6  C   UNL     1       0.115   5.582   0.029  0.00  0.00    +0.047 A 
ATOM      7  C   UNL     1       0.070   4.193   0.023  0.00  0.00    +0.143 A 
ATOM      8  O   UNL     1       1.209   3.468   0.009  0.00  0.00    -0.421 OA
ATOM      9  C   UNL     1       1.192   2.126   0.002  0.00  0.00    +0.362 A 
ATOM     10  O   UNL     1       2.248   1.519  -0.010  0.00  0.00    -0.243 OA
ATOM     11  C   UNL     1      -0.017   1.401   0.010  0.00  0.00    +0.156 A 
ENDROOT
BRANCH  11  12
ATOM     12  N   UNL     1       0.002  -0.004   0.002  0.00  0.00    -0.349 N 
ATOM     13  H   UNL     1       0.849  -0.478  -0.009  0.00  0.00    +0.143 HD
ATOM     14  H   UNL     1      -0.831  -0.500   0.007  0.00  0.00    +0.143 HD
ENDBRANCH  11  12
BRANCH   1  15
ATOM     15  O   UNL     1      -2.389   1.404   0.021  0.00  0.00    -0.339 OA
BRANCH  15  16
ATOM     16  S   UNL     1      -2.920   1.091   1.413  0.00  0.00    +0.151 S 
ATOM     17  O   UNL     1      -4.030   0.221   1.238  0.00  0.00    -0.131 OA
ATOM     18  O   UNL     1      -1.795   0.741   2.208  0.00  0.00    -0.131 OA
BRANCH  16  23
ATOM     19  C   UNL     1      -5.105   6.235   3.687  0.00  0.00    +0.044 C 
ATOM     20  C   UNL     1      -4.559   4.950   3.119  0.00  0.00    -0.050 A 
ATOM     21  C   UNL     1      -5.383   4.112   2.392  0.00  0.00    +0.005 A 
ATOM     22  C   UNL     1      -4.882   2.933   1.871  0.00  0.00    +0.031 A 
ATOM     23  C   UNL     1      -3.558   2.594   2.077  0.00  0.00    +0.128 A 
ATOM     24  C   UNL     1      -2.736   3.430   2.808  0.00  0.00    +0.031 A 
ATOM     25  C   UNL     1      -3.235   4.611   3.325  0.00  0.00    +0.005 A 
ENDBRANCH  16  23
ENDBRANCH  15  16
ENDBRANCH   1  15
TORSDOF 4
