REMARK  Name = ZINC63952565
REMARK  6 active torsions:
REMARK  status: ('A' for Active; 'I' for Inactive)
REMARK    1  A    between atoms: C_1  and  C_2
REMARK    2  A    between atoms: N_6  and  N_24
REMARK    3  A    between atoms: C_7  and  N_11
REMARK    4  A    between atoms: N_11  and  C_12
REMARK    5  A    between atoms: C_12  and  C_13
REMARK    6  A    between atoms: C_13  and  C_14
REMARK                            x       y       z     vdW  Elec       q    Type
REMARK                         _______ _______ _______ _____ _____    ______ ____
ROOT
ATOM      1  N   UNL     1       4.112  -0.624  -0.221  0.00  0.00    -0.284 NA
ATOM      2  H   UNL     1       4.445  -0.966  -1.110  0.00  0.00    +0.125 HD
ENDROOT
BRANCH   1   8
ATOM      3  C   UNL     1      -0.019   1.526   0.010  0.00  0.00    +0.035 C 
ATOM      4  C   UNL     1       0.002  -0.004   0.002  0.00  0.00    +0.154 C 
ATOM      5  C   UNL     1       0.705  -0.489  -1.236  0.00  0.00    +0.249 C 
ATOM      6  O   UNL     1       0.117  -0.456  -2.296  0.00  0.00    -0.272 OA
ATOM      7  N   UNL     1       1.960  -0.955  -1.207  0.00  0.00    -0.206 N 
ATOM      8  C   UNL     1       2.732  -1.062   0.028  0.00  0.00    +0.246 C 
ATOM      9  N   UNL     1       2.138  -0.218   1.073  0.00  0.00    -0.222 NA
ATOM     10  N   UNL     1       0.712  -0.491   1.194  0.00  0.00    -0.242 NA
ATOM     11  H   UNL     1       2.607  -0.351   1.956  0.00  0.00    +0.144 HD
ATOM     12  H   UNL     1       0.543  -1.475   1.339  0.00  0.00    +0.141 HD
BRANCH   7  13
ATOM     13  N   UNL     1       2.541  -1.347  -2.379  0.00  0.00    -0.249 NA
ATOM     14  H   UNL     1       1.908  -1.224  -3.155  0.00  0.00    +0.141 HD
ATOM     15  H   UNL     1       3.406  -0.852  -2.537  0.00  0.00    +0.141 HD
ENDBRANCH   7  13
ENDBRANCH   1   8
BRANCH   1  16
ATOM     16  C   UNL     1       5.002  -1.041   0.871  0.00  0.00    +0.088 C 
BRANCH  16  17
ATOM     17  C   UNL     1       6.426  -0.568   0.576  0.00  0.00    +0.048 C 
BRANCH  17  18
ATOM     18  C   UNL     1       7.340  -0.996   1.696  0.00  0.00    -0.040 C 
ATOM     19  C   UNL     1       8.109  -2.107   1.738  0.00  0.00    +0.000 A 
ATOM     20  C   UNL     1       8.318  -3.208   0.789  0.00  0.00    +0.030 A 
ATOM     21  C   UNL     1       9.172  -4.205   1.119  0.00  0.00    +0.042 A 
ATOM     22  C   UNL     1       9.859  -4.213   2.342  0.00  0.00    +0.022 A 
ATOM     23  C   UNL     1       9.719  -3.236   3.263  0.00  0.00    +0.027 A 
ATOM     24  C   UNL     1       8.847  -2.139   3.021  0.00  0.00    +0.043 A 
ATOM     25  N   UNL     1       8.546  -1.088   3.744  0.00  0.00    -0.380 N 
ATOM     26  C   UNL     1       7.586  -0.267   2.998  0.00  0.00    +0.144 C 
ATOM     27 CL   UNL     1       9.421  -5.509   0.001  0.00  0.00    -0.084 Cl
ATOM     28  H   UNL     1       8.900  -0.885   4.623  0.00  0.00    +0.160 HD
ENDBRANCH  17  18
ENDBRANCH  16  17
ENDBRANCH   1  16
TORSDOF 5
