REMARK  Name = ZINC16688327
REMARK  14 active torsions:
REMARK  status: ('A' for Active; 'I' for Inactive)
REMARK    1  A    between atoms: C_1  and  C_2
REMARK    2  A    between atoms: C_2  and  O_3
REMARK    3  A    between atoms: O_3  and  C_4
REMARK    4  A    between atoms: C_6  and  C_16
REMARK    5  A    between atoms: C_9  and  O_10
REMARK    6  A    between atoms: O_10  and  C_11
REMARK    7  A    between atoms: C_11  and  C_12
REMARK    8  A    between atoms: C_16  and  N_56
REMARK    9  A    between atoms: C_17  and  C_18
REMARK   10  A    between atoms: C_17  and  N_56
REMARK   11  A    between atoms: C_18  and  C_19
REMARK   12  A    between atoms: C_19  and  S_20
REMARK   13  A    between atoms: S_20  and  C_21
REMARK   14  A    between atoms: N_25  and  C_26
REMARK                            x       y       z     vdW  Elec       q    Type
REMARK                         _______ _______ _______ _____ _____    ______ ____
ROOT
ATOM      1  C   UNL     1       1.526   0.032   6.145  0.00  0.00    -0.047 C 
ENDROOT
BRANCH   1   4
ATOM      2  C   UNL     1       0.807   1.987   2.993  0.00  0.00    +0.163 A 
ATOM      3  C   UNL     1       1.347   1.611   4.212  0.00  0.00    +0.051 A 
ATOM      4  C   UNL     1       0.937   0.438   4.818  0.00  0.00    -0.060 A 
ATOM      5  C   UNL     1      -0.012  -0.363   4.210  0.00  0.00    +0.021 A 
ATOM      6  C   UNL     1      -0.559   0.009   2.996  0.00  0.00    +0.063 A 
ATOM      7  C   UNL     1      -0.148   1.182   2.381  0.00  0.00    +0.176 A 
ATOM      8 BR   UNL     1      -1.863  -1.084   2.172  0.00  0.00    -0.046 Br
BRANCH   2   9
ATOM      9  O   UNL     1       1.209   3.141   2.396  0.00  0.00    -0.489 OA
BRANCH   9  11
ATOM     10  C   UNL     1       2.516   5.169   2.264  0.00  0.00    +0.048 C 
ATOM     11  C   UNL     1       2.192   3.918   3.083  0.00  0.00    +0.226 C 
ENDBRANCH   9  11
ENDBRANCH   2   9
BRANCH   7  12
ATOM     12  O   UNL     1      -0.682   1.547   1.184  0.00  0.00    -0.478 OA
BRANCH  12  13
ATOM     13  C   UNL     1      -0.013   1.086   0.008  0.00  0.00    +0.324 C 
BRANCH  13  14
ATOM     14  C   UNL     1      -0.742   1.585  -1.213  0.00  0.00    +0.248 C 
ATOM     15  O   UNL     1      -1.736   2.268  -1.088  0.00  0.00    -0.272 OA
ATOM     16  N   UNL     1      -0.288   1.272  -2.443  0.00  0.00    -0.327 N 
ATOM     17  H   UNL     1       0.507   0.726  -2.543  0.00  0.00    +0.145 HD
ATOM     18  H   UNL     1      -0.758   1.594  -3.229  0.00  0.00    +0.145 HD
ENDBRANCH  13  14
ENDBRANCH  12  13
ENDBRANCH   7  12
ENDBRANCH   1   4
BRANCH   1  19
ATOM     19  N   UNL     1       0.704   0.596   7.232  0.00  0.00    +0.382 N 
ATOM     20  H   UNL     1      -0.255   0.239   7.152  0.00  0.00    -0.085 HD
ATOM     21  H   UNL     1       0.696   1.620   7.153  0.00  0.00    -0.085 HD
BRANCH  19  22
ATOM     22  C   UNL     1       1.258   0.214   8.544  0.00  0.00    -0.081 C 
BRANCH  22  23
ATOM     23  C   UNL     1       0.387   0.813   9.650  0.00  0.00    -0.008 C 
BRANCH  23  24
ATOM     24  C   UNL     1       0.954   0.420  11.016  0.00  0.00    +0.075 C 
BRANCH  24  25
ATOM     25  S   UNL     1      -0.076   1.129  12.324  0.00  0.00    -0.084 S 
BRANCH  25  26
ATOM     26  C   UNL     1       0.782   0.537  13.744  0.00  0.00    +0.214 A 
ATOM     27  N   UNL     1       1.866  -0.209  13.749  0.00  0.00    -0.101 NA
ATOM     28  N   UNL     1       2.233  -0.463  14.953  0.00  0.00    -0.022 NA
ATOM     29  N   UNL     1       1.428   0.091  15.794  0.00  0.00    -0.038 NA
ATOM     30  N   UNL     1       0.453   0.768  15.040  0.00  0.00    -0.187 N 
BRANCH  30  31
ATOM     31  C   UNL     1      -0.627   1.520  15.524  0.00  0.00    +0.070 A 
ATOM     32  C   UNL     1      -1.046   2.654  14.841  0.00  0.00    +0.028 A 
ATOM     33  C   UNL     1      -2.114   3.389  15.317  0.00  0.00    +0.002 A 
ATOM     34  C   UNL     1      -2.759   3.003  16.478  0.00  0.00    +0.000 A 
ATOM     35  C   UNL     1      -2.340   1.877  17.163  0.00  0.00    +0.002 A 
ATOM     36  C   UNL     1      -1.276   1.135  16.689  0.00  0.00    +0.028 A 
ENDBRANCH  30  31
ENDBRANCH  25  26
ENDBRANCH  24  25
ENDBRANCH  23  24
ENDBRANCH  22  23
ENDBRANCH  19  22
ENDBRANCH   1  19
TORSDOF 13
