REMARK  Name = ZINC02052831
REMARK  1 active torsions:
REMARK  status: ('A' for Active; 'I' for Inactive)
REMARK    1  A    between atoms: C_14  and  C_15
REMARK                            x       y       z     vdW  Elec       q    Type
REMARK                         _______ _______ _______ _____ _____    ______ ____
ROOT
ATOM      1  C   UNL     1       4.985   0.276  -0.045  0.00  0.00    +0.191 C 
ATOM      2  N   UNL     1       6.070  -0.534  -0.629  0.00  0.00    -0.316 N 
ATOM      3  C   UNL     1       6.137  -0.576  -2.000  0.00  0.00    +0.080 A 
ATOM      4  C   UNL     1       5.606   0.438  -2.810  0.00  0.00    +0.068 A 
ATOM      5  C   UNL     1       5.748   0.237  -4.242  0.00  0.00    -0.023 A 
ATOM      6  C   UNL     1       6.383  -0.905  -4.588  0.00  0.00    -0.005 A 
ATOM      7  S   UNL     1       6.779  -1.688  -3.050  0.00  0.00    -0.078 S 
ATOM      8  C   UNL     1       6.677  -1.387  -5.975  0.00  0.00    +0.043 C 
ATOM      9  C   UNL     1       5.821  -0.577  -6.960  0.00  0.00    +0.005 C 
ATOM     10  C   UNL     1       5.951   0.910  -6.621  0.00  0.00    +0.005 C 
ATOM     11  C   UNL     1       5.240   1.207  -5.300  0.00  0.00    +0.037 C 
ATOM     12  C   UNL     1       4.973   1.596  -2.138  0.00  0.00    +0.248 C 
ATOM     13  O   UNL     1       4.651   2.592  -2.759  0.00  0.00    -0.270 OA
ATOM     14  N   UNL     1       4.767   1.500  -0.808  0.00  0.00    -0.289 N 
ATOM     15  H   UNL     1       6.704  -1.012  -0.072  0.00  0.00    +0.149 HD
ATOM     16  H   UNL     1       4.456   2.287  -0.335  0.00  0.00    +0.151 HD
ENDROOT
BRANCH   1  30
ATOM     17  C   UNL     1       3.835  -4.693  -0.452  0.00  0.00    +0.001 A 
ATOM     18  C   UNL     1       5.011  -3.943  -0.460  0.00  0.00    +0.001 A 
ATOM     19  C   UNL     1       4.997  -2.592  -0.327  0.00  0.00    +0.009 A 
ATOM     20  C   UNL     1       3.765  -1.920  -0.176  0.00  0.00    -0.011 A 
ATOM     21  C   UNL     1       2.529  -2.708  -0.169  0.00  0.00    -0.017 A 
ATOM     22  C   UNL     1       2.617  -4.110  -0.312  0.00  0.00    +0.008 A 
ATOM     23  C   UNL     1       1.295  -2.076  -0.022  0.00  0.00    +0.017 A 
ATOM     24  C   UNL     1       1.244  -0.691   0.117  0.00  0.00    -0.017 A 
ATOM     25  C   UNL     1       0.013  -0.018   0.269  0.00  0.00    +0.008 A 
ATOM     26  C   UNL     1      -0.001   1.333   0.403  0.00  0.00    +0.001 A 
ATOM     27  C   UNL     1       1.176   2.083   0.395  0.00  0.00    +0.001 A 
ATOM     28  C   UNL     1       2.393   1.499   0.253  0.00  0.00    +0.009 A 
ATOM     29  C   UNL     1       2.481   0.098   0.110  0.00  0.00    -0.011 A 
ATOM     30  C   UNL     1       3.715  -0.534  -0.037  0.00  0.00    +0.006 A 
ENDBRANCH   1  30
TORSDOF 1
