REMARK  Name = ZINC40646424
REMARK  7 active torsions:
REMARK  status: ('A' for Active; 'I' for Inactive)
REMARK    1  A    between atoms: C_4  and  N_7
REMARK    2  A    between atoms: N_7  and  C_8
REMARK    3  A    between atoms: N_7  and  N_14
REMARK    4  A    between atoms: C_16  and  N_35
REMARK    5  A    between atoms: C_17  and  N_21
REMARK    6  A    between atoms: N_21  and  N_22
REMARK    7  A    between atoms: C_23  and  C_25
REMARK                            x       y       z     vdW  Elec       q    Type
REMARK                         _______ _______ _______ _____ _____    ______ ____
ROOT
ATOM      1  N   UNL     1       4.583   0.097  -0.259  0.00  0.00    -0.242 N 
ATOM      2  C   UNL     1       5.292   0.892   0.629  0.00  0.00    +0.171 A 
ATOM      3  C   UNL     1       6.435   1.568   0.213  0.00  0.00    +0.208 A 
ATOM      4  C   UNL     1       7.111   2.353   1.142  0.00  0.00    +0.171 A 
ATOM      5  N   UNL     1       6.643   2.429   2.386  0.00  0.00    -0.217 NA
ATOM      6  C   UNL     1       5.557   1.773   2.741  0.00  0.00    +0.225 A 
ATOM      7  N   UNL     1       4.886   1.024   1.890  0.00  0.00    -0.217 NA
ATOM      8  H   UNL     1       4.885   0.006  -1.176  0.00  0.00    +0.172 HD
ENDROOT
BRANCH   3   9
ATOM      9  N   UNL     1       6.919   1.454  -1.181  0.00  0.00    +0.063 N 
ATOM     10  O   UNL     1       6.531   2.232  -2.021  0.00  0.00    -0.126 OA
ATOM     11  O   UNL     1       7.703   0.584  -1.480  0.00  0.00    -0.126 OA
ENDBRANCH   3   9
BRANCH   4  12
ATOM     12  N   UNL     1       8.255   3.046   0.777  0.00  0.00    -0.246 N 
ATOM     13  H   UNL     1       8.590   2.985  -0.131  0.00  0.00    +0.172 HD
BRANCH  12  14
ATOM     14  N   UNL     1       8.927   3.833   1.720  0.00  0.00    -0.231 N 
ATOM     15  C   UNL     1      10.040   4.507   1.366  0.00  0.00    +0.261 C 
ATOM     16  O   UNL     1      10.459   4.431   0.227  0.00  0.00    -0.269 OA
ATOM     17  H   UNL     1       8.592   3.894   2.629  0.00  0.00    +0.173 HD
BRANCH  15  18
ATOM     18  C   UNL     1      10.747   5.336   2.359  0.00  0.00    +0.046 A 
ATOM     19  C   UNL     1      10.349   5.332   3.688  0.00  0.00    +0.014 A 
ATOM     20  C   UNL     1      11.012   6.111   4.628  0.00  0.00    +0.001 A 
ATOM     21  C   UNL     1      12.067   6.898   4.275  0.00  0.00    +0.008 A 
ATOM     22  C   UNL     1      12.505   6.933   2.940  0.00  0.00    -0.017 A 
ATOM     23  C   UNL     1      11.846   6.141   1.968  0.00  0.00    -0.006 A 
ATOM     24  C   UNL     1      12.288   6.173   0.638  0.00  0.00    +0.009 A 
ATOM     25  C   UNL     1      13.347   6.959   0.297  0.00  0.00    +0.001 A 
ATOM     26  C   UNL     1      14.001   7.733   1.253  0.00  0.00    +0.001 A 
ATOM     27  C   UNL     1      13.591   7.737   2.551  0.00  0.00    +0.008 A 
ENDBRANCH  15  18
ENDBRANCH  12  14
ENDBRANCH   4  12
BRANCH   1  28
ATOM     28  N   UNL     1       3.430  -0.574   0.169  0.00  0.00    -0.221 N 
BRANCH  28  32
ATOM     29  C   UNL     1      -0.114   1.534   0.748  0.00  0.00    +0.000 A 
ATOM     30  C   UNL     1       0.815   1.986  -0.171  0.00  0.00    +0.002 A 
ATOM     31  C   UNL     1       1.991   1.289  -0.365  0.00  0.00    +0.025 A 
ATOM     32  C   UNL     1       2.241   0.133   0.364  0.00  0.00    +0.053 A 
ATOM     33  C   UNL     1       1.306  -0.318   1.287  0.00  0.00    +0.025 A 
ATOM     34  C   UNL     1       0.131   0.384   1.476  0.00  0.00    +0.002 A 
ENDBRANCH  28  32
BRANCH  28  35
ATOM     35  C   UNL     1       3.469  -1.951   0.402  0.00  0.00    +0.053 A 
ATOM     36  C   UNL     1       2.480  -2.774  -0.122  0.00  0.00    +0.025 A 
ATOM     37  C   UNL     1       2.522  -4.135   0.109  0.00  0.00    +0.002 A 
ATOM     38  C   UNL     1       3.548  -4.679   0.861  0.00  0.00    +0.000 A 
ATOM     39  C   UNL     1       4.534  -3.863   1.384  0.00  0.00    +0.002 A 
ATOM     40  C   UNL     1       4.501  -2.502   1.152  0.00  0.00    +0.025 A 
ENDBRANCH  28  35
ENDBRANCH   1  28
TORSDOF 7
