REMARK  Name = ZINC52899376
REMARK  7 active torsions:
REMARK  status: ('A' for Active; 'I' for Inactive)
REMARK    1  A    between atoms: C_3  and  C_10
REMARK    2  A    between atoms: C_6  and  C_7
REMARK    3  A    between atoms: C_7  and  C_8
REMARK    4  A    between atoms: C_8  and  N_9
REMARK    5  A    between atoms: C_10  and  N_11
REMARK    6  A    between atoms: N_11  and  C_12
REMARK    7  A    between atoms: C_17  and  N_18
REMARK                            x       y       z     vdW  Elec       q    Type
REMARK                         _______ _______ _______ _____ _____    ______ ____
ROOT
ATOM      1  C   UNL     1       4.090   1.542   0.076  0.00  0.00    +0.137 C 
ENDROOT
BRANCH   1   4
ATOM      2  C   UNL     1       0.588   0.131   0.062  0.00  0.00    +0.004 A 
ATOM      3  C   UNL     1       1.641   1.025   0.018  0.00  0.00    +0.005 A 
ATOM      4  C   UNL     1       2.941   0.567   0.125  0.00  0.00    -0.030 A 
ATOM      5  C   UNL     1       3.187  -0.784   0.277  0.00  0.00    +0.005 A 
ATOM      6  C   UNL     1       2.134  -1.678   0.322  0.00  0.00    +0.004 A 
ATOM      7  C   UNL     1       0.834  -1.220   0.213  0.00  0.00    -0.049 A 
BRANCH   7   8
ATOM      8  C   UNL     1      -0.314  -2.195   0.262  0.00  0.00    +0.015 C 
BRANCH   8   9
ATOM      9  C   UNL     1      -0.638  -2.674  -1.155  0.00  0.00    -0.082 C 
BRANCH   9  10
ATOM     10  N   UNL     1      -1.757  -3.623  -1.107  0.00  0.00    +0.378 N 
ATOM     11  H   UNL     1      -1.503  -4.415  -0.535  0.00  0.00    -0.090 HD
ATOM     12  H   UNL     1      -2.567  -3.169  -0.713  0.00  0.00    -0.090 HD
ATOM     13  H   UNL     1      -1.970  -3.939  -2.042  0.00  0.00    -0.090 HD
ENDBRANCH   9  10
ENDBRANCH   8   9
ENDBRANCH   7   8
ENDBRANCH   1   4
BRANCH   1  14
ATOM     14  N   UNL     1       4.399   2.001   1.432  0.00  0.00    -0.338 N 
ATOM     15  H   UNL     1       3.885   1.670   2.185  0.00  0.00    +0.146 HD
BRANCH  14  16
ATOM     16  C   UNL     1       5.434   2.916   1.641  0.00  0.00    +0.058 A 
ATOM     17  C   UNL     1       6.249   3.298   0.583  0.00  0.00    +0.026 A 
ATOM     18  C   UNL     1       7.272   4.202   0.792  0.00  0.00    +0.017 A 
ATOM     19  C   UNL     1       7.485   4.727   2.054  0.00  0.00    +0.020 A 
ATOM     20  C   UNL     1       6.675   4.348   3.110  0.00  0.00    +0.050 A 
ATOM     21  C   UNL     1       5.647   3.449   2.905  0.00  0.00    +0.148 A 
ATOM     22 BR   UNL     1       8.887   5.965   2.337  0.00  0.00    -0.050 Br
BRANCH  21  23
ATOM     23  N   UNL     1       4.777   3.049   4.034  0.00  0.00    +0.058 N 
ATOM     24  O   UNL     1       3.595   2.872   3.852  0.00  0.00    -0.126 OA
ATOM     25  O   UNL     1       5.248   2.900   5.137  0.00  0.00    -0.126 OA
ENDBRANCH  21  23
ENDBRANCH  14  16
ENDBRANCH   1  14
TORSDOF 7
