REMARK  Name = ZINC55039389
REMARK  5 active torsions:
REMARK  status: ('A' for Active; 'I' for Inactive)
REMARK    1  A    between atoms: C_4  and  C_7
REMARK    2  A    between atoms: C_10  and  C_13
REMARK    3  A    between atoms: C_14  and  C_15
REMARK    4  A    between atoms: C_14  and  C_17
REMARK    5  A    between atoms: N_23  and  C_24
REMARK                            x       y       z     vdW  Elec       q    Type
REMARK                         _______ _______ _______ _____ _____    ______ ____
ROOT
ATOM      1  C   UNL     1       6.097  -4.842  -0.066  0.00  0.00    +0.177 A 
ATOM      2  N   UNL     1       4.942  -4.213  -0.275  0.00  0.00    -0.194 NA
ATOM      3  C   UNL     1       3.802  -4.896  -0.261  0.00  0.00    +0.217 A 
ATOM      4  N   UNL     1       3.814  -6.206  -0.037  0.00  0.00    -0.181 NA
ATOM      5  C   UNL     1       4.967  -6.835   0.172  0.00  0.00    +0.224 A 
ATOM      6  N   UNL     1       6.109  -6.155   0.153  0.00  0.00    -0.194 NA
ATOM      7  N   UNL     1       4.978  -8.197   0.405  0.00  0.00    -0.283 N 
ATOM      8  N   UNL     1       2.605  -4.244  -0.478  0.00  0.00    -0.327 N 
ATOM      9  H   UNL     1       5.807  -8.643   0.638  0.00  0.00    +0.155 HD
ATOM     10  H   UNL     1       2.587  -3.279  -0.569  0.00  0.00    +0.145 HD
ATOM     11  H   UNL     1       1.780  -4.752  -0.539  0.00  0.00    +0.145 HD
ENDROOT
BRANCH   7  12
ATOM     12  C   UNL     1       3.793  -8.933   0.304  0.00  0.00    +0.034 A 
ATOM     13  C   UNL     1       2.828  -8.575  -0.629  0.00  0.00    +0.023 A 
ATOM     14  C   UNL     1       1.660  -9.304  -0.726  0.00  0.00    +0.002 A 
ATOM     15  C   UNL     1       1.450 -10.391   0.103  0.00  0.00    +0.000 A 
ATOM     16  C   UNL     1       2.408 -10.750   1.033  0.00  0.00    +0.002 A 
ATOM     17  C   UNL     1       3.582 -10.028   1.132  0.00  0.00    +0.023 A 
ENDBRANCH   7  12
BRANCH   1  19
ATOM     18  C   UNL     1       7.346  -2.722  -0.158  0.00  0.00    +0.033 C 
ATOM     19  C   UNL     1       7.366  -4.083  -0.082  0.00  0.00    +0.097 C 
BRANCH  18  23
ATOM     20  C   UNL     1       3.821  -0.655   0.569  0.00  0.00    +0.160 A 
ATOM     21  N   UNL     1       4.122  -1.701   1.329  0.00  0.00    -0.235 NA
ATOM     22  C   UNL     1       5.232  -2.386   1.132  0.00  0.00    +0.122 A 
ATOM     23  C   UNL     1       6.100  -1.992   0.099  0.00  0.00    +0.013 A 
ATOM     24  C   UNL     1       5.742  -0.879  -0.681  0.00  0.00    +0.122 A 
ATOM     25  N   UNL     1       4.611  -0.254  -0.420  0.00  0.00    -0.235 NA
BRANCH  20  29
ATOM     26  C   UNL     1       0.212   1.462   1.314  0.00  0.00    +0.000 A 
ATOM     27  C   UNL     1       0.546   0.372   2.098  0.00  0.00    +0.001 A 
ATOM     28  C   UNL     1       1.716  -0.319   1.861  0.00  0.00    +0.011 A 
ATOM     29  C   UNL     1       2.563   0.082   0.828  0.00  0.00    +0.019 A 
ATOM     30  C   UNL     1       2.221   1.181   0.041  0.00  0.00    +0.011 A 
ATOM     31  C   UNL     1       1.048   1.865   0.288  0.00  0.00    +0.001 A 
ENDBRANCH  20  29
ENDBRANCH  18  23
BRANCH  19  32
ATOM     32  C   UNL     1       8.616  -4.778  -0.018  0.00  0.00    +0.103 C 
ATOM     33  N   UNL     1       9.608  -5.330   0.032  0.00  0.00    -0.191 NA
ENDBRANCH  19  32
ENDBRANCH   1  19
TORSDOF 5
