REMARK  Name = ZINC16570349
REMARK  14 active torsions:
REMARK  status: ('A' for Active; 'I' for Inactive)
REMARK    1  A    between atoms: C_1  and  C_2
REMARK    2  A    between atoms: C_2  and  N_72
REMARK    3  A    between atoms: C_3  and  C_4
REMARK    4  A    between atoms: C_3  and  N_72
REMARK    5  A    between atoms: C_5  and  C_6
REMARK    6  A    between atoms: C_5  and  N_72
REMARK    7  A    between atoms: C_6  and  C_7
REMARK    8  A    between atoms: C_7  and  C_8
REMARK    9  A    between atoms: C_8  and  C_10
REMARK   10  A    between atoms: C_8  and  N_11
REMARK   11  A    between atoms: C_12  and  C_14
REMARK   12  A    between atoms: C_17  and  C_20
REMARK   13  A    between atoms: C_20  and  S_21
REMARK   14  A    between atoms: S_21  and  C_22
REMARK                            x       y       z     vdW  Elec       q    Type
REMARK                         _______ _______ _______ _____ _____    ______ ____
ROOT
ATOM      1  C   UNL     1       0.857  -2.537   3.286  0.00  0.00    +0.037 A 
ATOM      2  C   UNL     1      -0.188  -3.224   2.665  0.00  0.00    +0.013 A 
ATOM      3  C   UNL     1      -0.233  -4.601   2.721  0.00  0.00    +0.005 A 
ATOM      4  C   UNL     1       0.749  -5.301   3.400  0.00  0.00    -0.037 A 
ATOM      5  C   UNL     1       1.784  -4.626   4.022  0.00  0.00    +0.005 A 
ATOM      6  C   UNL     1       1.844  -3.249   3.969  0.00  0.00    +0.013 A 
ENDROOT
BRANCH   1   8
ATOM      7  N   UNL     1      -0.040  -0.376   2.565  0.00  0.00    -0.309 N 
ATOM      8  C   UNL     1       0.915  -1.061   3.225  0.00  0.00    +0.244 C 
ATOM      9  O   UNL     1       1.823  -0.465   3.771  0.00  0.00    -0.270 OA
ATOM     10  H   UNL     1      -0.765  -0.851   2.130  0.00  0.00    +0.149 HD
BRANCH   7  11
ATOM     11  C   UNL     1       0.017   1.087   2.505  0.00  0.00    +0.070 C 
ATOM     12  C   UNL     1      -0.634   1.675   3.758  0.00  0.00    +0.028 C 
BRANCH  11  13
ATOM     13  C   UNL     1      -0.732   1.576   1.264  0.00  0.00    +0.020 C 
BRANCH  13  14
ATOM     14  C   UNL     1      -0.008   1.091   0.006  0.00  0.00    -0.017 C 
BRANCH  14  15
ATOM     15  C   UNL     1      -0.757   1.580  -1.235  0.00  0.00    -0.079 C 
BRANCH  15  16
ATOM     16  N   UNL     1       0.031   1.225  -2.434  0.00  0.00    +0.379 N 
ATOM     17  H   UNL     1       1.023   1.412  -2.248  0.00  0.00    -0.082 HD
BRANCH  16  19
ATOM     18  C   UNL     1       0.854  -0.599  -3.841  0.00  0.00    -0.017 C 
ATOM     19  C   UNL     1      -0.137  -0.211  -2.742  0.00  0.00    -0.082 C 
ENDBRANCH  16  19
BRANCH  16  20
ATOM     20  C   UNL     1      -0.406   2.043  -3.585  0.00  0.00    -0.082 C 
ATOM     21  C   UNL     1       0.190   3.445  -3.444  0.00  0.00    -0.017 C 
ENDBRANCH  16  20
ENDBRANCH  15  16
ENDBRANCH  14  15
ENDBRANCH  13  14
ENDBRANCH  11  13
ENDBRANCH   7  11
ENDBRANCH   1   8
BRANCH   4  22
ATOM     22  C   UNL     1       0.691  -6.806   3.461  0.00  0.00    +0.112 C 
BRANCH  22  23
ATOM     23  S   UNL     1      -0.255  -7.314   4.918  0.00  0.00    -0.081 S 
BRANCH  23  24
ATOM     24  C   UNL     1      -0.166  -9.065   4.746  0.00  0.00    +0.192 A 
ATOM     25  N   UNL     1      -0.757  -9.835   5.649  0.00  0.00    -0.207 NA
ATOM     26  C   UNL     1      -0.708 -11.159   5.547  0.00  0.00    +0.127 A 
ATOM     27  C   UNL     1      -0.024 -11.732   4.473  0.00  0.00    +0.083 A 
ATOM     28  C   UNL     1       0.580 -10.893   3.553  0.00  0.00    +0.135 A 
ATOM     29  N   UNL     1       0.487  -9.581   3.714  0.00  0.00    -0.210 NA
ATOM     30 CL   UNL     1       1.443 -11.553   2.199  0.00  0.00    -0.062 Cl
ATOM     31  N   UNL     1      -1.328 -11.960   6.492  0.00  0.00    -0.315 N 
ATOM     32  C   UNL     1      -2.281 -12.881   5.859  0.00  0.00    +0.106 C 
ATOM     33  C   UNL     1      -2.836 -13.844   6.910  0.00  0.00    +0.019 C 
ATOM     34  C   UNL     1      -3.530 -13.042   8.014  0.00  0.00    +0.003 C 
ATOM     35  C   UNL     1      -2.530 -12.057   8.625  0.00  0.00    +0.019 C 
ATOM     36  C   UNL     1      -1.983 -11.145   7.524  0.00  0.00    +0.106 C 
ENDBRANCH  23  24
ENDBRANCH  22  23
ENDBRANCH   4  22
TORSDOF 11
