REMARK  Name = ZINC16460087
REMARK  15 active torsions:
REMARK  status: ('A' for Active; 'I' for Inactive)
REMARK    1  A    between atoms: C_1  and  C_2
REMARK    2  A    between atoms: C_8  and  C_9
REMARK    3  A    between atoms: C_8  and  N_76
REMARK    4  A    between atoms: C_9  and  C_10
REMARK    5  A    between atoms: C_10  and  N_11
REMARK    6  A    between atoms: C_12  and  C_14
REMARK    7  A    between atoms: C_17  and  C_19
REMARK    8  A    between atoms: C_19  and  N_20
REMARK    9  A    between atoms: N_20  and  C_21
REMARK   10  A    between atoms: C_21  and  C_22
REMARK   11  A    between atoms: C_21  and  C_23
REMARK   12  A    between atoms: N_26  and  C_27
REMARK   13  A    between atoms: C_30  and  C_33
REMARK   14  A    between atoms: C_33  and  C_34
REMARK   15  A    between atoms: C_33  and  C_35
REMARK                            x       y       z     vdW  Elec       q    Type
REMARK                         _______ _______ _______ _____ _____    ______ ____
ROOT
ATOM      1  C   UNL     1      -0.612   2.190   9.158  0.00  0.00    +0.133 A 
ATOM      2  C   UNL     1      -0.816   2.231  10.514  0.00  0.00    +0.080 A 
ATOM      3  S   UNL     1       0.301   1.024  11.068  0.00  0.00    -0.078 S 
ATOM      4  C   UNL     1       0.952   0.563   9.528  0.00  0.00    +0.096 A 
ATOM      5  N   UNL     1       0.297   1.331   8.697  0.00  0.00    -0.238 NA
ENDROOT
BRANCH   1   7
ATOM      6  N   UNL     1      -1.141   3.011   6.919  0.00  0.00    -0.310 N 
ATOM      7  C   UNL     1      -1.365   3.068   8.246  0.00  0.00    +0.263 C 
ATOM      8  O   UNL     1      -2.189   3.844   8.692  0.00  0.00    -0.269 OA
ATOM      9  H   UNL     1      -0.484   2.393   6.564  0.00  0.00    +0.149 HD
BRANCH   6  10
ATOM     10  C   UNL     1      -1.891   3.885   6.012  0.00  0.00    +0.103 C 
BRANCH  10  11
ATOM     11  C   UNL     1      -1.449   3.622   4.571  0.00  0.00    +0.000 C 
BRANCH  11  12
ATOM     12  C   UNL     1      -2.231   4.534   3.623  0.00  0.00    -0.077 C 
BRANCH  12  19
ATOM     13  C   UNL     1      -3.876   5.358   1.494  0.00  0.00    -0.013 C 
ATOM     14  C   UNL     1      -2.357   5.294   1.328  0.00  0.00    -0.072 C 
ATOM     15  C   UNL     1      -2.017   4.920  -0.116  0.00  0.00    -0.016 C 
ATOM     16  C   UNL     1      -0.496   4.838  -0.273  0.00  0.00    -0.003 C 
ATOM     17  C   UNL     1       0.057   3.812   0.721  0.00  0.00    -0.019 C 
ATOM     18  C   UNL     1      -0.342   4.218   2.142  0.00  0.00    -0.078 C 
ATOM     19  N   UNL     1      -1.818   4.255   2.232  0.00  0.00    +0.381 N 
ATOM     20  H   UNL     1      -2.192   3.342   1.950  0.00  0.00    -0.081 HD
ENDBRANCH  12  19
ENDBRANCH  11  12
ENDBRANCH  10  11
ENDBRANCH   6  10
ENDBRANCH   1   7
BRANCH   4  21
ATOM     21  C   UNL     1       2.009  -0.467   9.225  0.00  0.00    +0.172 C 
BRANCH  21  22
ATOM     22  N   UNL     1       3.330   0.166   9.249  0.00  0.00    -0.277 N 
ATOM     23  C   UNL     1       3.843   0.697   8.122  0.00  0.00    +0.307 C 
ATOM     24  O   UNL     1       4.987   1.111   8.111  0.00  0.00    -0.252 OA
ATOM     25  N   UNL     1       3.090   0.769   7.007  0.00  0.00    -0.269 N 
ATOM     26  H   UNL     1       2.145   0.555   7.045  0.00  0.00    +0.156 HD
BRANCH  25  27
ATOM     27  C   UNL     1       3.672   1.153   5.793  0.00  0.00    +0.035 A 
ATOM     28  C   UNL     1       4.695   2.092   5.778  0.00  0.00    +0.023 A 
ATOM     29  C   UNL     1       5.270   2.465   4.579  0.00  0.00    +0.006 A 
ATOM     30  C   UNL     1       4.821   1.912   3.393  0.00  0.00    -0.045 A 
ATOM     31  C   UNL     1       3.799   0.980   3.405  0.00  0.00    +0.006 A 
ATOM     32  C   UNL     1       3.223   0.599   4.601  0.00  0.00    +0.023 A 
BRANCH  30  33
ATOM     33  C   UNL     1       5.447   2.325   2.086  0.00  0.00    +0.013 C 
ATOM     34  C   UNL     1       5.263   3.830   1.886  0.00  0.00    +0.012 C 
ATOM     35  C   UNL     1       6.940   1.992   2.109  0.00  0.00    +0.012 C 
ENDBRANCH  30  33
ENDBRANCH  25  27
BRANCH  22  36
ATOM     36  C   UNL     1       4.092   0.222  10.499  0.00  0.00    +0.072 C 
ATOM     37  C   UNL     1       3.336   1.075  11.520  0.00  0.00    +0.028 C 
ATOM     38  C   UNL     1       4.272  -1.193  11.050  0.00  0.00    +0.028 C 
ENDBRANCH  22  36
ENDBRANCH  21  22
ENDBRANCH   4  21
TORSDOF 10
