REMARK  Name = ZINC23125627
REMARK  7 active torsions:
REMARK  status: ('A' for Active; 'I' for Inactive)
REMARK    1  A    between atoms: C_1  and  C_2
REMARK    2  A    between atoms: N_14  and  C_17
REMARK    3  A    between atoms: C_17  and  C_18
REMARK    4  A    between atoms: C_18  and  C_19
REMARK    5  A    between atoms: N_24  and  C_27
REMARK    6  A    between atoms: C_29  and  C_34
REMARK    7  A    between atoms: C_32  and  C_33
REMARK                            x       y       z     vdW  Elec       q    Type
REMARK                         _______ _______ _______ _____ _____    ______ ____
ROOT
ATOM      1  C   UNL     1       2.428   1.009  -0.015  0.00  0.00    +0.135 C 
ENDROOT
BRANCH   1  15
ATOM      2  C   UNL     1      -6.021   4.823   0.082  0.00  0.00    +0.044 C 
ATOM      3  C   UNL     1      -4.522   4.973   0.068  0.00  0.00    -0.050 A 
ATOM      4  C   UNL     1      -3.956   6.240   0.068  0.00  0.00    +0.005 A 
ATOM      5  C   UNL     1      -2.588   6.397   0.056  0.00  0.00    +0.026 A 
ATOM      6  C   UNL     1      -1.760   5.277   0.044  0.00  0.00    +0.049 A 
ATOM      7  C   UNL     1      -2.340   3.996   0.044  0.00  0.00    +0.026 A 
ATOM      8  C   UNL     1      -3.729   3.860   0.057  0.00  0.00    +0.015 A 
ATOM      9  C   UNL     1      -1.228   3.036   0.029  0.00  0.00    +0.103 A 
ATOM     10  C   UNL     1      -0.057   3.788   0.021  0.00  0.00    +0.131 A 
ATOM     11  N   UNL     1      -0.390   5.129   0.031  0.00  0.00    -0.349 N 
ATOM     12  H   UNL     1       0.259   6.017   0.029  0.00  0.00    +0.166 HD
ATOM     13  C   UNL     1       1.180   3.101   0.006  0.00  0.00    +0.278 A 
ATOM     14  O   UNL     1       2.234   3.714  -0.000  0.00  0.00    -0.265 OA
ATOM     15  N   UNL     1       1.165   1.751   0.000  0.00  0.00    -0.297 N 
ATOM     16  C   UNL     1      -0.013   1.076   0.008  0.00  0.00    +0.202 A 
ATOM     17  N   UNL     1      -1.160   1.693   0.017  0.00  0.00    -0.235 NA
ENDBRANCH   1  15
BRANCH   1  18
ATOM     18  C   UNL     1       2.854   0.758  -1.463  0.00  0.00    +0.117 C 
BRANCH  18  19
ATOM     19  C   UNL     1       4.154  -0.004  -1.479  0.00  0.00    +0.217 C 
ATOM     20  O   UNL     1       4.687  -0.317  -0.435  0.00  0.00    -0.276 OA
ATOM     21  N   UNL     1       4.724  -0.340  -2.653  0.00  0.00    -0.298 N 
ATOM     22  C   UNL     1       4.092   0.024  -3.930  0.00  0.00    +0.126 C 
ATOM     23  C   UNL     1       5.142   0.727  -4.805  0.00  0.00    +0.124 C 
ATOM     24  N   UNL     1       6.329  -0.131  -4.922  0.00  0.00    -0.327 N 
ATOM     25  C   UNL     1       6.965  -0.342  -3.615  0.00  0.00    +0.124 C 
ATOM     26  C   UNL     1       5.992  -1.084  -2.692  0.00  0.00    +0.126 C 
BRANCH  24  27
ATOM     27  C   UNL     1       7.238   0.396  -5.842  0.00  0.00    +0.033 A 
ATOM     28  C   UNL     1       7.852   1.617  -5.594  0.00  0.00    +0.026 A 
ATOM     29  C   UNL     1       8.751   2.134  -6.505  0.00  0.00    -0.049 A 
ATOM     30  C   UNL     1       9.041   1.438  -7.664  0.00  0.00    +0.004 A 
ATOM     31  C   UNL     1       8.432   0.222  -7.915  0.00  0.00    +0.005 A 
ATOM     32  C   UNL     1       7.535  -0.304  -7.005  0.00  0.00    -0.029 A 
ATOM     33  C   UNL     1       6.876  -1.631  -7.276  0.00  0.00    +0.045 C 
ATOM     34  C   UNL     1       9.418   3.458  -6.236  0.00  0.00    +0.044 C 
ENDBRANCH  24  27
ENDBRANCH  18  19
ENDBRANCH   1  18
TORSDOF 4
