REMARK  Name = ZINC38733157
REMARK  9 active torsions:
REMARK  status: ('A' for Active; 'I' for Inactive)
REMARK    1  A    between atoms: C_1  and  C_2
REMARK    2  A    between atoms: C_2  and  C_3
REMARK    3  A    between atoms: C_2  and  C_10
REMARK    4  A    between atoms: C_2  and  N_14
REMARK    5  A    between atoms: C_3  and  C_4
REMARK    6  A    between atoms: C_10  and  O_12
REMARK    7  A    between atoms: O_12  and  C_13
REMARK    8  A    between atoms: C_15  and  C_17
REMARK    9  A    between atoms: C_23  and  C_25
REMARK                            x       y       z     vdW  Elec       q    Type
REMARK                         _______ _______ _______ _____ _____    ______ ____
ROOT
ATOM      1  C   UNL     1       0.925  -0.647  -3.636  0.00  0.00    +0.091 C 
ATOM      2  C   UNL     1       2.319  -0.019  -3.703  0.00  0.00    +0.040 C 
ATOM      3  C   UNL     1       2.212   1.445  -4.013  0.00  0.00    -0.030 C 
ATOM      4  C   UNL     1       1.154   2.007  -4.503  0.00  0.00    -0.030 C 
ATOM      5  C   UNL     1      -0.117   1.275  -4.819  0.00  0.00    +0.040 C 
ATOM      6  C   UNL     1       0.142  -0.235  -4.890  0.00  0.00    +0.091 C 
ENDROOT
BRANCH   6   7
ATOM      7  C   UNL     1      -1.167  -0.980  -4.938  0.00  0.00    +0.220 C 
ATOM      8  O   UNL     1      -2.173  -0.467  -4.495  0.00  0.00    -0.275 OA
ATOM      9  N   UNL     1      -1.219  -2.216  -5.472  0.00  0.00    -0.298 N 
ATOM     10  C   UNL     1       0.010  -2.899  -5.900  0.00  0.00    +0.126 C 
ATOM     11  C   UNL     1       0.087  -4.258  -5.192  0.00  0.00    +0.125 C 
ATOM     12  N   UNL     1      -1.200  -4.947  -5.356  0.00  0.00    -0.314 N 
ATOM     13  C   UNL     1      -2.429  -4.264  -4.928  0.00  0.00    +0.125 C 
ATOM     14  C   UNL     1      -2.506  -2.908  -5.631  0.00  0.00    +0.126 C 
ATOM     15  C   UNL     1      -1.255  -6.222  -5.907  0.00  0.00    +0.099 A 
ATOM     16  C   UNL     1      -0.098  -6.803  -6.418  0.00  0.00    +0.042 A 
ATOM     17  C   UNL     1      -0.166  -8.072  -6.963  0.00  0.00    +0.005 A 
ATOM     18  C   UNL     1      -1.394  -8.721  -6.979  0.00  0.00    +0.018 A 
ATOM     19  C   UNL     1      -2.502  -8.085  -6.455  0.00  0.00    +0.084 A 
ATOM     20  N   UNL     1      -2.406  -6.876  -5.936  0.00  0.00    -0.350 N 
ATOM     21  H   UNL     1      -3.199  -6.454  -5.571  0.00  0.00    +0.166 HD
ENDBRANCH   6   7
BRANCH   1  23
ATOM     22  N   UNL     1      -0.788  -0.890  -1.868  0.00  0.00    -0.300 N 
ATOM     23  C   UNL     1       0.206  -0.156  -2.406  0.00  0.00    +0.218 C 
ATOM     24  O   UNL     1       0.522   0.900  -1.901  0.00  0.00    -0.275 OA
ATOM     25  H   UNL     1      -1.040  -1.735  -2.273  0.00  0.00    +0.150 HD
BRANCH  22  27
ATOM     26  C   UNL     1      -0.485  -0.251   0.473  0.00  0.00    +0.044 C 
ATOM     27  C   UNL     1      -1.487  -0.413  -0.673  0.00  0.00    +0.133 C 
BRANCH  27  28
ATOM     28  C   UNL     1      -2.134   0.916  -0.966  0.00  0.00    +0.331 C 
ATOM     29  O   UNL     1      -2.198   1.760  -0.104  0.00  0.00    -0.248 OA
BRANCH  28  30
ATOM     30  O   UNL     1      -2.639   1.162  -2.185  0.00  0.00    -0.466 OA
ATOM     31  C   UNL     1      -3.237   2.443  -2.393  0.00  0.00    +0.280 C 
ENDBRANCH  28  30
ENDBRANCH  27  28
BRANCH  27  32
ATOM     32  C   UNL     1      -2.561  -1.426  -0.271  0.00  0.00    +0.072 C 
BRANCH  32  33
ATOM     33  C   UNL     1      -3.280  -0.935   0.959  0.00  0.00    -0.045 A 
ATOM     34  C   UNL     1      -2.811  -1.274   2.215  0.00  0.00    +0.004 A 
ATOM     35  C   UNL     1      -3.471  -0.823   3.343  0.00  0.00    +0.000 A 
ATOM     36  C   UNL     1      -4.598  -0.034   3.216  0.00  0.00    +0.000 A 
ATOM     37  C   UNL     1      -5.066   0.306   1.960  0.00  0.00    +0.000 A 
ATOM     38  C   UNL     1      -4.404  -0.141   0.832  0.00  0.00    +0.004 A 
ENDBRANCH  32  33
ENDBRANCH  27  32
ENDBRANCH  22  27
ENDBRANCH   1  23
TORSDOF 7
