REMARK  Name = ZINC39934686
REMARK  11 active torsions:
REMARK  status: ('A' for Active; 'I' for Inactive)
REMARK    1  A    between atoms: C_1  and  C_2
REMARK    2  A    between atoms: C_2  and  O_3
REMARK    3  A    between atoms: O_3  and  C_4
REMARK    4  A    between atoms: C_6  and  C_17
REMARK    5  A    between atoms: C_9  and  O_10
REMARK    6  A    between atoms: O_10  and  C_11
REMARK    7  A    between atoms: C_11  and  C_12
REMARK    8  A    between atoms: C_12  and  O_14
REMARK    9  A    between atoms: O_14  and  C_15
REMARK   10  A    between atoms: C_18  and  C_19
REMARK   11  A    between atoms: C_18  and  C_21
REMARK                            x       y       z     vdW  Elec       q    Type
REMARK                         _______ _______ _______ _____ _____    ______ ____
ROOT
ATOM      1  C   UNL     1       0.616  -2.069   1.751  0.00  0.00    +0.164 A 
ATOM      2  C   UNL     1       0.229  -2.788   0.637  0.00  0.00    +0.057 A 
ATOM      3  C   UNL     1       0.213  -4.187   0.682  0.00  0.00    -0.019 A 
ATOM      4  C   UNL     1       0.588  -4.850   1.855  0.00  0.00    +0.027 A 
ATOM      5  C   UNL     1       0.973  -4.125   2.963  0.00  0.00    +0.064 A 
ATOM      6  C   UNL     1       0.994  -2.736   2.915  0.00  0.00    +0.177 A 
ATOM      7 BR   UNL     1       1.481  -5.022   4.548  0.00  0.00    -0.046 Br
ENDROOT
BRANCH   3   8
ATOM      8  C   UNL     1      -0.199  -4.957  -0.501  0.00  0.00    +0.026 C 
ATOM      9  C   UNL     1       0.423  -6.117  -0.801  0.00  0.00    +0.072 C 
BRANCH   9  10
ATOM     10  C   UNL     1      -0.102  -6.989  -1.913  0.00  0.00    +0.216 C 
ATOM     11  N   UNL     1      -0.401  -8.332  -1.401  0.00  0.00    -0.359 N 
ATOM     12  C   UNL     1       0.351  -9.173  -2.051  0.00  0.00    +0.060 A 
ATOM     13  C   UNL     1       0.502 -10.634  -1.987  0.00  0.00    +0.027 A 
ATOM     14  C   UNL     1       1.382 -11.248  -2.803  0.00  0.00    +0.002 A 
ATOM     15  C   UNL     1       2.176 -10.546  -3.727  0.00  0.00    +0.002 A 
ATOM     16  C   UNL     1       2.116  -9.206  -3.867  0.00  0.00    +0.027 A 
ATOM     17  C   UNL     1       1.191  -8.430  -3.030  0.00  0.00    +0.060 A 
ATOM     18  N   UNL     1       0.926  -7.159  -2.947  0.00  0.00    -0.359 N 
ATOM     19  H   UNL     1      -1.041  -8.553  -0.707  0.00  0.00    +0.162 HD
ATOM     20  H   UNL     1       1.333  -6.453  -3.474  0.00  0.00    +0.162 HD
ENDBRANCH   9  10
BRANCH   9  21
ATOM     21  C   UNL     1       1.582  -6.520  -0.062  0.00  0.00    +0.099 C 
ATOM     22  N   UNL     1       2.501  -6.840   0.525  0.00  0.00    -0.191 NA
ENDBRANCH   9  21
ENDBRANCH   3   8
BRANCH   1  23
ATOM     23  O   UNL     1       0.632  -0.710   1.711  0.00  0.00    -0.489 OA
BRANCH  23  25
ATOM     24  C   UNL     1       0.315   1.429   0.631  0.00  0.00    +0.048 C 
ATOM     25  C   UNL     1       0.232  -0.092   0.486  0.00  0.00    +0.226 C 
ENDBRANCH  23  25
ENDBRANCH   1  23
BRANCH   6  26
ATOM     26  O   UNL     1       1.379  -2.027   4.008  0.00  0.00    -0.476 OA
BRANCH  26  27
ATOM     27  C   UNL     1       0.357  -1.661   4.937  0.00  0.00    +0.349 C 
BRANCH  27  28
ATOM     28  C   UNL     1       0.968  -0.885   6.075  0.00  0.00    +0.345 C 
ATOM     29  O   UNL     1       2.156  -0.667   6.090  0.00  0.00    -0.247 OA
BRANCH  28  30
ATOM     30  O   UNL     1       0.192  -0.435   7.074  0.00  0.00    -0.466 OA
ATOM     31  C   UNL     1       0.838   0.293   8.120  0.00  0.00    +0.280 C 
ENDBRANCH  28  30
ENDBRANCH  27  28
ENDBRANCH  26  27
ENDBRANCH   6  26
TORSDOF 9
