REMARK  Name = ZINC05885349
REMARK  8 active torsions:
REMARK  status: ('A' for Active; 'I' for Inactive)
REMARK    1  A    between atoms: C_4  and  C_7
REMARK    2  A    between atoms: N_17  and  N_18
REMARK    3  A    between atoms: N_18  and  C_19
REMARK    4  A    between atoms: C_19  and  C_20
REMARK    5  A    between atoms: C_20  and  O_32
REMARK    6  A    between atoms: C_21  and  O_31
REMARK    7  A    between atoms: C_23  and  O_30
REMARK    8  A    between atoms: C_25  and  O_29
REMARK                            x       y       z     vdW  Elec       q    Type
REMARK                         _______ _______ _______ _____ _____    ______ ____
ROOT
ATOM      1  C   UNL     1       1.607   2.483   0.895  0.00  0.00    +0.161 A 
ATOM      2  N   UNL     1       2.837   2.909   1.031  0.00  0.00    -0.227 NA
ATOM      3  C   UNL     1       3.817   2.520   0.192  0.00  0.00    +0.079 A 
ATOM      4  C   UNL     1       5.130   2.978   0.339  0.00  0.00    +0.028 A 
ATOM      5  C   UNL     1       6.096   2.560  -0.532  0.00  0.00    +0.002 A 
ATOM      6  C   UNL     1       5.796   1.684  -1.567  0.00  0.00    +0.001 A 
ATOM      7  C   UNL     1       4.511   1.215  -1.738  0.00  0.00    +0.015 A 
ATOM      8  C   UNL     1       3.510   1.628  -0.861  0.00  0.00    +0.066 A 
ATOM      9  C   UNL     1       2.123   1.158  -0.990  0.00  0.00    +0.279 A 
ATOM     10  O   UNL     1       1.797   0.386  -1.873  0.00  0.00    -0.265 OA
ATOM     11  N   UNL     1       1.221   1.620  -0.093  0.00  0.00    -0.211 N 
ENDROOT
BRANCH   1  15
ATOM     12  C   UNL     1      -1.321   3.840   3.657  0.00  0.00    +0.000 A 
ATOM     13  C   UNL     1      -1.425   2.574   3.110  0.00  0.00    +0.001 A 
ATOM     14  C   UNL     1      -0.477   2.127   2.212  0.00  0.00    +0.011 A 
ATOM     15  C   UNL     1       0.588   2.955   1.856  0.00  0.00    +0.019 A 
ATOM     16  C   UNL     1       0.690   4.230   2.416  0.00  0.00    +0.011 A 
ATOM     17  C   UNL     1      -0.267   4.667   3.308  0.00  0.00    +0.001 A 
ENDBRANCH   1  15
BRANCH  11  18
ATOM     18  N   UNL     1      -0.082   1.218  -0.172  0.00  0.00    -0.275 N 
ATOM     19  H   UNL     1      -0.146   0.215  -0.263  0.00  0.00    +0.167 HD
BRANCH  18  20
ATOM     20  C   UNL     1      -0.775   1.892  -1.278  0.00  0.00    +0.188 C 
BRANCH  20  21
ATOM     21  C   UNL     1      -2.228   1.417  -1.334  0.00  0.00    +0.214 C 
ATOM     22  C   UNL     1      -2.951   2.120  -2.486  0.00  0.00    +0.206 C 
ATOM     23  C   UNL     1      -4.420   1.686  -2.498  0.00  0.00    +0.179 C 
ATOM     24  C   UNL     1      -5.047   2.005  -1.138  0.00  0.00    +0.171 C 
ATOM     25  C   UNL     1      -4.243   1.306  -0.038  0.00  0.00    +0.197 C 
ATOM     26  O   UNL     1      -2.881   1.732  -0.102  0.00  0.00    -0.343 OA
BRANCH  24  27
ATOM     27  O   UNL     1      -5.026   3.417  -0.920  0.00  0.00    -0.387 OA
ATOM     28  H   UNL     1      -5.405   3.690  -0.074  0.00  0.00    +0.210 HD
ENDBRANCH  24  27
BRANCH  23  29
ATOM     29  O   UNL     1      -5.119   2.393  -3.525  0.00  0.00    -0.386 OA
ATOM     30  H   UNL     1      -6.059   2.171  -3.585  0.00  0.00    +0.210 HD
ENDBRANCH  23  29
BRANCH  22  31
ATOM     31  O   UNL     1      -2.336   1.762  -3.725  0.00  0.00    -0.384 OA
ATOM     32  H   UNL     1      -2.744   2.172  -4.500  0.00  0.00    +0.210 HD
ENDBRANCH  22  31
BRANCH  21  33
ATOM     33  O   UNL     1      -2.260   0.004  -1.544  0.00  0.00    -0.361 OA
ATOM     34  H   UNL     1      -1.820  -0.506  -0.850  0.00  0.00    +0.213 HD
ENDBRANCH  21  33
ENDBRANCH  20  21
ENDBRANCH  18  20
ENDBRANCH  11  18
TORSDOF 8
