REMARK  Name = ZINC39243227
REMARK  11 active torsions:
REMARK  status: ('A' for Active; 'I' for Inactive)
REMARK    1  A    between atoms: C_1  and  C_2
REMARK    2  A    between atoms: C_2  and  O_3
REMARK    3  A    between atoms: O_3  and  C_4
REMARK    4  A    between atoms: C_6  and  C_20
REMARK    5  A    between atoms: C_9  and  O_10
REMARK    6  A    between atoms: O_10  and  C_11
REMARK    7  A    between atoms: C_11  and  C_12
REMARK    8  A    between atoms: C_16  and  C_18
REMARK    9  A    between atoms: C_22  and  C_33
REMARK   10  A    between atoms: C_23  and  N_32
REMARK   11  A    between atoms: C_28  and  C_31
REMARK                            x       y       z     vdW  Elec       q    Type
REMARK                         _______ _______ _______ _____ _____    ______ ____
ROOT
ATOM      1  C   UNL     1       0.802  -1.825   1.306  0.00  0.00    +0.163 A 
ATOM      2  C   UNL     1       0.260  -2.673   0.352  0.00  0.00    +0.054 A 
ATOM      3  C   UNL     1       0.371  -4.043   0.502  0.00  0.00    -0.030 A 
ATOM      4  C   UNL     1       1.022  -4.571   1.602  0.00  0.00    +0.023 A 
ATOM      5  C   UNL     1       1.565  -3.730   2.557  0.00  0.00    +0.063 A 
ATOM      6  C   UNL     1       1.462  -2.356   2.409  0.00  0.00    +0.176 A 
ATOM      7 BR   UNL     1       2.453  -4.456   4.061  0.00  0.00    -0.046 Br
ENDROOT
BRANCH   3   8
ATOM      8  C   UNL     1      -0.219  -4.963  -0.535  0.00  0.00    +0.098 C 
ATOM      9  C   UNL     1      -1.229  -5.897   0.105  0.00  0.00    +0.097 C 
ATOM     10  C   UNL     1      -0.985  -7.217   0.247  0.00  0.00    +0.195 C 
ATOM     11  O   UNL     1       0.116  -7.878  -0.156  0.00  0.00    -0.448 OA
ATOM     12  C   UNL     1       1.305  -7.111  -0.360  0.00  0.00    +0.343 C 
ATOM     13  C   UNL     1       0.849  -5.853  -1.109  0.00  0.00    +0.030 C 
ATOM     14  C   UNL     1       1.557  -5.833  -2.210  0.00  0.00    +0.066 C 
ATOM     15  N   UNL     1       2.317  -6.955  -2.303  0.00  0.00    -0.155 NA
ATOM     16  N   UNL     1       2.220  -7.735  -1.319  0.00  0.00    -0.138 NA
ATOM     17  C   UNL     1       1.533  -4.724  -3.230  0.00  0.00    +0.067 C 
BRANCH  10  18
ATOM     18  N   UNL     1      -1.958  -7.960   0.865  0.00  0.00    -0.329 N 
ATOM     19  H   UNL     1      -2.771  -7.533   1.175  0.00  0.00    +0.145 HD
ATOM     20  H   UNL     1      -1.832  -8.914   0.992  0.00  0.00    +0.145 HD
ENDBRANCH  10  18
BRANCH   9  21
ATOM     21  C   UNL     1      -2.474  -5.365   0.572  0.00  0.00    +0.101 C 
ATOM     22  N   UNL     1      -3.461  -4.942   0.942  0.00  0.00    -0.191 NA
ENDBRANCH   9  21
ENDBRANCH   3   8
BRANCH   1  23
ATOM     23  O   UNL     1       0.693  -0.477   1.160  0.00  0.00    -0.489 OA
BRANCH  23  25
ATOM     24  C   UNL     1      -0.019   1.526   0.010  0.00  0.00    +0.048 C 
ATOM     25  C   UNL     1       0.002  -0.004   0.002  0.00  0.00    +0.226 C 
ENDBRANCH  23  25
ENDBRANCH   1  23
BRANCH   6  26
ATOM     26  O   UNL     1       2.000  -1.528   3.345  0.00  0.00    -0.483 OA
BRANCH  26  27
ATOM     27  C   UNL     1       1.161  -1.151   4.438  0.00  0.00    +0.264 C 
BRANCH  27  28
ATOM     28  C   UNL     1       1.922  -0.238   5.365  0.00  0.00    -0.010 A 
ATOM     29  C   UNL     1       2.658  -0.770   6.408  0.00  0.00    +0.007 A 
ATOM     30  C   UNL     1       3.356   0.067   7.258  0.00  0.00    +0.001 A 
ATOM     31  C   UNL     1       3.318   1.435   7.065  0.00  0.00    +0.003 A 
ATOM     32  C   UNL     1       2.583   1.967   6.022  0.00  0.00    -0.050 A 
ATOM     33  C   UNL     1       1.888   1.129   5.169  0.00  0.00    +0.010 A 
ATOM     34  C   UNL     1       2.542   3.458   5.813  0.00  0.00    +0.044 C 
ENDBRANCH  27  28
ENDBRANCH  26  27
ENDBRANCH   6  26
TORSDOF 8
