REMARK  Name = ZINC63270291
REMARK  7 active torsions:
REMARK  status: ('A' for Active; 'I' for Inactive)
REMARK    1  A    between atoms: C_1  and  C_2
REMARK    2  A    between atoms: C_2  and  C_4
REMARK    3  A    between atoms: C_2  and  N_14
REMARK    4  A    between atoms: C_4  and  C_5
REMARK    5  A    between atoms: C_15  and  C_17
REMARK    6  A    between atoms: C_17  and  O_18
REMARK    7  A    between atoms: O_18  and  C_19
REMARK                            x       y       z     vdW  Elec       q    Type
REMARK                         _______ _______ _______ _____ _____    ______ ____
ROOT
ATOM      1  C   UNL     1       0.712  -1.094  -3.598  0.00  0.00    +0.324 C 
ENDROOT
BRANCH   1   3
ATOM      2  N   UNL     1       0.688  -0.476  -1.203  0.00  0.00    -0.310 N 
ATOM      3  C   UNL     1       0.006  -0.608  -2.358  0.00  0.00    +0.251 C 
ATOM      4  O   UNL     1      -1.175  -0.336  -2.400  0.00  0.00    -0.272 OA
ATOM      5  H   UNL     1       1.632  -0.695  -1.170  0.00  0.00    +0.149 HD
BRANCH   2   7
ATOM      6  C   UNL     1      -0.019   1.526   0.010  0.00  0.00    +0.028 C 
ATOM      7  C   UNL     1       0.002  -0.004   0.002  0.00  0.00    +0.074 C 
BRANCH   7   8
ATOM      8  C   UNL     1       0.742  -0.511   1.242  0.00  0.00    +0.055 C 
BRANCH   8   9
ATOM      9  C   UNL     1       0.657  -2.014   1.298  0.00  0.00    -0.040 C 
ATOM     10  C   UNL     1       1.572  -2.899   0.840  0.00  0.00    -0.001 A 
ATOM     11  C   UNL     1       2.871  -2.732   0.178  0.00  0.00    +0.010 A 
ATOM     12  C   UNL     1       3.576  -3.832  -0.172  0.00  0.00    +0.001 A 
ATOM     13  C   UNL     1       3.098  -5.125   0.083  0.00  0.00    +0.002 A 
ATOM     14  C   UNL     1       1.914  -5.358   0.687  0.00  0.00    +0.026 A 
ATOM     15  C   UNL     1       1.090  -4.274   1.098  0.00  0.00    +0.043 A 
ATOM     16  N   UNL     1      -0.079  -4.242   1.691  0.00  0.00    -0.380 N 
ATOM     17  C   UNL     1      -0.467  -2.840   1.883  0.00  0.00    +0.144 C 
ATOM     18  H   UNL     1      -0.598  -5.015   1.962  0.00  0.00    +0.160 HD
ENDBRANCH   8   9
ENDBRANCH   7   8
ENDBRANCH   2   7
ENDBRANCH   1   3
BRANCH   1  19
ATOM     19  O   UNL     1      -0.216  -1.149  -4.684  0.00  0.00    -0.483 OA
BRANCH  19  20
ATOM     20  C   UNL     1       0.263  -1.571  -5.885  0.00  0.00    +0.122 A 
ATOM     21  C   UNL     1       1.600  -1.929  -6.009  0.00  0.00    +0.047 A 
ATOM     22  C   UNL     1       2.103  -2.356  -7.222  0.00  0.00    +0.027 A 
ATOM     23  C   UNL     1       1.270  -2.430  -8.326  0.00  0.00    +0.041 A 
ATOM     24  C   UNL     1      -0.085  -2.075  -8.202  0.00  0.00    +0.061 A 
ATOM     25  C   UNL     1      -0.585  -1.646  -6.976  0.00  0.00    +0.060 A 
ATOM     26  C   UNL     1      -0.943  -2.193  -9.397  0.00  0.00    +0.250 C 
ATOM     27  O   UNL     1      -2.030  -1.647  -9.427  0.00  0.00    -0.270 OA
ATOM     28  N   UNL     1      -0.523  -2.897 -10.439  0.00  0.00    -0.279 N 
ATOM     29  C   UNL     1      -1.337  -3.219 -11.616  0.00  0.00    +0.110 C 
ATOM     30  C   UNL     1      -2.490  -4.163 -11.243  0.00  0.00    +0.019 C 
ATOM     31  C   UNL     1      -1.843  -5.410 -10.532  0.00  0.00    +0.002 C 
ATOM     32  C   UNL     1      -0.443  -5.608 -11.047  0.00  0.00    +0.003 C 
ATOM     33  C   UNL     1       0.586  -4.933 -10.163  0.00  0.00    +0.042 C 
ATOM     34  C   UNL     1       0.851  -3.494 -10.524  0.00  0.00    +0.161 C 
ATOM     35  N   UNL     1       1.736  -2.840  -9.569  0.00  0.00    -0.325 N 
ATOM     36  H   UNL     1       2.665  -2.689  -9.804  0.00  0.00    +0.148 HD
ENDBRANCH  19  20
ENDBRANCH   1  19
TORSDOF 6
