REMARK  Name = ZINC37624022
REMARK  8 active torsions:
REMARK  status: ('A' for Active; 'I' for Inactive)
REMARK    1  A    between atoms: C_1  and  C_2
REMARK    2  A    between atoms: C_10  and  C_31
REMARK    3  A    between atoms: C_13  and  O_30
REMARK    4  A    between atoms: C_17  and  C_29
REMARK    5  A    between atoms: C_22  and  C_28
REMARK    6  A    between atoms: C_23  and  C_24
REMARK    7  A    between atoms: C_23  and  O_27
REMARK    8  A    between atoms: C_24  and  C_26
REMARK                            x       y       z     vdW  Elec       q    Type
REMARK                         _______ _______ _______ _____ _____    ______ ____
ROOT
ATOM      1  C   UNL     1       0.620   1.543   0.287  0.00  0.00    +0.011 C 
ATOM      2  C   UNL     1       0.407   0.038   0.124  0.00  0.00    +0.026 C 
ATOM      3  C   UNL     1      -1.108  -0.272  -0.037  0.00  0.00    +0.011 C 
ATOM      4  C   UNL     1      -1.489  -0.893   1.318  0.00  0.00    +0.002 C 
ATOM      5  C   UNL     1      -2.773  -1.707   1.312  0.00  0.00    +0.001 C 
ATOM      6  C   UNL     1      -3.888  -0.773   1.797  0.00  0.00    +0.034 C 
ATOM      7  C   UNL     1      -5.146  -1.526   2.116  0.00  0.00    -0.072 C 
ATOM      8  C   UNL     1      -5.153  -2.760   2.516  0.00  0.00    -0.062 C 
ATOM      9  C   UNL     1      -6.447  -3.455   2.897  0.00  0.00    +0.062 C 
ATOM     10  C   UNL     1      -6.295  -3.997   4.324  0.00  0.00    +0.119 C 
ATOM     11  C   UNL     1      -5.090  -4.933   4.397  0.00  0.00    +0.032 C 
ATOM     12  C   UNL     1      -3.811  -4.181   4.043  0.00  0.00    +0.014 C 
ATOM     13  C   UNL     1      -3.897  -3.576   2.642  0.00  0.00    -0.008 C 
ATOM     14  C   UNL     1      -2.617  -2.868   2.283  0.00  0.00    +0.003 C 
ATOM     15  C   UNL     1      -1.771  -2.458   3.480  0.00  0.00    +0.005 C 
ATOM     16  C   UNL     1      -0.301  -2.305   3.038  0.00  0.00    +0.010 C 
ATOM     17  C   UNL     1      -0.247  -1.741   1.639  0.00  0.00    +0.007 C 
ATOM     18  C   UNL     1       0.874  -0.708   1.401  0.00  0.00    +0.131 C 
ATOM     19  C   UNL     1      -0.035  -2.857   0.611  0.00  0.00    +0.015 C 
ATOM     20  C   UNL     1      -4.022  -4.744   1.645  0.00  0.00    +0.016 C 
ATOM     21  C   UNL     1      -6.439  -0.774   1.926  0.00  0.00    +0.039 C 
ENDROOT
BRANCH  18  22
ATOM     22  C   UNL     1       2.177  -1.416   1.159  0.00  0.00    +0.162 C 
ATOM     23  O   UNL     1       2.180  -2.548   0.738  0.00  0.00    -0.295 OA
ATOM     24  C   UNL     1       3.480  -0.713   1.441  0.00  0.00    +0.089 C 
ENDBRANCH  18  22
BRANCH  18  25
ATOM     25  O   UNL     1       0.969   0.189   2.501  0.00  0.00    -0.380 OA
ATOM     26  H   UNL     1       1.609   0.903   2.373  0.00  0.00    +0.211 HD
ENDBRANCH  18  25
BRANCH  10  27
ATOM     27  O   UNL     1      -6.114  -2.910   5.233  0.00  0.00    -0.391 OA
ATOM     28  H   UNL     1      -6.010  -3.181   6.155  0.00  0.00    +0.210 HD
ENDBRANCH  10  27
TORSDOF 3
