REMARK  Name = ZINC12482216
REMARK  8 active torsions:
REMARK  status: ('A' for Active; 'I' for Inactive)
REMARK    1  A    between atoms: C_1  and  C_2
REMARK    2  A    between atoms: C_5  and  N_9
REMARK    3  A    between atoms: C_6  and  C_8
REMARK    4  A    between atoms: N_9  and  S_10
REMARK    5  A    between atoms: S_10  and  C_13
REMARK    6  A    between atoms: C_16  and  N_19
REMARK    7  A    between atoms: C_20  and  C_21
REMARK    8  A    between atoms: C_30  and  O_31
REMARK                            x       y       z     vdW  Elec       q    Type
REMARK                         _______ _______ _______ _____ _____    ______ ____
ROOT
ATOM      1  C   UNL     1      -7.329   1.253   0.078  0.00  0.00    +0.109 A 
ATOM      2  C   UNL     1      -7.040   0.230  -0.808  0.00  0.00    +0.031 A 
ATOM      3  C   UNL     1      -5.774  -0.316  -0.847  0.00  0.00    +0.029 A 
ATOM      4  C   UNL     1      -4.782   0.166   0.011  0.00  0.00    +0.064 A 
ATOM      5  C   UNL     1      -5.083   1.196   0.906  0.00  0.00    +0.029 A 
ATOM      6  C   UNL     1      -6.351   1.736   0.930  0.00  0.00    +0.031 A 
ENDROOT
BRANCH   1   7
ATOM      7  S   UNL     1      -8.949   1.945   0.121  0.00  0.00    +0.072 S 
ATOM      8  O   UNL     1      -8.817   3.256   0.652  0.00  0.00    -0.150 OA
ATOM      9  O   UNL     1      -9.531   1.694  -1.151  0.00  0.00    -0.150 OA
BRANCH   7  10
ATOM     10  N   UNL     1      -9.825   1.073   1.223  0.00  0.00    -0.216 N 
ATOM     11  H   UNL     1     -10.621   0.597   0.942  0.00  0.00    +0.174 HD
BRANCH  10  16
ATOM     12  C   UNL     1      -8.170   0.875   6.643  0.00  0.00    +0.044 C 
ATOM     13  C   UNL     1      -8.609   0.927   5.202  0.00  0.00    -0.050 A 
ATOM     14  C   UNL     1      -8.436   2.088   4.470  0.00  0.00    +0.005 A 
ATOM     15  C   UNL     1      -8.838   2.140   3.150  0.00  0.00    +0.025 A 
ATOM     16  C   UNL     1      -9.416   1.024   2.558  0.00  0.00    +0.051 A 
ATOM     17  C   UNL     1      -9.593  -0.138   3.297  0.00  0.00    -0.028 A 
ATOM     18  C   UNL     1      -9.184  -0.185   4.616  0.00  0.00    +0.008 A 
ATOM     19  C   UNL     1     -10.226  -1.349   2.661  0.00  0.00    +0.046 C 
ENDBRANCH  10  16
ENDBRANCH   7  10
ENDBRANCH   1   7
BRANCH   4  20
ATOM     20  N   UNL     1      -3.525  -0.371  -0.023  0.00  0.00    -0.255 NA
ATOM     21  C   UNL     1      -2.480   0.413  -0.011  0.00  0.00    +0.123 C 
BRANCH  21  22
ATOM     22  C   UNL     1      -1.133  -0.162  -0.047  0.00  0.00    +0.042 A 
ATOM     23  C   UNL     1       0.049   0.701  -0.034  0.00  0.00    -0.006 A 
ATOM     24  C   UNL     1      -0.065   2.095   0.012  0.00  0.00    +0.009 A 
ATOM     25  C   UNL     1       1.062   2.863   0.022  0.00  0.00    +0.001 A 
ATOM     26  C   UNL     1       2.325   2.279  -0.013  0.00  0.00    +0.001 A 
ATOM     27  C   UNL     1       2.472   0.926  -0.058  0.00  0.00    +0.008 A 
ATOM     28  C   UNL     1       1.333   0.104  -0.069  0.00  0.00    -0.017 A 
ATOM     29  C   UNL     1       1.445  -1.298  -0.115  0.00  0.00    +0.012 A 
ATOM     30  C   UNL     1       0.338  -2.086  -0.126  0.00  0.00    +0.046 A 
ATOM     31  C   UNL     1      -0.948  -1.546  -0.093  0.00  0.00    +0.126 A 
BRANCH  31  32
ATOM     32  O   UNL     1      -2.025  -2.370  -0.106  0.00  0.00    -0.506 OA
ATOM     33  H   UNL     1      -2.348  -2.581  -0.992  0.00  0.00    +0.292 HD
ENDBRANCH  31  32
ENDBRANCH  21  22
ENDBRANCH   4  20
TORSDOF 6
