REMARK  Name = ZINC08780824
REMARK  12 active torsions:
REMARK  status: ('A' for Active; 'I' for Inactive)
REMARK    1  A    between atoms: C_1  and  C_2
REMARK    2  A    between atoms: C_2  and  C_4
REMARK    3  A    between atoms: C_2  and  N_28
REMARK    4  A    between atoms: N_6  and  N_7
REMARK    5  A    between atoms: C_8  and  C_9
REMARK    6  A    between atoms: C_12  and  O_26
REMARK    7  A    between atoms: C_13  and  O_15
REMARK    8  A    between atoms: O_15  and  C_16
REMARK    9  A    between atoms: C_16  and  C_17
REMARK   10  A    between atoms: C_20  and  N_23
REMARK   11  A    between atoms: O_26  and  C_27
REMARK   12  A    between atoms: N_28  and  C_29
REMARK                            x       y       z     vdW  Elec       q    Type
REMARK                         _______ _______ _______ _____ _____    ______ ____
ROOT
ATOM      1  N   UNL     1       1.965   0.958   3.826  0.00  0.00    -0.188 NA
ATOM      2  C   UNL     1       3.205   1.287   4.021  0.00  0.00    +0.138 C 
ENDROOT
BRANCH   2   3
ATOM      3  C   UNL     1       3.918   0.799   5.215  0.00  0.00    -0.002 A 
ATOM      4  C   UNL     1       3.259  -0.014   6.141  0.00  0.00    +0.013 A 
ATOM      5  C   UNL     1       3.930  -0.474   7.255  0.00  0.00    +0.050 A 
ATOM      6  C   UNL     1       5.255  -0.123   7.465  0.00  0.00    +0.162 A 
ATOM      7  C   UNL     1       5.917   0.692   6.549  0.00  0.00    +0.163 A 
ATOM      8  C   UNL     1       5.254   1.152   5.427  0.00  0.00    +0.059 A 
BRANCH   6   9
ATOM      9  O   UNL     1       5.910  -0.574   8.568  0.00  0.00    -0.491 OA
ATOM     10  C   UNL     1       5.171  -1.406   9.465  0.00  0.00    +0.277 C 
ENDBRANCH   6   9
BRANCH   7  11
ATOM     11  O   UNL     1       7.217   1.034   6.758  0.00  0.00    -0.484 OA
BRANCH  11  12
ATOM     12  C   UNL     1       7.833   1.872   5.779  0.00  0.00    +0.264 C 
BRANCH  12  13
ATOM     13  C   UNL     1       9.261   2.143   6.176  0.00  0.00    -0.010 A 
ATOM     14  C   UNL     1       9.564   3.240   6.960  0.00  0.00    +0.009 A 
ATOM     15  C   UNL     1      10.873   3.487   7.329  0.00  0.00    +0.033 A 
ATOM     16  C   UNL     1      11.881   2.641   6.905  0.00  0.00    +0.126 A 
ATOM     17  C   UNL     1      11.579   1.546   6.116  0.00  0.00    +0.033 A 
ATOM     18  C   UNL     1      10.269   1.298   5.752  0.00  0.00    +0.009 A 
BRANCH  16  19
ATOM     19  N   UNL     1      13.284   2.907   7.295  0.00  0.00    +0.056 N 
ATOM     20  O   UNL     1      14.172   2.162   6.922  0.00  0.00    -0.126 OA
ATOM     21  O   UNL     1      13.550   3.872   7.990  0.00  0.00    -0.126 OA
ENDBRANCH  16  19
ENDBRANCH  12  13
ENDBRANCH  11  12
ENDBRANCH   7  11
ENDBRANCH   2   3
BRANCH   1  24
ATOM     22  C   UNL     1       0.000   1.080   2.488  0.00  0.00    +0.252 C 
ATOM     23  O   UNL     1      -0.572   0.370   3.288  0.00  0.00    -0.272 OA
ATOM     24  N   UNL     1       1.288   1.422   2.691  0.00  0.00    -0.205 N 
ATOM     25  H   UNL     1       1.746   1.990   2.051  0.00  0.00    +0.177 HD
BRANCH  22  27
ATOM     26  C   UNL     1      -0.013   1.086   0.008  0.00  0.00    +0.038 C 
ATOM     27  C   UNL     1      -0.729   1.579   1.267  0.00  0.00    +0.155 C 
BRANCH  27  28
ATOM     28  N   UNL     1      -2.103   1.072   1.277  0.00  0.00    -0.333 N 
ATOM     29  H   UNL     1      -2.316   0.256   1.757  0.00  0.00    +0.147 HD
BRANCH  28  30
ATOM     30  C   UNL     1      -3.107   1.764   0.597  0.00  0.00    +0.028 A 
ATOM     31  C   UNL     1      -2.793   2.941  -0.093  0.00  0.00    +0.023 A 
ATOM     32  C   UNL     1      -3.751   3.634  -0.764  0.00  0.00    +0.010 A 
ATOM     33  C   UNL     1      -5.078   3.169  -0.771  0.00  0.00    -0.018 A 
ATOM     34  C   UNL     1      -6.088   3.865  -1.456  0.00  0.00    +0.008 A 
ATOM     35  C   UNL     1      -7.363   3.388  -1.444  0.00  0.00    +0.001 A 
ATOM     36  C   UNL     1      -7.684   2.217  -0.760  0.00  0.00    +0.001 A 
ATOM     37  C   UNL     1      -6.733   1.516  -0.085  0.00  0.00    +0.008 A 
ATOM     38  C   UNL     1      -5.405   1.978  -0.075  0.00  0.00    -0.016 A 
ATOM     39  C   UNL     1      -4.396   1.277   0.607  0.00  0.00    +0.031 A 
ENDBRANCH  28  30
ENDBRANCH  27  28
ENDBRANCH  22  27
ENDBRANCH   1  24
TORSDOF 10
