REMARK  Name = ZINC48803436
REMARK  7 active torsions:
REMARK  status: ('A' for Active; 'I' for Inactive)
REMARK    1  A    between atoms: C_1  and  C_2
REMARK    2  A    between atoms: C_2  and  C_4
REMARK    3  A    between atoms: C_2  and  N_12
REMARK    4  A    between atoms: C_13  and  C_15
REMARK    5  A    between atoms: N_17  and  C_18
REMARK    6  A    between atoms: C_21  and  C_24
REMARK    7  A    between atoms: C_24  and  C_25
REMARK                            x       y       z     vdW  Elec       q    Type
REMARK                         _______ _______ _______ _____ _____    ______ ____
ROOT
ATOM      1  C   UNL     1       0.706  -1.088  -3.588  0.00  0.00    +0.303 C 
ATOM      2  O   UNL     1       1.889  -1.353  -3.548  0.00  0.00    -0.265 OA
ATOM      3  N   UNL     1       0.024  -1.221  -4.743  0.00  0.00    -0.278 N 
ATOM      4  H   UNL     1      -0.935  -1.075  -4.760  0.00  0.00    +0.155 HD
ENDROOT
BRANCH   3   5
ATOM      5  C   UNL     1       0.698  -1.571  -5.915  0.00  0.00    +0.034 A 
ATOM      6  C   UNL     1       0.293  -1.042  -7.135  0.00  0.00    +0.023 A 
ATOM      7  C   UNL     1       0.962  -1.390  -8.292  0.00  0.00    +0.006 A 
ATOM      8  C   UNL     1       2.033  -2.264  -8.238  0.00  0.00    -0.039 A 
ATOM      9  C   UNL     1       2.438  -2.792  -7.026  0.00  0.00    +0.006 A 
ATOM     10  C   UNL     1       1.778  -2.444  -5.864  0.00  0.00    +0.023 A 
BRANCH   8  11
ATOM     11  C   UNL     1       2.760  -2.641  -9.503  0.00  0.00    +0.130 C 
BRANCH  11  12
ATOM     12  C   UNL     1       3.887  -1.670  -9.743  0.00  0.00    +0.215 C 
ATOM     13  O   UNL     1       4.081  -0.761  -8.964  0.00  0.00    -0.276 OA
ATOM     14  N   UNL     1       4.680  -1.812 -10.824  0.00  0.00    -0.329 N 
ATOM     15  H   UNL     1       4.524  -2.538 -11.447  0.00  0.00    +0.145 HD
ATOM     16  H   UNL     1       5.405  -1.187 -10.979  0.00  0.00    +0.145 HD
ENDBRANCH  11  12
ENDBRANCH   8  11
ENDBRANCH   3   5
BRANCH   1  18
ATOM     17  N   UNL     1       0.686  -0.481  -1.202  0.00  0.00    -0.301 N 
ATOM     18  C   UNL     1       0.004  -0.614  -2.357  0.00  0.00    +0.300 C 
ATOM     19  O   UNL     1      -1.179  -0.350  -2.397  0.00  0.00    -0.265 OA
ATOM     20  H   UNL     1       1.633  -0.692  -1.170  0.00  0.00    +0.150 HD
BRANCH  17  22
ATOM     21  C   UNL     1      -0.033   1.513   0.018  0.00  0.00    +0.033 C 
ATOM     22  C   UNL     1      -0.001  -0.016   0.005  0.00  0.00    +0.101 C 
BRANCH  22  23
ATOM     23  C   UNL     1       0.732  -0.513   1.224  0.00  0.00    -0.026 A 
ATOM     24  C   UNL     1       2.115  -0.514   1.246  0.00  0.00    +0.007 A 
ATOM     25  C   UNL     1       2.789  -0.970   2.363  0.00  0.00    +0.022 A 
ATOM     26  C   UNL     1       2.080  -1.426   3.460  0.00  0.00    +0.059 A 
ATOM     27  C   UNL     1       0.696  -1.425   3.438  0.00  0.00    +0.060 A 
ATOM     28  C   UNL     1       0.023  -0.963   2.321  0.00  0.00    +0.027 A 
ATOM     29 CL   UNL     1      -0.194  -1.997   4.814  0.00  0.00    -0.082 Cl
ATOM     30 CL   UNL     1       2.927  -1.999   4.863  0.00  0.00    -0.082 Cl
ENDBRANCH  22  23
ENDBRANCH  17  22
ENDBRANCH   1  18
TORSDOF 6
