REMARK  Name = ZINC39066264
REMARK  1 active torsions:
REMARK  status: ('A' for Active; 'I' for Inactive)
REMARK    1  A    between atoms: C_9  and  C_12
REMARK                            x       y       z     vdW  Elec       q    Type
REMARK                         _______ _______ _______ _____ _____    ______ ____
ROOT
ATOM      1  C   UNL     1       0.181   1.578   0.017  0.00  0.00    +0.031 C 
ATOM      2  C   UNL     1       1.603   2.049   0.092  0.00  0.00    -0.030 C 
ATOM      3  C   UNL     1       2.642   1.276   0.005  0.00  0.00    -0.028 C 
ATOM      4  C   UNL     1       2.485  -0.224  -0.169  0.00  0.00    +0.012 C 
ATOM      5  C   UNL     1       1.213  -0.431  -1.035  0.00  0.00    +0.012 C 
ATOM      6  C   UNL     1       0.110   0.048  -0.017  0.00  0.00    +0.007 C 
ATOM      7  C   UNL     1       0.563  -0.519   1.341  0.00  0.00    +0.106 C 
ATOM      8  C   UNL     1       2.080  -0.762   1.229  0.00  0.00    +0.022 C 
ENDROOT
BRANCH   7   9
ATOM      9  C   UNL     1       0.278   0.474   2.438  0.00  0.00    +0.359 C 
ATOM     10  O   UNL     1      -0.794   0.450   3.018  0.00  0.00    -0.246 OA
ATOM     11  O   UNL     1       1.119   1.302   2.744  0.00  0.00    -0.246 OA
ENDBRANCH   7   9
TORSDOF 1
