REMARK  Name = ZINC60042789
REMARK  8 active torsions:
REMARK  status: ('A' for Active; 'I' for Inactive)
REMARK    1  A    between atoms: C_1  and  C_2
REMARK    2  A    between atoms: C_5  and  C_34
REMARK    3  A    between atoms: C_6  and  C_8
REMARK    4  A    between atoms: N_17  and  C_19
REMARK    5  A    between atoms: C_19  and  C_20
REMARK    6  A    between atoms: C_20  and  C_22
REMARK    7  A    between atoms: C_20  and  O_33
REMARK    8  A    between atoms: C_22  and  N_23
REMARK                            x       y       z     vdW  Elec       q    Type
REMARK                         _______ _______ _______ _____ _____    ______ ____
ROOT
ATOM      1  C   UNL     1       0.066  -2.767   2.930  0.00  0.00    +0.100 A 
ATOM      2  C   UNL     1      -0.153  -2.121   4.233  0.00  0.00    +0.015 A 
ATOM      3  C   UNL     1      -0.319  -0.742   4.351  0.00  0.00    +0.011 A 
ATOM      4  C   UNL     1      -0.522  -0.185   5.594  0.00  0.00    +0.001 A 
ATOM      5  C   UNL     1      -0.563  -0.982   6.731  0.00  0.00    +0.001 A 
ATOM      6  C   UNL     1      -0.401  -2.347   6.638  0.00  0.00    +0.014 A 
ATOM      7  C   UNL     1      -0.195  -2.931   5.389  0.00  0.00    +0.050 A 
ATOM      8  C   UNL     1      -0.017  -4.380   5.230  0.00  0.00    +0.275 A 
ATOM      9  O   UNL     1      -0.047  -5.117   6.199  0.00  0.00    -0.266 OA
ATOM     10  N   UNL     1       0.178  -4.883   3.994  0.00  0.00    -0.226 N 
ATOM     11  N   UNL     1       0.212  -4.065   2.864  0.00  0.00    -0.167 NA
ENDROOT
BRANCH   1  17
ATOM     12  C   UNL     1      -1.886  -1.483  -1.481  0.00  0.00    +0.044 C 
ATOM     13  C   UNL     1      -0.820  -1.329  -0.427  0.00  0.00    -0.050 A 
ATOM     14  C   UNL     1       0.208  -0.421  -0.612  0.00  0.00    +0.003 A 
ATOM     15  C   UNL     1       1.190  -0.274   0.351  0.00  0.00    +0.004 A 
ATOM     16  C   UNL     1       1.149  -1.033   1.504  0.00  0.00    -0.041 A 
ATOM     17  C   UNL     1       0.116  -1.949   1.696  0.00  0.00    +0.006 A 
ATOM     18  C   UNL     1      -0.874  -2.089   0.723  0.00  0.00    +0.013 A 
ATOM     19  C   UNL     1       2.220  -0.872   2.552  0.00  0.00    +0.044 C 
ENDBRANCH   1  17
BRANCH  10  20
ATOM     20  C   UNL     1       0.357  -6.328   3.832  0.00  0.00    +0.176 C 
BRANCH  20  21
ATOM     21  C   UNL     1      -1.006  -6.989   3.614  0.00  0.00    +0.120 C 
BRANCH  21  22
ATOM     22  O   UNL     1      -1.563  -6.536   2.378  0.00  0.00    -0.392 OA
ATOM     23  H   UNL     1      -1.020  -6.739   1.605  0.00  0.00    +0.210 HD
ENDBRANCH  21  22
BRANCH  21  24
ATOM     24  C   UNL     1      -0.835  -8.508   3.570  0.00  0.00    -0.045 C 
BRANCH  24  25
ATOM     25  N   UNL     1      -2.143  -9.143   3.365  0.00  0.00    +0.384 N 
ATOM     26  C   UNL     1      -2.990  -8.918   4.546  0.00  0.00    -0.074 C 
ATOM     27  C   UNL     1      -4.427  -9.309   4.198  0.00  0.00    +0.017 C 
ATOM     28  C   UNL     1      -4.448 -10.690   3.593  0.00  0.00    -0.048 A 
ATOM     29  C   UNL     1      -5.654 -11.368   3.526  0.00  0.00    +0.004 A 
ATOM     30  C   UNL     1      -5.713 -12.633   2.976  0.00  0.00    +0.000 A 
ATOM     31  C   UNL     1      -4.562 -13.225   2.490  0.00  0.00    +0.000 A 
ATOM     32  C   UNL     1      -3.360 -12.551   2.558  0.00  0.00    +0.002 A 
ATOM     33  C   UNL     1      -3.299 -11.280   3.111  0.00  0.00    -0.061 A 
ATOM     34  C   UNL     1      -1.965 -10.585   3.173  0.00  0.00    -0.043 C 
ATOM     35  H   UNL     1      -2.587  -8.746   2.550  0.00  0.00    -0.081 HD
ENDBRANCH  24  25
ENDBRANCH  21  24
ENDBRANCH  20  21
ENDBRANCH  10  20
TORSDOF 6
