REMARK  Name = ZINC40779402
REMARK  7 active torsions:
REMARK  status: ('A' for Active; 'I' for Inactive)
REMARK    1  A    between atoms: C_1  and  C_2
REMARK    2  A    between atoms: C_5  and  C_8
REMARK    3  A    between atoms: C_8  and  N_9
REMARK    4  A    between atoms: C_11  and  N_14
REMARK    5  A    between atoms: C_15  and  C_17
REMARK    6  A    between atoms: C_17  and  C_29
REMARK    7  A    between atoms: C_23  and  C_28
REMARK                            x       y       z     vdW  Elec       q    Type
REMARK                         _______ _______ _______ _____ _____    ______ ____
ROOT
ATOM      1  N   UNL     1       4.241  -6.603   1.153  0.00  0.00    -0.279 N 
ATOM      2  C   UNL     1       5.503  -6.688   0.688  0.00  0.00    +0.270 C 
ATOM      3  O   UNL     1       5.830  -6.060  -0.297  0.00  0.00    -0.271 OA
ATOM      4  H   UNL     1       3.979  -7.105   1.941  0.00  0.00    +0.155 HD
ENDROOT
BRANCH   2   5
ATOM      5  C   UNL     1       6.507  -7.564   1.391  0.00  0.00    +0.258 C 
ATOM      6  C   UNL     1       7.899  -7.057   1.108  0.00  0.00    +0.270 C 
ATOM      7  O   UNL     1       8.534  -7.508   0.178  0.00  0.00    -0.271 OA
ATOM      8  N   UNL     1       8.435  -6.100   1.894  0.00  0.00    -0.279 N 
ATOM      9  C   UNL     1       7.738  -5.683   3.036  0.00  0.00    +0.076 A 
ATOM     10  C   UNL     1       8.140  -4.555   3.734  0.00  0.00    +0.030 A 
ATOM     11  C   UNL     1       7.433  -4.149   4.851  0.00  0.00    -0.048 A 
ATOM     12  C   UNL     1       6.327  -4.864   5.272  0.00  0.00    +0.007 A 
ATOM     13  C   UNL     1       5.924  -5.993   4.582  0.00  0.00    +0.048 A 
ATOM     14  C   UNL     1       6.630  -6.409   3.466  0.00  0.00    +0.144 A 
ATOM     15  O   UNL     1       6.261  -7.535   2.798  0.00  0.00    -0.465 OA
ATOM     16  C   UNL     1       7.870  -2.924   5.612  0.00  0.00    +0.044 C 
ATOM     17  C   UNL     1       6.376  -9.000   0.880  0.00  0.00    +0.076 C 
ATOM     18  H   UNL     1       9.293  -5.705   1.671  0.00  0.00    +0.155 HD
ENDBRANCH   2   5
BRANCH   1  21
ATOM     19  N   UNL     1       1.447  -4.746  -0.032  0.00  0.00    -0.265 N 
ATOM     20  C   UNL     1       2.005  -5.608   0.857  0.00  0.00    +0.132 A 
ATOM     21  C   UNL     1       3.302  -5.785   0.497  0.00  0.00    +0.071 A 
ATOM     22  C   UNL     1       3.541  -5.006  -0.645  0.00  0.00    +0.157 A 
ATOM     23  N   UNL     1       2.431  -4.391  -0.963  0.00  0.00    -0.177 NA
BRANCH  19  24
ATOM     24  C   UNL     1       0.059  -4.275  -0.021  0.00  0.00    +0.178 C 
BRANCH  24  29
ATOM     25  C   UNL     1      -0.018   1.503   0.010  0.00  0.00    +0.044 C 
ATOM     26  C   UNL     1       0.002  -0.004   0.002  0.00  0.00    -0.050 A 
ATOM     27  C   UNL     1       0.006  -0.689  -1.199  0.00  0.00    +0.004 A 
ATOM     28  C   UNL     1       0.025  -2.071  -1.206  0.00  0.00    +0.006 A 
ATOM     29  C   UNL     1       0.040  -2.768  -0.013  0.00  0.00    -0.026 A 
ATOM     30  C   UNL     1       0.037  -2.084   1.188  0.00  0.00    +0.006 A 
ATOM     31  C   UNL     1       0.023  -0.702   1.195  0.00  0.00    +0.004 A 
ENDBRANCH  24  29
ENDBRANCH  19  24
ENDBRANCH   1  21
TORSDOF 4
