REMARK  Name = ZINC14193440
REMARK  13 active torsions:
REMARK  status: ('A' for Active; 'I' for Inactive)
REMARK    1  A    between atoms: C_1  and  C_2
REMARK    2  A    between atoms: C_2  and  C_3
REMARK    3  A    between atoms: C_3  and  C_4
REMARK    4  A    between atoms: C_3  and  C_5
REMARK    5  A    between atoms: C_3  and  C_6
REMARK    6  A    between atoms: C_13  and  N_17
REMARK    7  A    between atoms: C_14  and  C_15
REMARK    8  A    between atoms: C_18  and  C_20
REMARK    9  A    between atoms: C_20  and  N_70
REMARK   10  A    between atoms: C_21  and  C_22
REMARK   11  A    between atoms: C_21  and  N_70
REMARK   12  A    between atoms: C_28  and  C_29
REMARK   13  A    between atoms: C_28  and  N_70
REMARK                            x       y       z     vdW  Elec       q    Type
REMARK                         _______ _______ _______ _____ _____    ______ ____
ROOT
ATOM      1  N   UNL     1      -1.774  -7.035   1.583  0.00  0.00    -0.281 N 
ATOM      2  C   UNL     1      -2.989  -7.547   1.305  0.00  0.00    +0.201 C 
ATOM      3  O   UNL     1      -3.813  -6.874   0.723  0.00  0.00    -0.278 OA
ATOM      4  H   UNL     1      -1.115  -7.573   2.049  0.00  0.00    +0.155 HD
ENDROOT
BRANCH   1  11
ATOM      5  C   UNL     1      -0.189  -1.198  -0.490  0.00  0.00    -0.000 C 
ATOM      6  C   UNL     1       0.590  -1.331   0.822  0.00  0.00    +0.009 C 
ATOM      7  C   UNL     1       1.014  -2.785   1.030  0.00  0.00    +0.037 C 
ATOM      8  C   UNL     1      -0.213  -3.678   0.894  0.00  0.00    -0.018 A 
ATOM      9  C   UNL     1      -1.333  -3.233   0.283  0.00  0.00    -0.004 A 
ATOM     10  S   UNL     1      -2.464  -4.593   0.367  0.00  0.00    -0.077 S 
ATOM     11  C   UNL     1      -1.465  -5.736   1.201  0.00  0.00    +0.090 A 
ATOM     12  C   UNL     1      -0.281  -5.040   1.395  0.00  0.00    +0.084 A 
ATOM     13  C   UNL     1      -1.553  -1.884  -0.327  0.00  0.00    +0.047 C 
BRANCH   5  14
ATOM     14  C   UNL     1      -0.394   0.282  -0.817  0.00  0.00    -0.032 C 
ATOM     15  C   UNL     1       0.967   0.966  -0.962  0.00  0.00    +0.011 C 
ATOM     16  C   UNL     1      -1.183   0.949   0.311  0.00  0.00    +0.011 C 
BRANCH  14  18
ATOM     17  C   UNL     1      -1.378   1.892  -2.456  0.00  0.00    +0.004 C 
ATOM     18  C   UNL     1      -1.172   0.412  -2.128  0.00  0.00    +0.003 C 
ENDBRANCH  14  18
ENDBRANCH   5  14
BRANCH  12  19
ATOM     19  C   UNL     1       0.833  -5.642   2.064  0.00  0.00    +0.102 C 
ATOM     20  N   UNL     1       1.716  -6.119   2.596  0.00  0.00    -0.191 NA
ENDBRANCH  12  19
ENDBRANCH   1  11
BRANCH   2  21
ATOM     21  C   UNL     1      -3.325  -8.957   1.720  0.00  0.00    +0.020 C 
BRANCH  21  22
ATOM     22  N   UNL     1      -4.715  -9.254   1.315  0.00  0.00    +0.391 N 
ATOM     23  H   UNL     1      -5.331  -8.511   1.665  0.00  0.00    -0.080 HD
BRANCH  22  24
ATOM     24  C   UNL     1      -4.813  -9.304  -0.159  0.00  0.00    -0.042 C 
BRANCH  24  25
ATOM     25  C   UNL     1      -6.266  -9.230  -0.550  0.00  0.00    -0.064 A 
ATOM     26  C   UNL     1      -6.966 -10.389  -0.830  0.00  0.00    +0.002 A 
ATOM     27  C   UNL     1      -8.301 -10.322  -1.184  0.00  0.00    +0.000 A 
ATOM     28  C   UNL     1      -8.932  -9.095  -1.269  0.00  0.00    +0.000 A 
ATOM     29  C   UNL     1      -8.231  -7.936  -0.995  0.00  0.00    +0.000 A 
ATOM     30  C   UNL     1      -6.898  -8.004  -0.635  0.00  0.00    +0.002 A 
ENDBRANCH  24  25
ENDBRANCH  22  24
BRANCH  22  31
ATOM     31  C   UNL     1      -5.144 -10.545   1.894  0.00  0.00    -0.042 C 
BRANCH  31  32
ATOM     32  C   UNL     1      -5.428 -10.346   3.361  0.00  0.00    -0.064 A 
ATOM     33  C   UNL     1      -4.454 -10.632   4.298  0.00  0.00    +0.002 A 
ATOM     34  C   UNL     1      -4.713 -10.445   5.643  0.00  0.00    +0.000 A 
ATOM     35  C   UNL     1      -5.950  -9.982   6.051  0.00  0.00    +0.000 A 
ATOM     36  C   UNL     1      -6.926  -9.702   5.114  0.00  0.00    +0.000 A 
ATOM     37  C   UNL     1      -6.665  -9.884   3.768  0.00  0.00    +0.002 A 
ENDBRANCH  31  32
ENDBRANCH  22  31
ENDBRANCH  21  22
ENDBRANCH   2  21
TORSDOF 10
