REMARK  Name = ZINC12758894
REMARK  5 active torsions:
REMARK  status: ('A' for Active; 'I' for Inactive)
REMARK    1  A    between atoms: C_1  and  C_2
REMARK    2  A    between atoms: C_2  and  C_4
REMARK    3  A    between atoms: C_2  and  N_12
REMARK    4  A    between atoms: C_13  and  C_15
REMARK    5  A    between atoms: C_15  and  N_51
REMARK                            x       y       z     vdW  Elec       q    Type
REMARK                         _______ _______ _______ _____ _____    ______ ____
ROOT
ATOM      1  C   UNL     1      -0.527   8.175  -0.073  0.00  0.00    +0.021 C 
ATOM      2  C   UNL     1      -1.549   9.332  -0.073  0.00  0.00    +0.033 C 
ATOM      3  C   UNL     1      -0.812  10.513  -0.667  0.00  0.00    -0.045 A 
ATOM      4  C   UNL     1      -1.104  11.866  -0.628  0.00  0.00    +0.004 A 
ATOM      5  C   UNL     1      -0.273  12.775  -1.252  0.00  0.00    +0.000 A 
ATOM      6  C   UNL     1       0.854  12.334  -1.920  0.00  0.00    +0.000 A 
ATOM      7  C   UNL     1       1.147  10.985  -1.961  0.00  0.00    +0.004 A 
ATOM      8  C   UNL     1       0.316  10.072  -1.335  0.00  0.00    -0.045 A 
ATOM      9  C   UNL     1       0.413   8.565  -1.234  0.00  0.00    +0.033 C 
ENDROOT
BRANCH   1  15
ATOM     10  C   UNL     1      -0.678   7.728   2.301  0.00  0.00    -0.077 C 
ATOM     11  C   UNL     1       0.146   7.542   3.577  0.00  0.00    -0.019 C 
ATOM     12  C   UNL     1       0.860   8.854   3.914  0.00  0.00    -0.004 C 
ATOM     13  C   UNL     1       1.738   9.267   2.730  0.00  0.00    -0.019 C 
ATOM     14  C   UNL     1       0.868   9.403   1.478  0.00  0.00    -0.077 C 
ATOM     15  N   UNL     1       0.228   8.101   1.194  0.00  0.00    +0.390 N 
ATOM     16  H   UNL     1       0.958   7.384   1.106  0.00  0.00    -0.080 HD
ENDBRANCH   1  15
BRANCH   1  18
ATOM     17  N   UNL     1      -0.575   5.702  -0.074  0.00  0.00    -0.307 N 
ATOM     18  C   UNL     1      -1.207   6.860  -0.352  0.00  0.00    +0.204 C 
ATOM     19  O   UNL     1      -2.323   6.843  -0.827  0.00  0.00    -0.277 OA
ATOM     20  H   UNL     1       0.342   5.714   0.243  0.00  0.00    +0.149 HD
BRANCH  17  22
ATOM     21  C   UNL     1      -2.088   4.113   1.006  0.00  0.00    +0.036 C 
ATOM     22  C   UNL     1      -1.272   4.426  -0.250  0.00  0.00    +0.138 C 
BRANCH  22  23
ATOM     23  C   UNL     1      -0.264   3.330  -0.481  0.00  0.00    +0.151 A 
ATOM     24  N   UNL     1      -0.550   1.992  -0.595  0.00  0.00    -0.292 N 
ATOM     25  H   UNL     1      -1.433   1.593  -0.541  0.00  0.00    +0.172 HD
ATOM     26  C   UNL     1       0.605   1.326  -0.792  0.00  0.00    +0.342 A 
ATOM     27  O   UNL     1       0.729   0.123  -0.933  0.00  0.00    -0.245 OA
ATOM     28  N   UNL     1       1.599   2.239  -0.810  0.00  0.00    -0.227 N 
ATOM     29  H   UNL     1       2.543   2.059  -0.938  0.00  0.00    +0.194 HD
ATOM     30  N   UNL     1       1.013   3.497  -0.610  0.00  0.00    -0.155 NA
ENDBRANCH  22  23
ENDBRANCH  17  22
ENDBRANCH   1  18
TORSDOF 4
