REMARK  Name = ZINC39595332
REMARK  6 active torsions:
REMARK  status: ('A' for Active; 'I' for Inactive)
REMARK    1  A    between atoms: C_3  and  C_7
REMARK    2  A    between atoms: C_7  and  C_9
REMARK    3  A    between atoms: C_7  and  N_35
REMARK    4  A    between atoms: C_9  and  N_10
REMARK    5  A    between atoms: C_11  and  C_13
REMARK    6  A    between atoms: C_24  and  C_26
REMARK                            x       y       z     vdW  Elec       q    Type
REMARK                         _______ _______ _______ _____ _____    ______ ____
ROOT
ATOM      1  C   UNL     1       7.781   3.348  -2.668  0.00  0.00    +0.100 C 
ATOM      2  C   UNL     1       8.779   2.622  -1.739  0.00  0.00    +0.121 C 
ATOM      3  N   UNL     1       9.440   1.620  -2.608  0.00  0.00    -0.296 N 
ATOM      4  C   UNL     1       9.633   2.323  -3.899  0.00  0.00    +0.115 C 
ATOM      5  C   UNL     1       8.347   3.153  -4.085  0.00  0.00    -0.004 C 
ATOM      6  C   UNL     1       7.349   2.391  -4.952  0.00  0.00    -0.010 C 
ATOM      7  C   UNL     1       7.910   2.259  -6.371  0.00  0.00    -0.082 C 
ATOM      8  N   UNL     1       8.154   3.595  -6.929  0.00  0.00    +0.379 N 
ATOM      9  C   UNL     1       9.182   4.286  -6.142  0.00  0.00    -0.082 C 
ATOM     10  C   UNL     1       8.675   4.503  -4.714  0.00  0.00    -0.010 C 
ATOM     11  C   UNL     1       9.787   0.356  -2.296  0.00  0.00    +0.252 C 
ATOM     12  O   UNL     1      10.328  -0.349  -3.127  0.00  0.00    -0.270 OA
ATOM     13  H   UNL     1       8.465   3.507  -7.884  0.00  0.00    -0.086 HD
ATOM     14  H   UNL     1       7.298   4.129  -6.904  0.00  0.00    -0.086 HD
ENDROOT
BRANCH  11  15
ATOM     15  C   UNL     1       9.510  -0.173  -0.947  0.00  0.00    +0.108 A 
ATOM     16  C   UNL     1       8.299  -0.821  -0.680  0.00  0.00    +0.138 A 
ATOM     17  C   UNL     1       8.047  -1.314   0.586  0.00  0.00    +0.041 A 
ATOM     18  C   UNL     1       8.989  -1.169   1.589  0.00  0.00    +0.026 A 
ATOM     19  C   UNL     1      10.190  -0.531   1.334  0.00  0.00    +0.077 A 
ATOM     20  C   UNL     1      10.460  -0.036   0.070  0.00  0.00    +0.156 A 
ATOM     21  F   UNL     1      11.635   0.582  -0.179  0.00  0.00    -0.203 F 
ATOM     22 CL   UNL     1      11.364  -0.356   2.601  0.00  0.00    -0.081 Cl
ATOM     23  F   UNL     1       7.377  -0.962  -1.657  0.00  0.00    -0.205 F 
ENDBRANCH  11  15
BRANCH   1  25
ATOM     24  N   UNL     1       5.313   3.469  -2.787  0.00  0.00    -0.316 N 
ATOM     25  C   UNL     1       6.413   2.725  -2.559  0.00  0.00    +0.218 C 
ATOM     26  O   UNL     1       6.302   1.553  -2.266  0.00  0.00    -0.275 OA
ATOM     27  H   UNL     1       5.402   4.407  -3.022  0.00  0.00    +0.149 HD
BRANCH  24  28
ATOM     28  C   UNL     1       3.983   2.864  -2.681  0.00  0.00    +0.093 C 
BRANCH  28  29
ATOM     29  C   UNL     1       2.924   3.879  -3.115  0.00  0.00    -0.019 C 
BRANCH  29  32
ATOM     30  C   UNL     1       3.882   5.591  -6.338  0.00  0.00    +0.020 A 
ATOM     31  C   UNL     1       3.747   5.346  -4.980  0.00  0.00    +0.005 A 
ATOM     32  C   UNL     1       3.096   4.190  -4.579  0.00  0.00    -0.041 A 
ATOM     33  C   UNL     1       2.606   3.326  -5.540  0.00  0.00    +0.112 A 
ATOM     34  N   UNL     1       2.753   3.590  -6.824  0.00  0.00    -0.263 NA
ATOM     35  C   UNL     1       3.367   4.681  -7.241  0.00  0.00    +0.111 A 
ENDBRANCH  29  32
BRANCH  29  36
ATOM     36  N   UNL     1       1.586   3.318  -2.887  0.00  0.00    +0.385 N 
ATOM     37  C   UNL     1       1.372   3.077  -1.437  0.00  0.00    -0.078 C 
ATOM     38  C   UNL     1      -0.172   3.049  -1.306  0.00  0.00    -0.020 C 
ATOM     39  C   UNL     1      -0.623   4.140  -2.304  0.00  0.00    -0.020 C 
ATOM     40  C   UNL     1       0.549   4.292  -3.291  0.00  0.00    -0.078 C 
ATOM     41  H   UNL     1       1.476   2.458  -3.403  0.00  0.00    -0.081 HD
ENDBRANCH  29  36
ENDBRANCH  28  29
ENDBRANCH  24  28
ENDBRANCH   1  25
TORSDOF 6
