REMARK  Name = ZINC43730095
REMARK  5 active torsions:
REMARK  status: ('A' for Active; 'I' for Inactive)
REMARK    1  A    between atoms: C_1  and  C_2
REMARK    2  A    between atoms: C_2  and  O_3
REMARK    3  A    between atoms: O_3  and  C_4
REMARK    4  A    between atoms: C_9  and  C_10
REMARK    5  A    between atoms: C_10  and  C_12
REMARK                            x       y       z     vdW  Elec       q    Type
REMARK                         _______ _______ _______ _____ _____    ______ ____
ROOT
ATOM      1  C   UNL     1      -5.304  -2.231  -0.005  0.00  0.00    +0.066 C 
ATOM      2  C   UNL     1      -5.713  -2.541  -1.456  0.00  0.00    -0.055 C 
ATOM      3  C   UNL     1      -5.335  -3.984  -1.817  0.00  0.00    -0.016 C 
ATOM      4  C   UNL     1      -6.674  -4.671  -2.174  0.00  0.00    -0.020 C 
ATOM      5  C   UNL     1      -7.714  -3.815  -1.413  0.00  0.00    -0.076 C 
ATOM      6  N   UNL     1      -7.186  -2.410  -1.524  0.00  0.00    +0.395 N 
ATOM      7  C   UNL     1      -7.638  -1.642  -0.354  0.00  0.00    +0.060 C 
ATOM      8  C   UNL     1      -6.417  -1.296   0.492  0.00  0.00    +0.085 C 
ATOM      9  C   UNL     1      -6.021   0.147   0.347  0.00  0.00    -0.011 A 
ATOM     10  C   UNL     1      -5.666   0.928  -0.730  0.00  0.00    +0.006 A 
ATOM     11  C   UNL     1      -5.344   2.260  -0.542  0.00  0.00    +0.000 A 
ATOM     12  C   UNL     1      -5.380   2.804   0.729  0.00  0.00    +0.002 A 
ATOM     13  C   UNL     1      -5.734   2.025   1.811  0.00  0.00    +0.023 A 
ATOM     14  C   UNL     1      -6.060   0.683   1.631  0.00  0.00    +0.038 A 
ATOM     15  N   UNL     1      -6.444  -0.295   2.551  0.00  0.00    -0.285 N 
ATOM     16  C   UNL     1      -6.672  -1.485   1.962  0.00  0.00    +0.228 C 
ATOM     17  O   UNL     1      -7.017  -2.510   2.511  0.00  0.00    -0.275 OA
ATOM     18  C   UNL     1      -8.647  -2.427   0.444  0.00  0.00    -0.024 A 
ATOM     19  C   UNL     1      -8.593  -3.637   1.099  0.00  0.00    +0.043 A 
ATOM     20  C   UNL     1      -9.712  -4.115   1.763  0.00  0.00    +0.124 A 
ATOM     21  C   UNL     1     -10.880  -3.372   1.763  0.00  0.00    +0.040 A 
ATOM     22  C   UNL     1     -10.936  -2.159   1.108  0.00  0.00    +0.026 A 
ATOM     23  C   UNL     1      -9.815  -1.673   0.438  0.00  0.00    +0.036 A 
ATOM     24  N   UNL     1      -9.625  -0.494  -0.287  0.00  0.00    -0.286 N 
ATOM     25  C   UNL     1      -8.377  -0.399  -0.783  0.00  0.00    +0.212 C 
ATOM     26  O   UNL     1      -7.933   0.512  -1.449  0.00  0.00    -0.277 OA
ATOM     27  F   UNL     1      -9.663  -5.301   2.406  0.00  0.00    -0.205 F 
ATOM     28  H   UNL     1      -6.535  -0.136   3.503  0.00  0.00    +0.155 HD
ATOM     29  H   UNL     1     -10.312   0.178  -0.418  0.00  0.00    +0.155 HD
ATOM     30  H   UNL     1      -7.471  -1.977  -2.390  0.00  0.00    -0.079 HD
ENDROOT
BRANCH   1  31
ATOM     31  C   UNL     1      -3.969  -1.533   0.032  0.00  0.00    +0.169 C 
ATOM     32  O   UNL     1      -3.559  -0.955  -0.952  0.00  0.00    -0.292 OA
BRANCH  31  38
ATOM     33  C   UNL     1      -1.972  -0.815   1.336  0.00  0.00    +0.131 A 
ATOM     34  C   UNL     1      -1.224  -0.838   2.504  0.00  0.00    +0.046 A 
ATOM     35  C   UNL     1      -1.647  -1.590   3.582  0.00  0.00    +0.004 A 
ATOM     36  C   UNL     1      -2.819  -2.326   3.510  0.00  0.00    +0.001 A 
ATOM     37  C   UNL     1      -3.576  -2.317   2.360  0.00  0.00    +0.015 A 
ATOM     38  C   UNL     1      -3.164  -1.554   1.260  0.00  0.00    +0.059 A 
BRANCH  33  39
ATOM     39  O   UNL     1      -1.558  -0.078   0.276  0.00  0.00    -0.492 OA
BRANCH  39  41
ATOM     40  C   UNL     1      -0.035   1.414  -0.861  0.00  0.00    +0.048 C 
ATOM     41  C   UNL     1      -0.337   0.648   0.428  0.00  0.00    +0.226 C 
ENDBRANCH  39  41
ENDBRANCH  33  39
ENDBRANCH  31  38
ENDBRANCH   1  31
TORSDOF 4
