REMARK  Name = ZINC14456423
REMARK  4 active torsions:
REMARK  status: ('A' for Active; 'I' for Inactive)
REMARK    1  A    between atoms: C_1  and  C_2
REMARK    2  A    between atoms: C_5  and  C_7
REMARK    3  A    between atoms: C_17  and  N_24
REMARK    4  A    between atoms: C_20  and  O_23
REMARK                            x       y       z     vdW  Elec       q    Type
REMARK                         _______ _______ _______ _____ _____    ______ ____
ROOT
ATOM      1  C   UNL     1       1.030  -3.947   0.005  0.00  0.00    +0.112 C 
ATOM      2  C   UNL     1       1.459  -4.333  -1.399  0.00  0.00    +0.029 C 
ATOM      3  C   UNL     1       0.432  -4.141  -2.523  0.00  0.00    +0.033 C 
ATOM      4  C   UNL     1       1.339  -3.883  -3.728  0.00  0.00    -0.030 C 
ATOM      5  C   UNL     1       2.499  -3.380  -3.324  0.00  0.00    -0.023 C 
ATOM      6  C   UNL     1       2.484  -3.243  -1.835  0.00  0.00    +0.051 C 
ATOM      7  C   UNL     1       3.695  -3.398  -1.000  0.00  0.00    +0.014 A 
ATOM      8  C   UNL     1       4.964  -3.164  -1.487  0.00  0.00    +0.132 A 
ATOM      9  C   UNL     1       6.066  -3.310  -0.665  0.00  0.00    +0.037 A 
ATOM     10  C   UNL     1       5.899  -3.691   0.654  0.00  0.00    +0.049 A 
ATOM     11  C   UNL     1       4.631  -3.934   1.151  0.00  0.00    +0.138 A 
ATOM     12  C   UNL     1       3.516  -3.796   0.327  0.00  0.00    +0.076 A 
ATOM     13  N   UNL     1       2.240  -4.082   0.845  0.00  0.00    -0.333 N 
ATOM     14  H   UNL     1       2.151  -4.373   1.766  0.00  0.00    +0.147 HD
ENDROOT
BRANCH   1  19
ATOM     15  C   UNL     1       0.141   1.647   0.073  0.00  0.00    +0.051 C 
ATOM     16  C   UNL     1       0.115   0.141   0.059  0.00  0.00    -0.013 A 
ATOM     17  C   UNL     1      -0.953  -0.695   0.064  0.00  0.00    +0.011 A 
ATOM     18  C   UNL     1      -0.735  -2.060   0.048  0.00  0.00    +0.013 A 
ATOM     19  C   UNL     1       0.538  -2.523   0.026  0.00  0.00    +0.010 A 
ATOM     20  S   UNL     1       1.482  -1.007   0.022  0.00  0.00    -0.097 S 
ENDBRANCH   1  19
BRANCH   8  21
ATOM     21  N   UNL     1       5.148  -2.755  -2.897  0.00  0.00    +0.057 N 
ATOM     22  O   UNL     1       5.906  -3.369  -3.611  0.00  0.00    -0.126 OA
ATOM     23  O   UNL     1       4.539  -1.807  -3.336  0.00  0.00    -0.126 OA
ENDBRANCH   8  21
BRANCH  11  24
ATOM     24  O   UNL     1       4.473  -4.308   2.450  0.00  0.00    -0.505 OA
ATOM     25  H   UNL     1       4.357  -3.567   3.061  0.00  0.00    +0.292 HD
ENDBRANCH  11  24
TORSDOF 3
