REMARK  Name = ZINC06721598
REMARK  7 active torsions:
REMARK  status: ('A' for Active; 'I' for Inactive)
REMARK    1  A    between atoms: C_1  and  O_2
REMARK    2  A    between atoms: O_2  and  C_3
REMARK    3  A    between atoms: C_6  and  C_11
REMARK    4  A    between atoms: C_8  and  O_9
REMARK    5  A    between atoms: O_9  and  C_10
REMARK    6  A    between atoms: C_17  and  C_19
REMARK    7  A    between atoms: C_24  and  O_25
REMARK                            x       y       z     vdW  Elec       q    Type
REMARK                         _______ _______ _______ _____ _____    ______ ____
ROOT
ATOM      1  C   UNL     1       1.213   2.088   0.002  0.00  0.00    +0.310 C 
ATOM      2  N   UNL     1       2.153   1.325   0.833  0.00  0.00    -0.205 N 
ATOM      3  C   UNL     1       2.455  -0.091   0.530  0.00  0.00    +0.136 C 
ATOM      4  C   UNL     1       3.112  -0.604   1.819  0.00  0.00    +0.086 C 
ATOM      5  C   UNL     1       3.356   0.657   2.623  0.00  0.00    +0.072 C 
ATOM      6  N   UNL     1       2.813   1.664   2.021  0.00  0.00    -0.184 NA
ATOM      7  C   UNL     1       1.132  -0.763   0.268  0.00  0.00    +0.017 A 
ATOM      8  C   UNL     1       1.063  -2.143   0.272  0.00  0.00    +0.009 A 
ATOM      9  C   UNL     1      -0.129  -2.783  -0.007  0.00  0.00    +0.001 A 
ATOM     10  C   UNL     1      -1.258  -2.036  -0.291  0.00  0.00    +0.004 A 
ATOM     11  C   UNL     1      -1.195  -0.659  -0.286  0.00  0.00    +0.046 A 
ATOM     12  C   UNL     1       0.002  -0.004   0.002  0.00  0.00    +0.129 A 
ATOM     13  O   UNL     1      -0.016   1.353   0.009  0.00  0.00    -0.465 OA
ENDROOT
BRANCH   1  17
ATOM     14  C   UNL     1       0.607   5.979   1.671  0.00  0.00    +0.162 A 
ATOM     15  C   UNL     1       0.967   4.919   2.489  0.00  0.00    +0.050 A 
ATOM     16  C   UNL     1       1.157   3.662   1.947  0.00  0.00    +0.013 A 
ATOM     17  C   UNL     1       0.999   3.460   0.588  0.00  0.00    +0.016 A 
ATOM     18  C   UNL     1       0.640   4.513  -0.233  0.00  0.00    +0.058 A 
ATOM     19  C   UNL     1       0.443   5.775   0.305  0.00  0.00    +0.162 A 
BRANCH  14  21
ATOM     20  C   UNL     1       0.601   7.351   3.614  0.00  0.00    +0.277 C 
ATOM     21  O   UNL     1       0.415   7.215   2.204  0.00  0.00    -0.491 OA
ENDBRANCH  14  21
BRANCH  19  22
ATOM     22  O   UNL     1       0.089   6.811  -0.502  0.00  0.00    -0.491 OA
ATOM     23  C   UNL     1      -0.062   6.528  -1.894  0.00  0.00    +0.277 C 
ENDBRANCH  19  22
ENDBRANCH   1  17
BRANCH   5  24
ATOM     24  C   UNL     1       4.097   0.724   3.896  0.00  0.00    +0.039 A 
ATOM     25  C   UNL     1       4.640  -0.435   4.454  0.00  0.00    +0.013 A 
ATOM     26  C   UNL     1       5.333  -0.365   5.645  0.00  0.00    +0.001 A 
ATOM     27  C   UNL     1       5.491   0.850   6.290  0.00  0.00    +0.004 A 
ATOM     28  C   UNL     1       4.958   2.004   5.747  0.00  0.00    +0.046 A 
ATOM     29  C   UNL     1       4.264   1.952   4.550  0.00  0.00    +0.126 A 
BRANCH  29  30
ATOM     30  O   UNL     1       3.744   3.087   4.013  0.00  0.00    -0.506 OA
ATOM     31  H   UNL     1       2.842   3.281   4.302  0.00  0.00    +0.292 HD
ENDBRANCH  29  30
ENDBRANCH   5  24
TORSDOF 5
