REMARK  Name = ZINC39543394
REMARK  8 active torsions:
REMARK  status: ('A' for Active; 'I' for Inactive)
REMARK    1  A    between atoms: C_1  and  C_2
REMARK    2  A    between atoms: C_4  and  C_9
REMARK    3  A    between atoms: C_5  and  C_8
REMARK    4  A    between atoms: C_9  and  N_10
REMARK    5  A    between atoms: N_10  and  C_11
REMARK    6  A    between atoms: C_11  and  C_12
REMARK    7  A    between atoms: N_15  and  C_26
REMARK    8  A    between atoms: C_17  and  C_19
REMARK                            x       y       z     vdW  Elec       q    Type
REMARK                         _______ _______ _______ _____ _____    ______ ____
ROOT
ATOM      1  C   UNL     1      -1.920  -2.268  -4.961  0.00  0.00    +0.014 C 
ATOM      2  C   UNL     1      -3.286  -2.067  -4.261  0.00  0.00    +0.127 C 
ATOM      3  N   UNL     1      -4.293  -2.189  -5.327  0.00  0.00    -0.266 N 
ATOM      4  N   UNL     1      -3.680  -2.498  -6.514  0.00  0.00    -0.232 NA
ATOM      5  C   UNL     1      -2.293  -1.971  -6.440  0.00  0.00    +0.107 C 
ATOM      6  H   UNL     1      -3.680  -3.495  -6.671  0.00  0.00    +0.145 HD
ENDROOT
BRANCH   5   7
ATOM      7  C   UNL     1      -1.382  -2.713  -7.384  0.00  0.00    -0.010 A 
ATOM      8  C   UNL     1      -0.617  -3.768  -6.922  0.00  0.00    +0.006 A 
ATOM      9  C   UNL     1       0.218  -4.448  -7.788  0.00  0.00    +0.000 A 
ATOM     10  C   UNL     1       0.289  -4.074  -9.117  0.00  0.00    +0.001 A 
ATOM     11  C   UNL     1      -0.475  -3.019  -9.580  0.00  0.00    +0.020 A 
ATOM     12  C   UNL     1      -1.316  -2.342  -8.715  0.00  0.00    +0.046 A 
ATOM     13 CL   UNL     1      -2.281  -1.022  -9.298  0.00  0.00    -0.083 Cl
ENDBRANCH   5   7
BRANCH   3  14
ATOM     14  C   UNL     1      -5.670  -2.015  -5.155  0.00  0.00    +0.045 A 
ATOM     15  C   UNL     1      -6.180  -1.697  -3.903  0.00  0.00    +0.027 A 
ATOM     16  C   UNL     1      -7.540  -1.525  -3.736  0.00  0.00    +0.040 A 
ATOM     17  C   UNL     1      -8.395  -1.671  -4.815  0.00  0.00    +0.124 A 
ATOM     18  C   UNL     1      -7.889  -1.988  -6.064  0.00  0.00    +0.040 A 
ATOM     19  C   UNL     1      -6.529  -2.155  -6.237  0.00  0.00    +0.027 A 
ATOM     20  F   UNL     1      -9.726  -1.503  -4.649  0.00  0.00    -0.205 F 
ENDBRANCH   3  14
BRANCH   1  21
ATOM     21  C   UNL     1      -0.884  -1.268  -4.444  0.00  0.00    -0.075 C 
BRANCH  21  22
ATOM     22  N   UNL     1      -0.464  -1.654  -3.090  0.00  0.00    +0.382 N 
ATOM     23  H   UNL     1      -0.058  -2.577  -3.115  0.00  0.00    -0.085 HD
ATOM     24  H   UNL     1      -1.266  -1.656  -2.477  0.00  0.00    -0.085 HD
BRANCH  22  25
ATOM     25  C   UNL     1       0.530  -0.694  -2.593  0.00  0.00    -0.047 C 
BRANCH  25  28
ATOM     26  C   UNL     1       0.264   0.761   0.337  0.00  0.00    +0.039 C 
ATOM     27  C   UNL     1       0.291  -0.752   0.115  0.00  0.00    +0.151 C 
ATOM     28  C   UNL     1       0.961  -1.090  -1.205  0.00  0.00    -0.038 C 
ATOM     29  C   UNL     1       2.021  -1.820  -0.850  0.00  0.00    +0.060 C 
ATOM     30  N   UNL     1       2.076  -1.965   0.493  0.00  0.00    -0.159 NA
ATOM     31  N   UNL     1       1.158  -1.409   1.109  0.00  0.00    -0.180 NA
ATOM     32  C   UNL     1       3.020  -2.405  -1.815  0.00  0.00    +0.067 C 
ENDBRANCH  25  28
ENDBRANCH  22  25
ENDBRANCH  21  22
ENDBRANCH   1  21
TORSDOF 6
