REMARK  Name = ZINC13499528
REMARK  12 active torsions:
REMARK  status: ('A' for Active; 'I' for Inactive)
REMARK    1  A    between atoms: C_1  and  C_2
REMARK    2  A    between atoms: C_2  and  C_3
REMARK    3  A    between atoms: C_3  and  C_4
REMARK    4  A    between atoms: C_4  and  C_6
REMARK    5  A    between atoms: C_4  and  N_72
REMARK    6  A    between atoms: N_10  and  C_11
REMARK    7  A    between atoms: C_11  and  C_12
REMARK    8  A    between atoms: C_17  and  C_18
REMARK    9  A    between atoms: C_17  and  N_72
REMARK   10  A    between atoms: C_22  and  C_31
REMARK   11  A    between atoms: C_23  and  C_30
REMARK   12  A    between atoms: C_32  and  N_72
REMARK                            x       y       z     vdW  Elec       q    Type
REMARK                         _______ _______ _______ _____ _____    ______ ____
ROOT
ATOM      1  N   UNL     1      -5.386   4.383  -1.288  0.00  0.00    +0.391 N 
ATOM      2  H   UNL     1      -5.186   3.572  -1.886  0.00  0.00    -0.080 HD
ENDROOT
BRANCH   1   3
ATOM      3  C   UNL     1      -4.608   5.542  -1.774  0.00  0.00    -0.067 C 
ATOM      4  C   UNL     1      -5.013   6.812  -1.023  0.00  0.00    -0.015 C 
ATOM      5  C   UNL     1      -4.197   7.995  -1.546  0.00  0.00    -0.002 C 
ATOM      6  C   UNL     1      -4.465   8.179  -3.042  0.00  0.00    -0.000 C 
ATOM      7  C   UNL     1      -4.060   6.908  -3.792  0.00  0.00    -0.002 C 
ATOM      8  C   UNL     1      -4.876   5.725  -3.269  0.00  0.00    -0.015 C 
ENDBRANCH   1   3
BRANCH   1   9
ATOM      9  C   UNL     1      -6.832   4.682  -1.353  0.00  0.00    +0.003 C 
BRANCH   9  10
ATOM     10  C   UNL     1      -7.242   5.556  -0.196  0.00  0.00    +0.139 A 
ATOM     11  N   UNL     1      -6.972   5.355   1.071  0.00  0.00    -0.115 NA
ATOM     12  N   UNL     1      -7.492   6.321   1.747  0.00  0.00    -0.023 NA
ATOM     13  N   UNL     1      -8.094   7.128   0.945  0.00  0.00    -0.044 NA
ATOM     14  N   UNL     1      -7.963   6.691  -0.262  0.00  0.00    -0.223 N 
BRANCH  14  15
ATOM     15  C   UNL     1      -8.498   7.313  -1.476  0.00  0.00    +0.221 C 
BRANCH  15  16
ATOM     16  C   UNL     1      -9.879   6.775  -1.749  0.00  0.00    +0.126 A 
ATOM     17  C   UNL     1     -11.030   7.293  -1.286  0.00  0.00    +0.046 A 
ATOM     18  C   UNL     1     -12.075   6.480  -1.785  0.00  0.00    +0.041 A 
ATOM     19  C   UNL     1     -11.498   5.510  -2.517  0.00  0.00    +0.195 A 
ATOM     20  O   UNL     1     -10.167   5.693  -2.491  0.00  0.00    -0.466 OA
ENDBRANCH  15  16
ENDBRANCH  14  15
ENDBRANCH   9  10
BRANCH   9  21
ATOM     21  C   UNL     1      -7.609   3.365  -1.298  0.00  0.00    -0.008 C 
BRANCH  21  23
ATOM     22  C   UNL     1      -8.162   1.274  -2.549  0.00  0.00    +0.004 C 
ATOM     23  C   UNL     1      -7.295   2.535  -2.544  0.00  0.00    -0.005 C 
ENDBRANCH  21  23
ENDBRANCH   9  21
ENDBRANCH   1   9
BRANCH   1  24
ATOM     24  C   UNL     1      -4.999   4.060   0.102  0.00  0.00    -0.036 C 
BRANCH  24  25
ATOM     25  C   UNL     1      -3.643   3.405   0.086  0.00  0.00    +0.001 A 
ATOM     26  C   UNL     1      -2.554   4.093   0.511  0.00  0.00    +0.017 A 
ATOM     27  C   UNL     1      -1.251   3.427   0.484  0.00  0.00    -0.001 A 
ATOM     28  C   UNL     1      -0.093   4.086   0.909  0.00  0.00    +0.013 A 
ATOM     29  C   UNL     1       1.109   3.437   0.871  0.00  0.00    -0.047 A 
ATOM     30  C   UNL     1       1.190   2.128   0.414  0.00  0.00    -0.046 A 
ATOM     31  C   UNL     1       0.062   1.460  -0.010  0.00  0.00    +0.030 A 
ATOM     32  C   UNL     1      -1.171   2.103   0.014  0.00  0.00    +0.049 A 
ATOM     33  N   UNL     1      -2.316   1.456  -0.399  0.00  0.00    -0.322 N 
ATOM     34  H   UNL     1      -2.260   0.542  -0.718  0.00  0.00    +0.169 HD
ATOM     35  C   UNL     1      -3.509   2.076  -0.370  0.00  0.00    +0.251 A 
ATOM     36  O   UNL     1      -4.500   1.475  -0.748  0.00  0.00    -0.268 OA
ATOM     37  C   UNL     1       2.526   1.432   0.382  0.00  0.00    +0.044 C 
ATOM     38  C   UNL     1       2.356   4.147   1.329  0.00  0.00    +0.044 C 
ENDBRANCH  24  25
ENDBRANCH   1  24
TORSDOF 9
