REMARK  Name = ZINC21253564
REMARK  11 active torsions:
REMARK  status: ('A' for Active; 'I' for Inactive)
REMARK    1  A    between atoms: C_1  and  C_2
REMARK    2  A    between atoms: C_2  and  O_3
REMARK    3  A    between atoms: O_3  and  C_4
REMARK    4  A    between atoms: C_7  and  C_12
REMARK    5  A    between atoms: C_9  and  O_10
REMARK    6  A    between atoms: O_10  and  C_11
REMARK    7  A    between atoms: C_17  and  C_22
REMARK    8  A    between atoms: C_24  and  O_30
REMARK    9  A    between atoms: C_27  and  O_28
REMARK   10  A    between atoms: O_28  and  C_29
REMARK   11  A    between atoms: O_30  and  C_31
REMARK                            x       y       z     vdW  Elec       q    Type
REMARK                         _______ _______ _______ _____ _____    ______ ____
ROOT
ATOM      1  C   UNL     1      -6.592   1.346   0.172  0.00  0.00    +0.136 C 
ATOM      2  C   UNL     1      -5.271   0.642  -0.034  0.00  0.00    +0.036 C 
ATOM      3  C   UNL     1      -4.687   0.395  -1.218  0.00  0.00    +0.017 C 
ATOM      4  C   UNL     1      -3.362  -0.348  -1.280  0.00  0.00    +0.060 C 
ATOM      5  C   UNL     1      -2.518  -0.007  -0.053  0.00  0.00    +0.036 C 
ATOM      6  C   UNL     1      -3.306  -0.436   1.190  0.00  0.00    +0.088 C 
ATOM      7  C   UNL     1      -4.642   0.245   1.169  0.00  0.00    +0.163 C 
ATOM      8  O   UNL     1      -5.204   0.464   2.224  0.00  0.00    -0.292 OA
ATOM      9  N   UNL     1      -5.190   0.758  -2.425  0.00  0.00    -0.316 N 
ATOM     10  C   UNL     1      -6.509   0.568  -2.824  0.00  0.00    +0.052 A 
ATOM     11  C   UNL     1      -6.846  -0.227  -3.905  0.00  0.00    +0.025 A 
ATOM     12  C   UNL     1      -8.166  -0.288  -4.317  0.00  0.00    +0.002 A 
ATOM     13  C   UNL     1      -9.138   0.437  -3.652  0.00  0.00    +0.002 A 
ATOM     14  C   UNL     1      -8.806   1.216  -2.558  0.00  0.00    +0.025 A 
ATOM     15  C   UNL     1      -7.488   1.266  -2.133  0.00  0.00    +0.049 A 
ATOM     16  N   UNL     1      -7.112   2.001  -1.009  0.00  0.00    -0.331 N 
ATOM     17  H   UNL     1      -4.540   1.242  -3.169  0.00  0.00    +0.152 HD
ATOM     18  H   UNL     1      -7.217   3.095  -1.030  0.00  0.00    +0.147 HD
ENDROOT
BRANCH   1  22
ATOM     19  C   UNL     1      -9.463  -1.530   1.503  0.00  0.00    +0.162 A 
ATOM     20  C   UNL     1      -8.892  -1.648   0.246  0.00  0.00    +0.050 A 
ATOM     21  C   UNL     1      -7.964  -0.717  -0.181  0.00  0.00    +0.009 A 
ATOM     22  C   UNL     1      -7.604   0.334   0.643  0.00  0.00    -0.019 A 
ATOM     23  C   UNL     1      -8.167   0.454   1.900  0.00  0.00    +0.055 A 
ATOM     24  C   UNL     1      -9.101  -0.473   2.332  0.00  0.00    +0.162 A 
BRANCH  24  25
ATOM     25  O   UNL     1      -9.659  -0.353   3.567  0.00  0.00    -0.491 OA
ATOM     26  C   UNL     1      -9.240   0.756   4.363  0.00  0.00    +0.277 C 
ENDBRANCH  24  25
BRANCH  19  27
ATOM     27  O   UNL     1     -10.376  -2.446   1.925  0.00  0.00    -0.489 OA
BRANCH  27  29
ATOM     28  C   UNL     1     -11.734  -4.428   1.666  0.00  0.00    +0.048 C 
ATOM     29  C   UNL     1     -10.699  -3.505   1.021  0.00  0.00    +0.226 C 
ENDBRANCH  27  29
ENDBRANCH  19  27
ENDBRANCH   1  22
BRANCH   5  30
ATOM     30  C   UNL     1      -1.209  -0.752  -0.110  0.00  0.00    +0.002 A 
ATOM     31  C   UNL     1      -1.202  -2.133  -0.146  0.00  0.00    +0.053 A 
ATOM     32  C   UNL     1       0.003  -2.819  -0.194  0.00  0.00    +0.121 A 
ATOM     33  C   UNL     1       1.200  -2.118  -0.209  0.00  0.00    +0.049 A 
ATOM     34  C   UNL     1       1.192  -0.738  -0.178  0.00  0.00    +0.049 A 
ATOM     35  C   UNL     1      -0.013  -0.051  -0.132  0.00  0.00    +0.124 A 
BRANCH  35  36
ATOM     36  O   UNL     1      -0.020   1.308  -0.101  0.00  0.00    -0.495 OA
ATOM     37  C   UNL     1       1.249   1.964  -0.120  0.00  0.00    +0.277 C 
ENDBRANCH  35  36
BRANCH  32  38
ATOM     38  O   UNL     1       0.010  -4.178  -0.224  0.00  0.00    -0.495 OA
ATOM     39  C   UNL     1       1.287  -4.819  -0.272  0.00  0.00    +0.277 C 
ENDBRANCH  32  38
ENDBRANCH   5  30
TORSDOF 7
