REMARK  Name = ZINC05797409
REMARK  4 active torsions:
REMARK  status: ('A' for Active; 'I' for Inactive)
REMARK    1  A    between atoms: C_1  and  C_2
REMARK    2  A    between atoms: C_5  and  N_8
REMARK    3  A    between atoms: C_9  and  C_15
REMARK    4  A    between atoms: C_15  and  N_16
REMARK                            x       y       z     vdW  Elec       q    Type
REMARK                         _______ _______ _______ _____ _____    ______ ____
ROOT
ATOM      1  N   UNL     1      -0.002  -4.174  -0.015  0.00  0.00    -0.274 N 
ATOM      2  C   UNL     1       0.166  -4.982   1.085  0.00  0.00    +0.158 A 
ATOM      3  N   UNL     1       0.206  -6.215   0.695  0.00  0.00    -0.156 NA
ATOM      4  N   UNL     1       0.062  -6.237  -0.699  0.00  0.00    -0.254 N 
ATOM      5  H   UNL     1       0.054  -7.025  -1.264  0.00  0.00    +0.191 HD
ATOM      6  C   UNL     1      -0.071  -4.958  -1.110  0.00  0.00    +0.180 A 
ATOM      7  S   UNL     1      -0.285  -4.429  -2.724  0.00  0.00    -0.011 S 
ENDROOT
BRANCH   1  12
ATOM      8  C   UNL     1      -0.368   1.489   0.046  0.00  0.00    +0.044 C 
ATOM      9  C   UNL     1      -0.271  -0.015   0.029  0.00  0.00    -0.050 A 
ATOM     10  C   UNL     1      -1.374  -0.774  -0.318  0.00  0.00    +0.005 A 
ATOM     11  C   UNL     1      -1.288  -2.152  -0.333  0.00  0.00    +0.026 A 
ATOM     12  C   UNL     1      -0.092  -2.776  -0.001  0.00  0.00    +0.050 A 
ATOM     13  C   UNL     1       1.013  -2.011   0.347  0.00  0.00    +0.026 A 
ATOM     14  C   UNL     1       0.922  -0.633   0.356  0.00  0.00    +0.005 A 
ENDBRANCH   1  12
BRANCH   2  15
ATOM     15  C   UNL     1       0.285  -4.508   2.511  0.00  0.00    +0.224 C 
BRANCH  15  16
ATOM     16  N   UNL     1       0.498  -5.659   3.391  0.00  0.00    -0.222 N 
ATOM     17  C   UNL     1       1.760  -6.059   3.656  0.00  0.00    +0.275 A 
ATOM     18  O   UNL     1       2.711  -5.473   3.171  0.00  0.00    -0.266 OA
ATOM     19  C   UNL     1       1.964  -7.213   4.540  0.00  0.00    +0.050 A 
ATOM     20  C   UNL     1       3.237  -7.684   4.859  0.00  0.00    +0.014 A 
ATOM     21  C   UNL     1       3.366  -8.772   5.694  0.00  0.00    +0.001 A 
ATOM     22  C   UNL     1       2.244  -9.400   6.218  0.00  0.00    +0.001 A 
ATOM     23  C   UNL     1       0.986  -8.956   5.919  0.00  0.00    +0.010 A 
ATOM     24  C   UNL     1       0.824  -7.856   5.075  0.00  0.00    +0.007 A 
ATOM     25  C   UNL     1      -0.499  -7.340   4.724  0.00  0.00    +0.141 A 
ATOM     26  N   UNL     1      -0.608  -6.310   3.939  0.00  0.00    -0.176 NA
ENDBRANCH  15  16
ENDBRANCH   2  15
TORSDOF 3
