REMARK  Name = ZINC27496895
REMARK  6 active torsions:
REMARK  status: ('A' for Active; 'I' for Inactive)
REMARK    1  A    between atoms: N_12  and  C_16
REMARK    2  A    between atoms: C_16  and  C_17
REMARK    3  A    between atoms: N_19  and  C_20
REMARK    4  A    between atoms: C_20  and  C_21
REMARK    5  A    between atoms: C_21  and  C_23
REMARK    6  A    between atoms: C_21  and  N_28
REMARK                            x       y       z     vdW  Elec       q    Type
REMARK                         _______ _______ _______ _____ _____    ______ ____
ROOT
ATOM      1  C   UNL     1      -1.540   5.291   2.809  0.00  0.00    +0.231 C 
ATOM      2  O   UNL     1      -1.849   4.174   2.452  0.00  0.00    -0.274 OA
ATOM      3  N   UNL     1      -2.234   5.901   3.790  0.00  0.00    -0.315 N 
ATOM      4  H   UNL     1      -1.954   6.915   4.114  0.00  0.00    +0.149 HD
ENDROOT
BRANCH   1   5
ATOM      5  C   UNL     1      -0.381   5.998   2.155  0.00  0.00    +0.213 C 
BRANCH   5  17
ATOM      6  C   UNL     1       1.423  -0.661   0.174  0.00  0.00    +0.000 A 
ATOM      7  C   UNL     1       0.189  -0.038   0.181  0.00  0.00    +0.000 A 
ATOM      8  C   UNL     1       0.112   1.340   0.137  0.00  0.00    +0.006 A 
ATOM      9  C   UNL     1       1.267   2.104   0.086  0.00  0.00    -0.012 A 
ATOM     10  C   UNL     1       2.503   1.479   0.084  0.00  0.00    -0.042 A 
ATOM     11  C   UNL     1       2.576   0.097   0.127  0.00  0.00    +0.004 A 
ATOM     12  C   UNL     1       3.603   2.519   0.034  0.00  0.00    +0.038 C 
ATOM     13  C   UNL     1       2.909   3.820  -0.430  0.00  0.00    +0.045 C 
ATOM     14  C   UNL     1       1.461   3.595   0.024  0.00  0.00    +0.138 C 
ATOM     15  C   UNL     1       1.198   4.247   1.356  0.00  0.00    +0.251 C 
ATOM     16  O   UNL     1       1.759   4.025   2.407  0.00  0.00    -0.272 OA
ATOM     17  N   UNL     1       0.203   5.131   1.128  0.00  0.00    -0.215 N 
ATOM     18  C   UNL     1      -0.186   5.116  -0.154  0.00  0.00    +0.310 C 
ATOM     19  O   UNL     1      -1.066   5.824  -0.602  0.00  0.00    -0.252 OA
ATOM     20  N   UNL     1       0.511   4.228  -0.892  0.00  0.00    -0.281 N 
ATOM     21  H   UNL     1       0.487   3.932  -1.951  0.00  0.00    +0.152 HD
ENDBRANCH   5  17
ENDBRANCH   1   5
BRANCH   3  22
ATOM     22  C   UNL     1      -3.361   5.215   4.426  0.00  0.00    +0.096 C 
BRANCH  22  23
ATOM     23  C   UNL     1      -3.970   6.120   5.499  0.00  0.00    +0.016 C 
BRANCH  23  24
ATOM     24  N   UNL     1      -2.924   6.529   6.446  0.00  0.00    +0.387 N 
ATOM     25  C   UNL     1      -2.269   5.359   7.044  0.00  0.00    -0.078 C 
ATOM     26  C   UNL     1      -1.093   5.818   7.910  0.00  0.00    -0.019 C 
ATOM     27  C   UNL     1      -1.609   6.754   9.007  0.00  0.00    -0.004 C 
ATOM     28  C   UNL     1      -2.329   7.939   8.358  0.00  0.00    -0.019 C 
ATOM     29  C   UNL     1      -3.469   7.419   7.479  0.00  0.00    -0.078 C 
ATOM     30  H   UNL     1      -2.162   7.091   5.887  0.00  0.00    -0.081 HD
ENDBRANCH  23  24
BRANCH  23  31
ATOM     31  C   UNL     1      -5.049   5.369   6.236  0.00  0.00    +0.093 A 
ATOM     32  C   UNL     1      -6.373   5.583   6.124  0.00  0.00    +0.043 A 
ATOM     33  C   UNL     1      -7.010   4.662   6.987  0.00  0.00    +0.041 A 
ATOM     34  C   UNL     1      -6.038   3.941   7.574  0.00  0.00    +0.195 A 
ATOM     35  O   UNL     1      -4.853   4.370   7.111  0.00  0.00    -0.469 OA
ENDBRANCH  23  31
ENDBRANCH  22  23
ENDBRANCH   3  22
TORSDOF 6
