REMARK  Name = ZINC36812301
REMARK  11 active torsions:
REMARK  status: ('A' for Active; 'I' for Inactive)
REMARK    1  A    between atoms: C_1  and  C_2
REMARK    2  A    between atoms: C_5  and  N_11
REMARK    3  A    between atoms: C_6  and  N_8
REMARK    4  A    between atoms: C_12  and  C_14
REMARK    5  A    between atoms: C_14  and  S_15
REMARK    6  A    between atoms: S_15  and  C_16
REMARK    7  A    between atoms: C_20  and  C_24
REMARK    8  A    between atoms: C_21  and  C_23
REMARK    9  A    between atoms: N_27  and  C_28
REMARK   10  A    between atoms: C_28  and  C_29
REMARK   11  A    between atoms: C_28  and  C_30
REMARK                            x       y       z     vdW  Elec       q    Type
REMARK                         _______ _______ _______ _____ _____    ______ ____
ROOT
ATOM      1  S   UNL     1      -0.362  -6.168  -2.683  0.00  0.00    -0.078 S 
ENDROOT
BRANCH   1   2
ATOM      2  C   UNL     1      -0.412  -7.926  -2.585  0.00  0.00    +0.173 A 
ATOM      3  N   UNL     1      -0.308  -8.515  -1.410  0.00  0.00    -0.216 NA
ATOM      4  C   UNL     1      -0.343  -9.837  -1.306  0.00  0.00    +0.117 A 
ATOM      5  C   UNL     1      -0.490 -10.672  -2.430  0.00  0.00    +0.075 A 
ATOM      6  C   UNL     1      -0.508 -12.095  -2.138  0.00  0.00    -0.026 A 
ATOM      7  C   UNL     1      -0.389 -12.505  -0.866  0.00  0.00    -0.008 A 
ATOM      8  S   UNL     1      -0.240 -10.981   0.047  0.00  0.00    -0.073 S 
ATOM      9  C   UNL     1      -0.382 -13.915  -0.337  0.00  0.00    +0.052 C 
ATOM     10  C   UNL     1      -0.661 -13.100  -3.251  0.00  0.00    +0.045 C 
ATOM     11  C   UNL     1      -0.599 -10.005  -3.691  0.00  0.00    +0.263 A 
ATOM     12  O   UNL     1      -0.729 -10.646  -4.719  0.00  0.00    -0.267 OA
ATOM     13  N   UNL     1      -0.563  -8.660  -3.725  0.00  0.00    -0.285 N 
BRANCH  13  14
ATOM     14  C   UNL     1      -0.681  -7.971  -5.013  0.00  0.00    +0.087 C 
ATOM     15  C   UNL     1       0.518  -8.328  -5.894  0.00  0.00    +0.031 C 
ATOM     16  C   UNL     1      -1.972  -8.407  -5.708  0.00  0.00    +0.031 C 
ENDBRANCH  13  14
ENDBRANCH   1   2
BRANCH   1  17
ATOM     17  C   UNL     1      -0.154  -5.637  -0.961  0.00  0.00    +0.173 C 
BRANCH  17  19
ATOM     18  N   UNL     1       0.057  -3.510   0.284  0.00  0.00    -0.283 N 
ATOM     19  C   UNL     1      -0.095  -4.133  -0.902  0.00  0.00    +0.228 C 
ATOM     20  O   UNL     1      -0.185  -3.482  -1.921  0.00  0.00    -0.275 OA
ATOM     21  H   UNL     1       0.213  -4.030   1.088  0.00  0.00    +0.155 HD
BRANCH  18  26
ATOM     22  C   UNL     1      -0.214   2.149   0.572  0.00  0.00    +0.044 C 
ATOM     23  C   UNL     1      -0.142   0.646   0.496  0.00  0.00    -0.048 A 
ATOM     24  C   UNL     1      -0.785  -0.025  -0.529  0.00  0.00    +0.005 A 
ATOM     25  C   UNL     1      -0.721  -1.402  -0.602  0.00  0.00    +0.026 A 
ATOM     26  C   UNL     1      -0.010  -2.114   0.355  0.00  0.00    +0.064 A 
ATOM     27  C   UNL     1       0.635  -1.438   1.382  0.00  0.00    +0.148 A 
ATOM     28  C   UNL     1       0.571  -0.060   1.447  0.00  0.00    +0.038 A 
BRANCH  27  29
ATOM     29  N   UNL     1       1.394  -2.193   2.404  0.00  0.00    +0.058 N 
ATOM     30  O   UNL     1       1.873  -1.615   3.351  0.00  0.00    -0.126 OA
ATOM     31  O   UNL     1       1.536  -3.389   2.291  0.00  0.00    -0.126 OA
ENDBRANCH  27  29
ENDBRANCH  18  26
ENDBRANCH  17  19
ENDBRANCH   1  17
TORSDOF 6
