REMARK  Name = ZINC40342249
REMARK  7 active torsions:
REMARK  status: ('A' for Active; 'I' for Inactive)
REMARK    1  A    between atoms: C_1  and  C_2
REMARK    2  A    between atoms: C_2  and  C_3
REMARK    3  A    between atoms: C_2  and  C_4
REMARK    4  A    between atoms: C_7  and  C_10
REMARK    5  A    between atoms: C_13  and  C_29
REMARK    6  A    between atoms: N_20  and  C_21
REMARK    7  A    between atoms: C_21  and  C_22
REMARK                            x       y       z     vdW  Elec       q    Type
REMARK                         _______ _______ _______ _____ _____    ______ ____
ROOT
ATOM      1  C   UNL     1      -5.419  -2.005   0.043  0.00  0.00    +0.142 C 
ATOM      2  C   UNL     1      -5.438  -3.437   0.502  0.00  0.00    +0.035 A 
ATOM      3  C   UNL     1      -5.158  -4.352   1.523  0.00  0.00    +0.099 A 
ATOM      4  N   UNL     1      -5.503  -5.547   1.087  0.00  0.00    -0.173 NA
ATOM      5  N   UNL     1      -5.974  -5.478  -0.107  0.00  0.00    -0.272 N 
ATOM      6  H   UNL     1      -6.291  -6.233  -0.626  0.00  0.00    +0.189 HD
ATOM      7  C   UNL     1      -5.963  -4.181  -0.537  0.00  0.00    +0.126 A 
ATOM      8  C   UNL     1      -6.279  -3.274  -1.646  0.00  0.00    +0.266 C 
ATOM      9  O   UNL     1      -6.757  -3.619  -2.710  0.00  0.00    -0.268 OA
ATOM     10  N   UNL     1      -5.968  -2.006  -1.319  0.00  0.00    -0.281 N 
ENDROOT
BRANCH   3  11
ATOM     11  C   UNL     1      -4.577  -4.036   2.852  0.00  0.00    +0.003 A 
ATOM     12  C   UNL     1      -3.635  -3.018   2.978  0.00  0.00    +0.011 A 
ATOM     13  C   UNL     1      -3.098  -2.727   4.216  0.00  0.00    +0.020 A 
ATOM     14  C   UNL     1      -3.495  -3.446   5.331  0.00  0.00    +0.041 A 
ATOM     15  C   UNL     1      -4.431  -4.458   5.210  0.00  0.00    +0.020 A 
ATOM     16  C   UNL     1      -4.978  -4.752   3.978  0.00  0.00    +0.011 A 
ATOM     17 CL   UNL     1      -2.815  -3.076   6.885  0.00  0.00    -0.084 Cl
ENDBRANCH   3  11
BRANCH   1  21
ATOM     18  C   UNL     1      -1.412  -0.526   0.013  0.00  0.00    -0.045 A 
ATOM     19  C   UNL     1      -2.259  -0.204   1.056  0.00  0.00    +0.004 A 
ATOM     20  C   UNL     1      -3.556  -0.683   1.066  0.00  0.00    +0.006 A 
ATOM     21  C   UNL     1      -4.006  -1.482   0.032  0.00  0.00    -0.022 A 
ATOM     22  C   UNL     1      -3.159  -1.803  -1.012  0.00  0.00    +0.006 A 
ATOM     23  C   UNL     1      -1.863  -1.321  -1.024  0.00  0.00    +0.004 A 
BRANCH  18  25
ATOM     24  C   UNL     1      -0.019   1.526   0.010  0.00  0.00    +0.012 C 
ATOM     25  C   UNL     1       0.002  -0.004   0.002  0.00  0.00    +0.013 C 
ATOM     26  C   UNL     1       0.742  -0.511   1.242  0.00  0.00    +0.012 C 
ENDBRANCH  18  25
ENDBRANCH   1  21
BRANCH  10  27
ATOM     27  C   UNL     1      -6.146  -0.829  -2.173  0.00  0.00    +0.145 C 
BRANCH  27  28
ATOM     28  C   UNL     1      -4.901  -0.611  -2.993  0.00  0.00    -0.012 A 
ATOM     29  C   UNL     1      -3.973   0.337  -2.603  0.00  0.00    +0.006 A 
ATOM     30  C   UNL     1      -2.831   0.537  -3.354  0.00  0.00    +0.000 A 
ATOM     31  C   UNL     1      -2.615  -0.210  -4.497  0.00  0.00    +0.001 A 
ATOM     32  C   UNL     1      -3.541  -1.158  -4.889  0.00  0.00    +0.020 A 
ATOM     33  C   UNL     1      -4.683  -1.363  -4.133  0.00  0.00    +0.046 A 
ATOM     34 CL   UNL     1      -5.843  -2.558  -4.621  0.00  0.00    -0.083 Cl
ENDBRANCH  27  28
ENDBRANCH  10  27
TORSDOF 5
