REMARK  Name = ZINC20548965
REMARK  8 active torsions:
REMARK  status: ('A' for Active; 'I' for Inactive)
REMARK    1  A    between atoms: C_1  and  C_2
REMARK    2  A    between atoms: C_2  and  C_3
REMARK    3  A    between atoms: C_3  and  C_4
REMARK    4  A    between atoms: C_4  and  N_5
REMARK    5  A    between atoms: C_10  and  C_28
REMARK    6  A    between atoms: C_28  and  C_29
REMARK    7  A    between atoms: C_29  and  C_30
REMARK    8  A    between atoms: C_29  and  C_31
REMARK                            x       y       z     vdW  Elec       q    Type
REMARK                         _______ _______ _______ _____ _____    ______ ____
ROOT
ATOM      1  N   UNL     1       1.471  -2.526   2.420  0.00  0.00    -0.242 N 
ATOM      2  C   UNL     1       2.792  -2.744   2.436  0.00  0.00    +0.227 C 
ATOM      3  O   UNL     1       3.541  -2.574   1.498  0.00  0.00    -0.275 OA
ATOM      4  C   UNL     1       3.203  -3.234   3.805  0.00  0.00    +0.107 C 
ATOM      5  C   UNL     1       3.663  -4.704   3.705  0.00  0.00    +0.068 C 
ATOM      6  N   UNL     1       2.418  -5.504   3.849  0.00  0.00    -0.295 NA
ATOM      7  C   UNL     1       1.640  -4.779   4.870  0.00  0.00    +0.136 C 
ATOM      8  C   UNL     1       1.863  -3.272   4.591  0.00  0.00    +0.122 C 
ATOM      9  C   UNL     1       0.852  -2.782   3.578  0.00  0.00    +0.228 C 
ATOM     10  O   UNL     1      -0.335  -2.645   3.782  0.00  0.00    -0.275 OA
ATOM     11  C   UNL     1       0.184  -5.143   4.819  0.00  0.00    +0.005 A 
ATOM     12  C   UNL     1      -0.782  -5.055   3.841  0.00  0.00    +0.008 A 
ATOM     13  C   UNL     1      -2.072  -5.485   4.100  0.00  0.00    +0.002 A 
ATOM     14  C   UNL     1      -2.389  -6.003   5.343  0.00  0.00    +0.022 A 
ATOM     15  C   UNL     1      -1.424  -6.094   6.326  0.00  0.00    +0.062 A 
ATOM     16  C   UNL     1      -0.123  -5.662   6.073  0.00  0.00    +0.057 A 
ATOM     17  N   UNL     1       1.010  -5.649   6.892  0.00  0.00    -0.282 N 
ATOM     18  C   UNL     1       2.087  -5.144   6.260  0.00  0.00    +0.243 C 
ATOM     19  O   UNL     1       3.200  -5.011   6.721  0.00  0.00    -0.273 OA
ATOM     20 CL   UNL     1      -1.833  -6.746   7.882  0.00  0.00    -0.082 Cl
ATOM     21  H   UNL     1       1.914  -5.549   2.975  0.00  0.00    +0.123 HD
ATOM     22  H   UNL     1       1.019  -5.967   7.808  0.00  0.00    +0.155 HD
ENDROOT
BRANCH   1  23
ATOM     23  C   UNL     1       0.763  -2.041   1.233  0.00  0.00    +0.116 C 
BRANCH  23  24
ATOM     24  C   UNL     1       0.742  -0.511   1.242  0.00  0.00    +0.019 C 
BRANCH  24  26
ATOM     25  C   UNL     1      -0.019   1.526   0.010  0.00  0.00    +0.004 C 
ATOM     26  C   UNL     1       0.002  -0.004   0.002  0.00  0.00    -0.002 C 
ENDBRANCH  24  26
ENDBRANCH  23  24
ENDBRANCH   1  23
BRANCH   5  27
ATOM     27  C   UNL     1       4.313  -4.966   2.345  0.00  0.00    +0.022 C 
BRANCH  27  28
ATOM     28  C   UNL     1       4.872  -6.390   2.313  0.00  0.00    -0.016 C 
ATOM     29  C   UNL     1       5.410  -6.696   0.914  0.00  0.00    +0.007 C 
ATOM     30  C   UNL     1       6.004  -6.517   3.334  0.00  0.00    +0.007 C 
ENDBRANCH  27  28
ENDBRANCH   5  27
TORSDOF 5
