REMARK  Name = ZINC09950782
REMARK  7 active torsions:
REMARK  status: ('A' for Active; 'I' for Inactive)
REMARK    1  A    between atoms: C_1  and  N_58
REMARK    2  A    between atoms: C_2  and  C_3
REMARK    3  A    between atoms: C_2  and  N_58
REMARK    4  A    between atoms: C_13  and  N_14
REMARK    5  A    between atoms: C_13  and  N_58
REMARK    6  A    between atoms: C_17  and  C_21
REMARK    7  A    between atoms: C_17  and  C_27
REMARK                            x       y       z     vdW  Elec       q    Type
REMARK                         _______ _______ _______ _____ _____    ______ ____
ROOT
ATOM      1  N   UNL     1       4.134  -3.042  -2.617  0.00  0.00    -0.241 N 
ATOM      2  C   UNL     1       3.780  -3.953  -3.545  0.00  0.00    +0.254 C 
ATOM      3  O   UNL     1       2.752  -4.595  -3.586  0.00  0.00    -0.272 OA
ATOM      4  C   UNL     1       4.933  -4.006  -4.528  0.00  0.00    +0.164 C 
ATOM      5  N   UNL     1       5.896  -3.033  -3.985  0.00  0.00    -0.278 N 
ATOM      6  C   UNL     1       5.340  -2.523  -2.870  0.00  0.00    +0.308 C 
ATOM      7  O   UNL     1       5.875  -1.684  -2.172  0.00  0.00    -0.252 OA
ATOM      8  H   UNL     1       6.762  -2.804  -4.357  0.00  0.00    +0.152 HD
ENDROOT
BRANCH   4   9
ATOM      9  C   UNL     1       4.480  -3.593  -5.904  0.00  0.00    -0.011 A 
ATOM     10  C   UNL     1       5.202  -2.653  -6.616  0.00  0.00    +0.006 A 
ATOM     11  C   UNL     1       4.790  -2.277  -7.881  0.00  0.00    +0.000 A 
ATOM     12  C   UNL     1       3.651  -2.835  -8.430  0.00  0.00    +0.000 A 
ATOM     13  C   UNL     1       2.926  -3.771  -7.717  0.00  0.00    +0.000 A 
ATOM     14  C   UNL     1       3.341  -4.150  -6.454  0.00  0.00    +0.006 A 
ENDBRANCH   4   9
BRANCH   4  15
ATOM     15  C   UNL     1       5.536  -5.387  -4.561  0.00  0.00    -0.011 A 
ATOM     16  C   UNL     1       4.731  -6.488  -4.785  0.00  0.00    +0.006 A 
ATOM     17  C   UNL     1       5.285  -7.754  -4.821  0.00  0.00    +0.000 A 
ATOM     18  C   UNL     1       6.643  -7.919  -4.623  0.00  0.00    +0.000 A 
ATOM     19  C   UNL     1       7.447  -6.819  -4.394  0.00  0.00    +0.000 A 
ATOM     20  C   UNL     1       6.894  -5.553  -4.363  0.00  0.00    +0.006 A 
ENDBRANCH   4  15
BRANCH   1  21
ATOM     21  C   UNL     1       3.302  -2.670  -1.469  0.00  0.00    +0.043 C 
BRANCH  21  23
ATOM     22  C   UNL     1       3.163  -0.270  -1.756  0.00  0.00    -0.093 C 
ATOM     23  N   UNL     1       2.427  -1.547  -1.865  0.00  0.00    +0.391 N 
ATOM     24  H   UNL     1       2.133  -1.680  -2.840  0.00  0.00    -0.079 HD
BRANCH  23  25
ATOM     25  C   UNL     1       1.227  -1.514  -1.002  0.00  0.00    -0.041 C 
BRANCH  25  26
ATOM     26  C   UNL     1       0.254  -0.508  -1.561  0.00  0.00    -0.060 A 
ATOM     27  C   UNL     1      -0.683  -0.902  -2.498  0.00  0.00    +0.005 A 
ATOM     28  C   UNL     1      -1.576   0.018  -3.015  0.00  0.00    +0.049 A 
ATOM     29  C   UNL     1      -1.534   1.339  -2.595  0.00  0.00    +0.162 A 
ATOM     30  C   UNL     1      -0.594   1.734  -1.650  0.00  0.00    +0.162 A 
ATOM     31  C   UNL     1       0.300   0.806  -1.137  0.00  0.00    +0.051 A 
ATOM     32  O   UNL     1      -0.540   3.024  -1.218  0.00  0.00    -0.485 OA
ATOM     33  C   UNL     1      -1.202   4.002  -2.027  0.00  0.00    +0.270 C 
ATOM     34  C   UNL     1      -2.589   3.461  -2.397  0.00  0.00    +0.270 C 
ATOM     35  O   UNL     1      -2.413   2.236  -3.119  0.00  0.00    -0.485 OA
ENDBRANCH  25  26
ENDBRANCH  23  25
ENDBRANCH  21  23
ENDBRANCH   1  21
TORSDOF 6
