REMARK  Name = ZINC36610135
REMARK  12 active torsions:
REMARK  status: ('A' for Active; 'I' for Inactive)
REMARK    1  A    between atoms: C_1  and  C_2
REMARK    2  A    between atoms: C_2  and  C_3
REMARK    3  A    between atoms: C_3  and  C_4
REMARK    4  A    between atoms: C_3  and  C_6
REMARK    5  A    between atoms: C_4  and  C_5
REMARK    6  A    between atoms: C_6  and  C_8
REMARK    7  A    between atoms: C_6  and  N_17
REMARK    8  A    between atoms: N_10  and  C_11
REMARK    9  A    between atoms: N_17  and  C_18
REMARK   10  A    between atoms: C_24  and  C_26
REMARK   11  A    between atoms: C_27  and  O_33
REMARK   12  A    between atoms: C_31  and  O_32
REMARK                            x       y       z     vdW  Elec       q    Type
REMARK                         _______ _______ _______ _____ _____    ______ ____
ROOT
ATOM      1  N   UNL     1      -2.309   1.473   1.169  0.00  0.00    -0.255 N 
ATOM      2  C   UNL     1      -1.769   2.321   2.067  0.00  0.00    +0.259 C 
ATOM      3  O   UNL     1      -1.722   3.512   1.827  0.00  0.00    -0.269 OA
ENDROOT
BRANCH   1   4
ATOM      4  C   UNL     1      -2.656   1.933  -0.106  0.00  0.00    +0.037 A 
ATOM      5  C   UNL     1      -3.440   1.147  -0.940  0.00  0.00    +0.023 A 
ATOM      6  C   UNL     1      -3.781   1.604  -2.198  0.00  0.00    +0.002 A 
ATOM      7  C   UNL     1      -3.342   2.843  -2.627  0.00  0.00    +0.000 A 
ATOM      8  C   UNL     1      -2.561   3.628  -1.799  0.00  0.00    +0.002 A 
ATOM      9  C   UNL     1      -2.222   3.180  -0.538  0.00  0.00    +0.023 A 
ENDBRANCH   1   4
BRANCH   2  10
ATOM     10  C   UNL     1      -1.236   1.804   3.338  0.00  0.00    +0.120 A 
ATOM     11  C   UNL     1       0.148   1.657   3.516  0.00  0.00    +0.133 A 
ATOM     12  C   UNL     1       0.638   1.170   4.717  0.00  0.00    +0.046 A 
ATOM     13  C   UNL     1      -0.230   0.830   5.737  0.00  0.00    +0.007 A 
ATOM     14  C   UNL     1      -1.595   0.971   5.572  0.00  0.00    +0.046 A 
ATOM     15  C   UNL     1      -2.108   1.461   4.382  0.00  0.00    +0.133 A 
BRANCH  15  16
ATOM     16  O   UNL     1      -3.447   1.603   4.225  0.00  0.00    -0.506 OA
ATOM     17  H   UNL     1      -3.876   0.849   3.798  0.00  0.00    +0.292 HD
ENDBRANCH  15  16
BRANCH  11  18
ATOM     18  O   UNL     1       1.002   1.990   2.516  0.00  0.00    -0.506 OA
ATOM     19  H   UNL     1       1.297   2.910   2.541  0.00  0.00    +0.292 HD
ENDBRANCH  11  18
ENDBRANCH   2  10
BRANCH   1  20
ATOM     20  C   UNL     1      -2.533   0.071   1.527  0.00  0.00    +0.170 C 
BRANCH  20  21
ATOM     21  C   UNL     1      -3.932  -0.331   1.138  0.00  0.00    +0.234 C 
ATOM     22  O   UNL     1      -4.763   0.521   0.899  0.00  0.00    -0.274 OA
ATOM     23  N   UNL     1      -4.261  -1.635   1.055  0.00  0.00    -0.311 N 
ATOM     24  H   UNL     1      -3.616  -2.314   1.307  0.00  0.00    +0.149 HD
BRANCH  23  25
ATOM     25  C   UNL     1      -5.592  -2.026   0.584  0.00  0.00    +0.073 C 
ATOM     26  C   UNL     1      -6.574  -2.004   1.757  0.00  0.00    +0.022 C 
ATOM     27  C   UNL     1      -7.965  -2.413   1.265  0.00  0.00    +0.002 C 
ATOM     28  C   UNL     1      -7.903  -3.825   0.678  0.00  0.00    +0.000 C 
ATOM     29  C   UNL     1      -6.920  -3.847  -0.494  0.00  0.00    +0.002 C 
ATOM     30  C   UNL     1      -5.530  -3.438  -0.003  0.00  0.00    +0.022 C 
ENDBRANCH  23  25
ENDBRANCH  20  21
BRANCH  20  31
ATOM     31  C   UNL     1      -1.525  -0.812   0.788  0.00  0.00    +0.018 C 
BRANCH  31  33
ATOM     32  C   UNL     1      -2.778  -1.409  -1.290  0.00  0.00    +0.004 C 
ATOM     33  C   UNL     1      -1.638  -0.564  -0.718  0.00  0.00    +0.002 C 
ENDBRANCH  31  33
BRANCH  31  34
ATOM     34  C   UNL     1      -0.109  -0.470   1.256  0.00  0.00    +0.002 C 
ATOM     35  C   UNL     1       0.074  -0.929   2.704  0.00  0.00    +0.004 C 
ENDBRANCH  31  34
ENDBRANCH  20  31
ENDBRANCH   1  20
TORSDOF 10
