REMARK  Name = ZINC50031930
REMARK  7 active torsions:
REMARK  status: ('A' for Active; 'I' for Inactive)
REMARK    1  A    between atoms: C_1  and  C_2
REMARK    2  A    between atoms: C_2  and  C_4
REMARK    3  A    between atoms: C_2  and  N_11
REMARK    4  A    between atoms: C_4  and  N_5
REMARK    5  A    between atoms: N_11  and  C_12
REMARK    6  A    between atoms: C_14  and  C_20
REMARK    7  A    between atoms: C_15  and  N_19
REMARK                            x       y       z     vdW  Elec       q    Type
REMARK                         _______ _______ _______ _____ _____    ______ ____
ROOT
ATOM      1  C   UNL     1       0.096  -0.628  -2.479  0.00  0.00    +0.064 A 
ATOM      2  C   UNL     1      -1.243  -0.305  -2.387  0.00  0.00    +0.042 A 
ATOM      3  C   UNL     1      -2.069  -0.427  -3.511  0.00  0.00    +0.086 A 
ATOM      4  C   UNL     1      -1.526  -0.877  -4.727  0.00  0.00    +0.042 A 
ATOM      5  C   UNL     1      -0.178  -1.198  -4.803  0.00  0.00    +0.063 A 
ATOM      6  C   UNL     1       0.630  -1.070  -3.690  0.00  0.00    +0.146 A 
ATOM      7  F   UNL     1       1.943  -1.379  -3.772  0.00  0.00    -0.203 F 
ENDROOT
BRANCH   4   8
ATOM      8  N   UNL     1      -2.337  -1.002  -5.849  0.00  0.00    -0.357 N 
ATOM      9  H   UNL     1      -3.258  -0.699  -5.818  0.00  0.00    +0.142 HD
ATOM     10  H   UNL     1      -1.982  -1.391  -6.663  0.00  0.00    +0.142 HD
ENDBRANCH   4   8
BRANCH   3  11
ATOM     11  C   UNL     1      -3.495  -0.086  -3.421  0.00  0.00    +0.388 C 
ATOM     12  O   UNL     1      -3.989   0.195  -2.337  0.00  0.00    -0.241 OA
ATOM     13  O   UNL     1      -4.188  -0.082  -4.429  0.00  0.00    -0.241 OA
ENDBRANCH   3  11
BRANCH   1  14
ATOM     14  N   UNL     1       0.923  -0.507  -1.354  0.00  0.00    -0.338 N 
ATOM     15  H   UNL     1       1.865  -0.730  -1.418  0.00  0.00    +0.146 HD
BRANCH  14  17
ATOM     16  C   UNL     1       0.354   1.486  -0.056  0.00  0.00    +0.029 C 
ATOM     17  C   UNL     1       0.365  -0.044  -0.081  0.00  0.00    +0.081 C 
BRANCH  17  18
ATOM     18  C   UNL     1       1.224  -0.566   1.073  0.00  0.00    +0.106 C 
BRANCH  18  19
ATOM     19  N   UNL     1       1.333  -2.028   0.978  0.00  0.00    -0.296 NA
ATOM     20  C   UNL     1       0.029  -2.669   1.203  0.00  0.00    +0.112 C 
ATOM     21  C   UNL     1       0.176  -4.184   1.037  0.00  0.00    +0.175 C 
ATOM     22  O   UNL     1       1.177  -4.662   1.940  0.00  0.00    -0.377 OA
ATOM     23  C   UNL     1       2.460  -4.059   1.749  0.00  0.00    +0.175 C 
ATOM     24  C   UNL     1       2.336  -2.543   1.922  0.00  0.00    +0.112 C 
ENDBRANCH  18  19
ENDBRANCH  17  18
ENDBRANCH  14  17
ENDBRANCH   1  14
TORSDOF 6
