REMARK  Name = ZINC35747193
REMARK  13 active torsions:
REMARK  status: ('A' for Active; 'I' for Inactive)
REMARK    1  A    between atoms: C_1  and  C_2
REMARK    2  A    between atoms: C_2  and  C_3
REMARK    3  A    between atoms: C_3  and  N_4
REMARK    4  A    between atoms: N_4  and  C_5
REMARK    5  A    between atoms: N_4  and  C_23
REMARK    6  A    between atoms: C_5  and  C_6
REMARK    7  A    between atoms: C_12  and  C_17
REMARK    8  A    between atoms: C_23  and  C_24
REMARK    9  A    between atoms: C_24  and  C_26
REMARK   10  A    between atoms: C_24  and  O_35
REMARK   11  A    between atoms: C_26  and  O_27
REMARK   12  A    between atoms: O_27  and  C_28
REMARK   13  A    between atoms: C_33  and  C_34
REMARK                            x       y       z     vdW  Elec       q    Type
REMARK                         _______ _______ _______ _____ _____    ______ ____
ROOT
ATOM      1  N   UNL     1       0.655  -1.905   1.074  0.00  0.00    +0.386 N 
ATOM      2  H   UNL     1      -0.341  -2.066   1.035  0.00  0.00    -0.081 HD
ENDROOT
BRANCH   1   3
ATOM      3  C   UNL     1       0.926  -0.473   0.887  0.00  0.00    -0.078 C 
BRANCH   3   5
ATOM      4  C   UNL     1       2.726   1.254   0.754  0.00  0.00    +0.002 C 
ATOM      5  C   UNL     1       2.420  -0.208   1.085  0.00  0.00    -0.022 C 
ENDBRANCH   3   5
ENDBRANCH   1   3
BRANCH   1   6
ATOM      6  C   UNL     1       1.318  -2.672   0.011  0.00  0.00    -0.003 C 
BRANCH   6   7
ATOM      7  C   UNL     1       0.685  -2.342  -1.316  0.00  0.00    +0.094 A 
ATOM      8  N   UNL     1       1.223  -2.847  -2.455  0.00  0.00    -0.312 N 
ATOM      9  H   UNL     1       2.008  -3.414  -2.400  0.00  0.00    +0.170 HD
ATOM     10  C   UNL     1       0.688  -2.578  -3.661  0.00  0.00    +0.260 A 
ATOM     11  O   UNL     1       1.183  -3.039  -4.675  0.00  0.00    -0.267 OA
ATOM     12  C   UNL     1      -0.470  -1.740  -3.734  0.00  0.00    +0.080 A 
ATOM     13  C   UNL     1      -1.224  -1.308  -4.905  0.00  0.00    +0.004 A 
ATOM     14  C   UNL     1      -2.301  -0.506  -4.726  0.00  0.00    +0.056 A 
ATOM     15  S   UNL     1      -2.363  -0.284  -2.959  0.00  0.00    -0.076 S 
ATOM     16  C   UNL     1      -0.956  -1.264  -2.505  0.00  0.00    +0.116 A 
ATOM     17  N   UNL     1      -0.375  -1.580  -1.350  0.00  0.00    -0.229 NA
BRANCH  13  18
ATOM     18  C   UNL     1      -0.819  -1.738  -6.264  0.00  0.00    -0.017 A 
ATOM     19  C   UNL     1       0.506  -1.602  -6.676  0.00  0.00    +0.008 A 
ATOM     20  C   UNL     1       0.877  -2.004  -7.942  0.00  0.00    +0.001 A 
ATOM     21  C   UNL     1      -0.063  -2.542  -8.803  0.00  0.00    +0.000 A 
ATOM     22  C   UNL     1      -1.379  -2.679  -8.401  0.00  0.00    +0.001 A 
ATOM     23  C   UNL     1      -1.761  -2.285  -7.135  0.00  0.00    +0.008 A 
ENDBRANCH  13  18
ENDBRANCH   6   7
ENDBRANCH   1   6
BRANCH   1  24
ATOM     24  C   UNL     1       1.169  -2.334   2.382  0.00  0.00    -0.043 C 
BRANCH  24  25
ATOM     25  C   UNL     1       0.357  -1.665   3.493  0.00  0.00    +0.135 C 
BRANCH  25  26
ATOM     26  O   UNL     1       0.597  -0.256   3.476  0.00  0.00    -0.390 OA
ATOM     27  H   UNL     1       1.523  -0.013   3.613  0.00  0.00    +0.210 HD
ENDBRANCH  25  26
BRANCH  25  28
ATOM     28  C   UNL     1       0.779  -2.238   4.848  0.00  0.00    +0.258 C 
BRANCH  28  29
ATOM     29  O   UNL     1      -0.057  -1.700   5.874  0.00  0.00    -0.489 OA
BRANCH  29  30
ATOM     30  C   UNL     1       0.186  -2.109   7.146  0.00  0.00    +0.124 A 
ATOM     31  C   UNL     1       1.213  -3.007   7.403  0.00  0.00    +0.046 A 
ATOM     32  C   UNL     1       1.458  -3.421   8.698  0.00  0.00    +0.004 A 
ATOM     33  C   UNL     1       0.682  -2.943   9.737  0.00  0.00    +0.000 A 
ATOM     34  C   UNL     1      -0.342  -2.049   9.484  0.00  0.00    +0.007 A 
ATOM     35  C   UNL     1      -0.588  -1.627   8.192  0.00  0.00    -0.009 A 
ATOM     36  C   UNL     1      -1.700  -0.647   7.917  0.00  0.00    +0.047 C 
ENDBRANCH  29  30
ENDBRANCH  28  29
ENDBRANCH  25  28
ENDBRANCH  24  25
ENDBRANCH   1  24
TORSDOF 11
