REMARK  Name = ZINC63182567
REMARK  13 active torsions:
REMARK  status: ('A' for Active; 'I' for Inactive)
REMARK    1  A    between atoms: C_1  and  C_2
REMARK    2  A    between atoms: C_2  and  C_3
REMARK    3  A    between atoms: C_2  and  C_4
REMARK    4  A    between atoms: C_2  and  C_5
REMARK    5  A    between atoms: C_7  and  C_16
REMARK    6  A    between atoms: C_9  and  C_12
REMARK    7  A    between atoms: C_10  and  O_11
REMARK    8  A    between atoms: C_12  and  C_13
REMARK    9  A    between atoms: C_12  and  C_14
REMARK   10  A    between atoms: C_12  and  C_15
REMARK   11  A    between atoms: C_16  and  C_18
REMARK   12  A    between atoms: C_18  and  S_19
REMARK   13  A    between atoms: S_19  and  C_20
REMARK                            x       y       z     vdW  Elec       q    Type
REMARK                         _______ _______ _______ _____ _____    ______ ____
ROOT
ATOM      1  C   UNL     1       0.707  -0.490  -1.238  0.00  0.00    +0.000 A 
ATOM      2  C   UNL     1       1.212   0.414  -2.137  0.00  0.00    +0.019 A 
ATOM      3  C   UNL     1       1.868  -0.039  -3.288  0.00  0.00    +0.019 A 
ATOM      4  C   UNL     1       2.004  -1.414  -3.515  0.00  0.00    +0.019 A 
ATOM      5  C   UNL     1       1.496  -2.310  -2.610  0.00  0.00    +0.000 A 
ATOM      6  C   UNL     1       0.850  -1.855  -1.466  0.00  0.00    +0.124 A 
ENDROOT
BRANCH   1   8
ATOM      7  C   UNL     1      -0.019   1.526   0.010  0.00  0.00    +0.015 C 
ATOM      8  C   UNL     1       0.002  -0.004   0.002  0.00  0.00    -0.009 C 
ATOM      9  C   UNL     1       0.742  -0.511   1.242  0.00  0.00    +0.015 C 
ATOM     10  C   UNL     1      -1.433  -0.534   0.013  0.00  0.00    +0.015 C 
ENDBRANCH   1   8
BRANCH   5  11
ATOM     11  C   UNL     1       1.642  -3.790  -2.853  0.00  0.00    -0.009 C 
ATOM     12  C   UNL     1       2.389  -4.019  -4.168  0.00  0.00    +0.015 C 
ATOM     13  C   UNL     1       2.429  -4.420  -1.703  0.00  0.00    +0.015 C 
ATOM     14  C   UNL     1       0.256  -4.433  -2.935  0.00  0.00    +0.015 C 
ENDBRANCH   5  11
BRANCH   6  15
ATOM     15  O   UNL     1       0.354  -2.745  -0.570  0.00  0.00    -0.506 OA
ATOM     16  H   UNL     1      -0.559  -3.011  -0.745  0.00  0.00    +0.292 HD
ENDBRANCH   6  15
BRANCH   3  17
ATOM     17  C   UNL     1       2.410   0.925  -4.255  0.00  0.00    +0.173 C 
ATOM     18  O   UNL     1       2.291   2.115  -4.056  0.00  0.00    -0.291 OA
BRANCH  17  19
ATOM     19  C   UNL     1       3.115   0.434  -5.493  0.00  0.00    +0.152 C 
BRANCH  19  20
ATOM     20  S   UNL     1       3.665   1.855  -6.478  0.00  0.00    -0.107 S 
BRANCH  20  21
ATOM     21  C   UNL     1       4.483   1.104  -7.913  0.00  0.00    +0.236 C 
ATOM     22  N   UNL     1       3.548   0.220  -8.620  0.00  0.00    -0.355 N 
ATOM     23  C   UNL     1       4.050  -0.980  -8.595  0.00  0.00    +0.061 A 
ATOM     24  C   UNL     1       3.584  -2.269  -9.127  0.00  0.00    +0.029 A 
ATOM     25  C   UNL     1       4.333  -3.374  -8.944  0.00  0.00    +0.022 A 
ATOM     26  C   UNL     1       5.561  -3.352  -8.256  0.00  0.00    +0.043 A 
ATOM     27  C   UNL     1       6.079  -2.223  -7.729  0.00  0.00    +0.047 A 
ATOM     28  C   UNL     1       5.348  -0.957  -7.868  0.00  0.00    +0.062 A 
ATOM     29  N   UNL     1       5.600   0.259  -7.471  0.00  0.00    -0.355 N 
ATOM     30 CL   UNL     1       6.444  -4.837  -8.079  0.00  0.00    -0.083 Cl
ATOM     31  H   UNL     1       2.710   0.483  -9.031  0.00  0.00    +0.162 HD
ATOM     32  H   UNL     1       6.380   0.552  -6.975  0.00  0.00    +0.162 HD
ENDBRANCH  20  21
ENDBRANCH  19  20
ENDBRANCH  17  19
ENDBRANCH   3  17
TORSDOF 7
