REMARK  Name = ZINC64087671
REMARK  9 active torsions:
REMARK  status: ('A' for Active; 'I' for Inactive)
REMARK    1  A    between atoms: C_7  and  C_10
REMARK    2  A    between atoms: C_10  and  C_11
REMARK    3  A    between atoms: C_11  and  C_13
REMARK    4  A    between atoms: C_11  and  N_32
REMARK    5  A    between atoms: N_15  and  C_16
REMARK    6  A    between atoms: C_20  and  O_22
REMARK    7  A    between atoms: O_22  and  C_23
REMARK    8  A    between atoms: C_23  and  C_24
REMARK    9  A    between atoms: C_28  and  C_30
REMARK                            x       y       z     vdW  Elec       q    Type
REMARK                         _______ _______ _______ _____ _____    ______ ____
ROOT
ATOM      1  C   UNL     1      -0.582  -4.764  -1.303  0.00  0.00    +0.238 C 
ATOM      2  O   UNL     1      -0.250  -5.928  -1.223  0.00  0.00    -0.273 OA
ATOM      3  N   UNL     1      -1.887  -4.441  -1.394  0.00  0.00    -0.284 N 
ATOM      4  H   UNL     1      -2.158  -3.510  -1.381  0.00  0.00    +0.155 HD
ENDROOT
BRANCH   3   5
ATOM      5  C   UNL     1      -2.851  -5.449  -1.508  0.00  0.00    +0.037 A 
ATOM      6  C   UNL     1      -4.109  -5.276  -0.943  0.00  0.00    +0.023 A 
ATOM      7  C   UNL     1      -5.060  -6.270  -1.056  0.00  0.00    +0.005 A 
ATOM      8  C   UNL     1      -4.764  -7.440  -1.730  0.00  0.00    +0.046 A 
ATOM      9  C   UNL     1      -3.510  -7.619  -2.296  0.00  0.00    +0.123 A 
ATOM     10  C   UNL     1      -2.555  -6.620  -2.191  0.00  0.00    +0.069 A 
BRANCH   9  11
ATOM     11  O   UNL     1      -3.221  -8.770  -2.958  0.00  0.00    -0.487 OA
BRANCH  11  12
ATOM     12  C   UNL     1      -4.255  -9.753  -3.033  0.00  0.00    +0.264 C 
BRANCH  12  13
ATOM     13  C   UNL     1      -3.755 -10.951  -3.798  0.00  0.00    -0.009 A 
ATOM     14  C   UNL     1      -3.912 -11.007  -5.172  0.00  0.00    +0.007 A 
ATOM     15  C   UNL     1      -3.456 -12.103  -5.882  0.00  0.00    +0.002 A 
ATOM     16  C   UNL     1      -2.840 -13.148  -5.225  0.00  0.00    +0.019 A 
ATOM     17  C   UNL     1      -2.678 -13.097  -3.839  0.00  0.00    +0.052 A 
ATOM     18  C   UNL     1      -3.136 -11.986  -3.129  0.00  0.00    +0.025 A 
BRANCH  17  19
ATOM     19  C   UNL     1      -2.039 -14.178  -3.150  0.00  0.00    +0.099 C 
ATOM     20  N   UNL     1      -1.533 -15.036  -2.603  0.00  0.00    -0.191 NA
ENDBRANCH  17  19
ENDBRANCH  12  13
ENDBRANCH  11  12
ENDBRANCH   9  11
ENDBRANCH   3   5
BRANCH   1  21
ATOM     21  C   UNL     1       0.464  -3.680  -1.300  0.00  0.00    +0.165 C 
BRANCH  21  22
ATOM     22  N   UNL     1       1.761  -4.252  -1.669  0.00  0.00    -0.288 N 
ATOM     23  C   UNL     1       2.305  -5.231  -0.919  0.00  0.00    +0.298 C 
ATOM     24  O   UNL     1       1.718  -5.639   0.065  0.00  0.00    -0.253 OA
ATOM     25  N   UNL     1       3.498  -5.757  -1.259  0.00  0.00    -0.313 N 
ATOM     26  H   UNL     1       2.229  -3.926  -2.454  0.00  0.00    +0.151 HD
ATOM     27  H   UNL     1       3.966  -5.431  -2.044  0.00  0.00    +0.146 HD
ATOM     28  H   UNL     1       3.889  -6.462  -0.719  0.00  0.00    +0.146 HD
ENDBRANCH  21  22
BRANCH  21  29
ATOM     29  C   UNL     1       0.558  -3.065   0.098  0.00  0.00    +0.065 C 
BRANCH  29  36
ATOM     30  C   UNL     1      -0.070   1.451  -0.412  0.00  0.00    +0.001 A 
ATOM     31  C   UNL     1       1.119   2.192  -0.375  0.00  0.00    +0.002 A 
ATOM     32  C   UNL     1       2.329   1.620  -0.203  0.00  0.00    +0.026 A 
ATOM     33  C   UNL     1       2.443   0.210  -0.052  0.00  0.00    +0.043 A 
ATOM     34  N   UNL     1       3.483  -0.568   0.123  0.00  0.00    -0.380 N 
ATOM     35  C   UNL     1       3.018  -1.956   0.218  0.00  0.00    +0.144 C 
ATOM     36  C   UNL     1       1.514  -1.901   0.072  0.00  0.00    -0.039 C 
ATOM     37  C   UNL     1       1.201  -0.595  -0.087  0.00  0.00    -0.001 A 
ATOM     38  C   UNL     1      -0.075   0.106  -0.277  0.00  0.00    +0.010 A 
ATOM     39  H   UNL     1       4.406  -0.275   0.180  0.00  0.00    +0.160 HD
ENDBRANCH  29  36
ENDBRANCH  21  29
ENDBRANCH   1  21
TORSDOF 9
