REMARK  Name = ZINC55060553
REMARK  5 active torsions:
REMARK  status: ('A' for Active; 'I' for Inactive)
REMARK    1  A    between atoms: C_1  and  C_2
REMARK    2  A    between atoms: C_5  and  C_7
REMARK    3  A    between atoms: C_7  and  N_8
REMARK    4  A    between atoms: C_14  and  C_16
REMARK    5  A    between atoms: C_16  and  C_17
REMARK                            x       y       z     vdW  Elec       q    Type
REMARK                         _______ _______ _______ _____ _____    ______ ____
ROOT
ATOM      1  N   UNL     1       3.638  -4.434  -0.705  0.00  0.00    -0.282 NA
ATOM      2  C   UNL     1       4.242  -3.126  -1.007  0.00  0.00    +0.104 C 
ATOM      3  C   UNL     1       3.230  -2.029  -0.671  0.00  0.00    +0.119 C 
ATOM      4  N   UNL     1       1.942  -2.330  -1.289  0.00  0.00    -0.313 N 
ATOM      5  C   UNL     1       1.612  -3.551  -1.723  0.00  0.00    +0.231 C 
ATOM      6  O   UNL     1       0.508  -3.720  -2.196  0.00  0.00    -0.274 OA
ATOM      7  C   UNL     1       2.551  -4.721  -1.651  0.00  0.00    +0.152 C 
ATOM      8  H   UNL     1       1.297  -1.613  -1.388  0.00  0.00    +0.149 HD
ENDROOT
BRANCH   1   9
ATOM      9  C   UNL     1       4.650  -5.499  -0.727  0.00  0.00    +0.159 C 
BRANCH   9  14
ATOM     10  C   UNL     1       8.458  -4.140   2.288  0.00  0.00    +0.086 C 
ATOM     11  C   UNL     1       7.189  -4.788   1.799  0.00  0.00    +0.102 A 
ATOM     12  C   UNL     1       6.385  -5.589   2.523  0.00  0.00    +0.044 A 
ATOM     13  C   UNL     1       5.318  -5.970   1.678  0.00  0.00    +0.046 A 
ATOM     14  C   UNL     1       5.532  -5.379   0.488  0.00  0.00    +0.119 A 
ATOM     15  O   UNL     1       6.664  -4.660   0.570  0.00  0.00    -0.464 OA
ENDBRANCH   9  14
ENDBRANCH   1   9
BRANCH   7  16
ATOM     16  C   UNL     1       1.784  -5.960  -1.182  0.00  0.00    +0.124 C 
BRANCH  16  17
ATOM     17  C   UNL     1       1.265  -5.731   0.214  0.00  0.00    +0.218 C 
ATOM     18  O   UNL     1       1.567  -4.722   0.815  0.00  0.00    -0.276 OA
ATOM     19  N   UNL     1       0.465  -6.647   0.794  0.00  0.00    -0.298 N 
ATOM     20  C   UNL     1       0.096  -7.877   0.080  0.00  0.00    +0.126 C 
ATOM     21  C   UNL     1       0.483  -9.082   0.946  0.00  0.00    +0.127 C 
ATOM     22  N   UNL     1      -0.035  -8.870   2.304  0.00  0.00    -0.297 N 
ATOM     23  C   UNL     1       0.334  -7.640   3.019  0.00  0.00    +0.127 C 
ATOM     24  C   UNL     1      -0.049  -6.437   2.155  0.00  0.00    +0.126 C 
ATOM     25  C   UNL     1      -0.857  -9.811   2.900  0.00  0.00    +0.218 A 
ATOM     26  N   UNL     1      -1.168 -10.912   2.233  0.00  0.00    -0.223 NA
ATOM     27  C   UNL     1      -1.950 -11.832   2.774  0.00  0.00    +0.116 A 
ATOM     28  C   UNL     1      -2.445 -11.632   4.053  0.00  0.00    +0.039 A 
ATOM     29  C   UNL     1      -2.099 -10.469   4.723  0.00  0.00    +0.116 A 
ATOM     30  N   UNL     1      -1.308  -9.592   4.126  0.00  0.00    -0.223 NA
ENDBRANCH  16  17
ENDBRANCH   7  16
TORSDOF 4
