REMARK  Name = ZINC33422100
REMARK  16 active torsions:
REMARK  status: ('A' for Active; 'I' for Inactive)
REMARK    1  A    between atoms: C_1  and  C_2
REMARK    2  A    between atoms: C_2  and  N_3
REMARK    3  A    between atoms: N_3  and  C_4
REMARK    4  A    between atoms: N_3  and  C_6
REMARK    5  A    between atoms: C_4  and  C_5
REMARK    6  A    between atoms: C_6  and  C_7
REMARK    7  A    between atoms: C_7  and  C_8
REMARK    8  A    between atoms: C_8  and  C_9
REMARK    9  A    between atoms: C_9  and  C_11
REMARK   10  A    between atoms: C_9  and  N_12
REMARK   11  A    between atoms: C_21  and  C_23
REMARK   12  A    between atoms: C_24  and  C_25
REMARK   13  A    between atoms: C_27  and  O_34
REMARK   14  A    between atoms: C_28  and  O_32
REMARK   15  A    between atoms: O_32  and  C_33
REMARK   16  A    between atoms: O_34  and  C_35
REMARK                            x       y       z     vdW  Elec       q    Type
REMARK                         _______ _______ _______ _____ _____    ______ ____
ROOT
ATOM      1  N   UNL     1       1.359   1.631  -0.008  0.00  0.00    -0.326 N 
ATOM      2  C   UNL     1       2.364   0.969   0.664  0.00  0.00    +0.131 A 
ATOM      3  C   UNL     1       3.693   1.464   0.657  0.00  0.00    +0.040 A 
ATOM      4  C   UNL     1       4.042   2.635  -0.024  0.00  0.00    +0.015 A 
ATOM      5  C   UNL     1       5.336   3.068   0.002  0.00  0.00    +0.021 A 
ATOM      6  C   UNL     1       6.314   2.360   0.697  0.00  0.00    +0.043 A 
ATOM      7  C   UNL     1       6.003   1.220   1.381  0.00  0.00    +0.048 A 
ATOM      8  C   UNL     1       4.684   0.745   1.371  0.00  0.00    +0.078 A 
ATOM      9  N   UNL     1       4.332  -0.377   2.012  0.00  0.00    -0.228 NA
ATOM     10  C   UNL     1       3.078  -0.800   1.983  0.00  0.00    +0.155 A 
ATOM     11  N   UNL     1       2.113  -0.149   1.327  0.00  0.00    -0.213 NA
ATOM     12 CL   UNL     1       7.948   2.943   0.706  0.00  0.00    -0.083 Cl
ATOM     13  H   UNL     1       1.583   2.559  -0.555  0.00  0.00    +0.148 HD
ENDROOT
BRANCH   1  14
ATOM     14  C   UNL     1      -0.006   1.100   0.006  0.00  0.00    +0.069 C 
ATOM     15  C   UNL     1      -0.729   1.585   1.264  0.00  0.00    +0.028 C 
BRANCH  14  16
ATOM     16  C   UNL     1      -0.756   1.590  -1.234  0.00  0.00    +0.020 C 
BRANCH  16  17
ATOM     17  C   UNL     1      -0.106   1.003  -2.489  0.00  0.00    -0.017 C 
BRANCH  17  18
ATOM     18  C   UNL     1      -0.857   1.492  -3.729  0.00  0.00    -0.079 C 
BRANCH  18  19
ATOM     19  N   UNL     1      -0.161   1.030  -4.937  0.00  0.00    +0.379 N 
ATOM     20  H   UNL     1       0.919   1.162  -4.777  0.00  0.00    -0.082 HD
BRANCH  19  22
ATOM     21  C   UNL     1       0.518  -0.901  -6.282  0.00  0.00    -0.017 C 
ATOM     22  C   UNL     1      -0.410  -0.398  -5.174  0.00  0.00    -0.082 C 
ENDBRANCH  19  22
BRANCH  19  23
ATOM     23  C   UNL     1      -0.545   1.832  -6.106  0.00  0.00    -0.082 C 
ATOM     24  C   UNL     1       0.151   3.193  -6.042  0.00  0.00    -0.017 C 
ENDBRANCH  19  23
ENDBRANCH  18  19
ENDBRANCH  17  18
ENDBRANCH  16  17
ENDBRANCH  14  16
ENDBRANCH   1  14
BRANCH  10  25
ATOM     25  C   UNL     1       2.732  -2.036   2.701  0.00  0.00    +0.049 C 
ATOM     26  C   UNL     1       3.683  -2.713   3.369  0.00  0.00    +0.013 C 
BRANCH  26  27
ATOM     27  C   UNL     1       3.338  -3.951   4.088  0.00  0.00    -0.003 A 
ATOM     28  C   UNL     1       2.021  -4.424   4.077  0.00  0.00    +0.058 A 
ATOM     29  C   UNL     1       1.703  -5.586   4.753  0.00  0.00    +0.162 A 
ATOM     30  C   UNL     1       2.692  -6.284   5.445  0.00  0.00    +0.163 A 
ATOM     31  C   UNL     1       3.997  -5.816   5.457  0.00  0.00    +0.070 A 
ATOM     32  C   UNL     1       4.326  -4.660   4.780  0.00  0.00    +0.052 A 
ATOM     33 CL   UNL     1       5.963  -4.081   4.791  0.00  0.00    -0.083 Cl
BRANCH  30  34
ATOM     34  O   UNL     1       2.375  -7.427   6.109  0.00  0.00    -0.491 OA
ATOM     35  C   UNL     1       3.436  -8.092   6.797  0.00  0.00    +0.277 C 
ENDBRANCH  30  34
BRANCH  29  36
ATOM     36  O   UNL     1       0.424  -6.048   4.744  0.00  0.00    -0.491 OA
ATOM     37  C   UNL     1      -0.538  -5.283   4.016  0.00  0.00    +0.277 C 
ENDBRANCH  29  36
ENDBRANCH  26  27
ENDBRANCH  10  25
TORSDOF 11
