REMARK  Name = ZINC39570388
REMARK  15 active torsions:
REMARK  status: ('A' for Active; 'I' for Inactive)
REMARK    1  A    between atoms: C_1  and  C_2
REMARK    2  A    between atoms: C_2  and  O_3
REMARK    3  A    between atoms: O_3  and  C_4
REMARK    4  A    between atoms: C_7  and  C_13
REMARK    5  A    between atoms: C_9  and  O_10
REMARK    6  A    between atoms: O_10  and  C_11
REMARK    7  A    between atoms: C_11  and  C_12
REMARK    8  A    between atoms: C_13  and  C_15
REMARK    9  A    between atoms: C_13  and  N_16
REMARK   10  A    between atoms: C_17  and  C_19
REMARK   11  A    between atoms: C_19  and  N_20
REMARK   12  A    between atoms: C_26  and  C_29
REMARK   13  A    between atoms: C_29  and  C_30
REMARK   14  A    between atoms: C_29  and  C_31
REMARK   15  A    between atoms: C_29  and  C_32
REMARK                            x       y       z     vdW  Elec       q    Type
REMARK                         _______ _______ _______ _____ _____    ______ ____
ROOT
ATOM      1  N   UNL     1       1.397  -6.668  -0.550  0.00  0.00    -0.307 N 
ATOM      2  C   UNL     1       2.026  -7.860  -0.503  0.00  0.00    +0.231 C 
ATOM      3  O   UNL     1       2.352  -8.415  -1.530  0.00  0.00    -0.274 OA
ATOM      4  H   UNL     1       1.136  -6.224   0.272  0.00  0.00    +0.149 HD
ENDROOT
BRANCH   1   5
ATOM      5  C   UNL     1       1.107  -6.044  -1.844  0.00  0.00    +0.100 C 
ATOM      6  C   UNL     1      -0.210  -6.596  -2.392  0.00  0.00    +0.033 C 
BRANCH   5  10
ATOM      7  C   UNL     1       0.777  -1.811  -1.336  0.00  0.00    +0.162 A 
ATOM      8  C   UNL     1       0.243  -2.669  -0.388  0.00  0.00    +0.050 A 
ATOM      9  C   UNL     1       0.352  -4.037  -0.555  0.00  0.00    +0.009 A 
ATOM     10  C   UNL     1       0.992  -4.552  -1.667  0.00  0.00    -0.024 A 
ATOM     11  C   UNL     1       1.526  -3.702  -2.616  0.00  0.00    +0.055 A 
ATOM     12  C   UNL     1       1.416  -2.330  -2.458  0.00  0.00    +0.162 A 
BRANCH   7  13
ATOM     13  O   UNL     1       0.671  -0.465  -1.174  0.00  0.00    -0.489 OA
BRANCH  13  15
ATOM     14  C   UNL     1      -0.019   1.526   0.010  0.00  0.00    +0.048 C 
ATOM     15  C   UNL     1       0.002  -0.004   0.002  0.00  0.00    +0.226 C 
ENDBRANCH  13  15
ENDBRANCH   7  13
BRANCH  12  16
ATOM     16  O   UNL     1       1.936  -1.492  -3.394  0.00  0.00    -0.489 OA
BRANCH  16  17
ATOM     17  C   UNL     1       2.578  -2.095  -4.520  0.00  0.00    +0.226 C 
ATOM     18  C   UNL     1       3.096  -1.002  -5.457  0.00  0.00    +0.048 C 
ENDBRANCH  16  17
ENDBRANCH  12  16
ENDBRANCH   5  10
ENDBRANCH   1   5
BRANCH   2  19
ATOM     19  C   UNL     1       2.324  -8.502   0.828  0.00  0.00    +0.213 C 
BRANCH  19  20
ATOM     20  N   UNL     1       3.007  -9.780   0.611  0.00  0.00    -0.215 N 
ATOM     21  C   UNL     1       2.374 -10.962   0.463  0.00  0.00    +0.247 C 
ATOM     22  O   UNL     1       1.178 -11.162   0.483  0.00  0.00    -0.273 OA
ATOM     23  C   UNL     1       3.470 -11.984   0.267  0.00  0.00    +0.113 C 
ATOM     24  C   UNL     1       3.333 -12.655  -1.096  0.00  0.00    +0.035 C 
ATOM     25  C   UNL     1       2.016 -13.434  -1.152  0.00  0.00    +0.006 C 
ATOM     26  C   UNL     1       2.002 -14.488  -0.042  0.00  0.00    -0.005 C 
ATOM     27  C   UNL     1       2.119 -13.799   1.319  0.00  0.00    +0.006 C 
ATOM     28  C   UNL     1       3.436 -13.021   1.384  0.00  0.00    +0.035 C 
ATOM     29  N   UNL     1       4.708 -11.197   0.331  0.00  0.00    -0.285 N 
ATOM     30  C   UNL     1       4.336  -9.918   0.530  0.00  0.00    +0.310 C 
ATOM     31  O   UNL     1       5.119  -8.994   0.629  0.00  0.00    -0.252 OA
ATOM     32  H   UNL     1       5.614 -11.532   0.244  0.00  0.00    +0.151 HD
BRANCH  26  33
ATOM     33  C   UNL     1       0.691 -15.275  -0.103  0.00  0.00    -0.035 C 
ATOM     34  C   UNL     1       0.574 -15.965  -1.464  0.00  0.00    +0.011 C 
ATOM     35  C   UNL     1       0.676 -16.328   1.006  0.00  0.00    +0.011 C 
ATOM     36  C   UNL     1      -0.488 -14.318   0.086  0.00  0.00    +0.011 C 
ENDBRANCH  26  33
ENDBRANCH  19  20
ENDBRANCH   2  19
TORSDOF 9
