REMARK  Name = ZINC09111170
REMARK  2 active torsions:
REMARK  status: ('A' for Active; 'I' for Inactive)
REMARK    1  A    between atoms: C_1  and  C_2
REMARK    2  A    between atoms: C_8  and  N_10
REMARK                            x       y       z     vdW  Elec       q    Type
REMARK                         _______ _______ _______ _____ _____    ______ ____
ROOT
ATOM      1  N   UNL     1       0.054  -0.037   2.450  0.00  0.00    -0.265 NA
ATOM      2  C   UNL     1       0.728  -0.526   3.667  0.00  0.00    +0.193 C 
ATOM      3  N   UNL     1       0.040   0.071   4.822  0.00  0.00    -0.304 N 
ATOM      4  C   UNL     1      -1.336   0.135   4.800  0.00  0.00    +0.185 C 
ATOM      5  N   UNL     1      -1.998  -0.095   3.710  0.00  0.00    -0.240 NA
ATOM      6  C   UNL     1      -1.355  -0.448   2.449  0.00  0.00    +0.233 C 
ATOM      7  N   UNL     1      -2.020   0.446   5.955  0.00  0.00    -0.242 N 
ATOM      8  C   UNL     1      -3.399   0.513   5.945  0.00  0.00    +0.295 A 
ATOM      9  N   UNL     1      -4.152   0.293   4.899  0.00  0.00    -0.195 NA
ATOM     10  C   UNL     1      -5.455   0.446   5.259  0.00  0.00    +0.111 A 
ATOM     11  C   UNL     1      -6.665   0.338   4.571  0.00  0.00    +0.031 A 
ATOM     12  C   UNL     1      -7.851   0.560   5.235  0.00  0.00    +0.002 A 
ATOM     13  C   UNL     1      -7.850   0.891   6.582  0.00  0.00    +0.004 A 
ATOM     14  C   UNL     1      -6.661   1.002   7.274  0.00  0.00    +0.048 A 
ATOM     15  C   UNL     1      -5.459   0.781   6.622  0.00  0.00    +0.157 A 
ATOM     16  O   UNL     1      -4.163   0.807   7.011  0.00  0.00    -0.424 OA
ATOM     17  H   UNL     1       0.541   0.412   5.580  0.00  0.00    +0.150 HD
ATOM     18  H   UNL     1      -1.532   0.619   6.776  0.00  0.00    +0.159 HD
ENDROOT
BRANCH   1  25
ATOM     19  C   UNL     1      -0.019   1.526   0.010  0.00  0.00    +0.009 C 
ATOM     20  C   UNL     1       0.002  -0.004   0.002  0.00  0.00    +0.003 C 
ATOM     21  C   UNL     1       0.718  -0.497  -1.257  0.00  0.00    +0.005 C 
ATOM     22  C   UNL     1       2.154   0.032  -1.268  0.00  0.00    +0.000 C 
ATOM     23  C   UNL     1       2.894  -0.475  -0.028  0.00  0.00    +0.002 C 
ATOM     24  C   UNL     1       2.178   0.019   1.231  0.00  0.00    +0.019 C 
ATOM     25  C   UNL     1       0.742  -0.511   1.242  0.00  0.00    +0.063 C 
ENDBRANCH   1  25
TORSDOF 1
