REMARK  Name = ZINC00734213
REMARK  6 active torsions:
REMARK  status: ('A' for Active; 'I' for Inactive)
REMARK    1  A    between atoms: C_1  and  C_2
REMARK    2  A    between atoms: C_2  and  C_3
REMARK    3  A    between atoms: C_4  and  C_26
REMARK    4  A    between atoms: N_10  and  O_11
REMARK    5  A    between atoms: O_11  and  C_12
REMARK    6  A    between atoms: N_14  and  C_15
REMARK                            x       y       z     vdW  Elec       q    Type
REMARK                         _______ _______ _______ _____ _____    ______ ____
ROOT
ATOM      1  C   UNL     1      -4.200   0.610   0.367  0.00  0.00    -0.018 A 
ATOM      2  C   UNL     1      -4.295   0.731   1.709  0.00  0.00    +0.017 A 
ATOM      3  N   UNL     1      -3.077   1.100   2.210  0.00  0.00    -0.361 N 
ATOM      4  H   UNL     1      -2.885   1.252   3.148  0.00  0.00    +0.165 HD
ATOM      5  C   UNL     1      -2.181   1.222   1.209  0.00  0.00    +0.025 A 
ATOM      6  C   UNL     1      -2.826   0.930   0.032  0.00  0.00    +0.023 A 
ATOM      7  C   UNL     1      -2.133   0.971  -1.272  0.00  0.00    +0.090 C 
ATOM      8  N   UNL     1      -2.662   0.500  -2.356  0.00  0.00    -0.077 NA
ATOM      9  C   UNL     1      -0.751   1.607  -1.247  0.00  0.00    +0.060 C 
ATOM     10  C   UNL     1      -0.017   1.114   0.004  0.00  0.00    +0.012 C 
ATOM     11  C   UNL     1      -0.725   1.600   1.272  0.00  0.00    +0.054 C 
ATOM     12  C   UNL     1      -5.541   0.496   2.523  0.00  0.00    +0.063 C 
ENDROOT
BRANCH   1  14
ATOM     13  C   UNL     1      -5.311  -1.298  -0.760  0.00  0.00    +0.009 C 
ATOM     14  C   UNL     1      -5.299   0.222  -0.588  0.00  0.00    +0.034 C 
ENDBRANCH   1  14
BRANCH   8  15
ATOM     15  O   UNL     1      -2.050   0.557  -3.407  0.00  0.00    -0.299 OA
BRANCH  15  16
ATOM     16  C   UNL     1      -2.657   0.050  -4.496  0.00  0.00    +0.430 C 
ATOM     17  O   UNL     1      -3.766  -0.437  -4.402  0.00  0.00    -0.224 OA
ATOM     18  N   UNL     1      -2.034   0.082  -5.691  0.00  0.00    -0.249 N 
ATOM     19  H   UNL     1      -1.179   0.530  -5.780  0.00  0.00    +0.158 HD
BRANCH  18  20
ATOM     20  C   UNL     1      -2.623  -0.531  -6.804  0.00  0.00    +0.038 A 
ATOM     21  C   UNL     1      -4.003  -0.521  -6.954  0.00  0.00    +0.025 A 
ATOM     22  C   UNL     1      -4.582  -1.126  -8.053  0.00  0.00    +0.023 A 
ATOM     23  C   UNL     1      -3.787  -1.742  -9.003  0.00  0.00    +0.059 A 
ATOM     24  C   UNL     1      -2.410  -1.754  -8.856  0.00  0.00    +0.061 A 
ATOM     25  C   UNL     1      -1.826  -1.145  -7.761  0.00  0.00    +0.044 A 
ATOM     26 CL   UNL     1      -1.416  -2.527 -10.051  0.00  0.00    -0.082 Cl
ATOM     27 CL   UNL     1      -4.518  -2.502 -10.383  0.00  0.00    -0.082 Cl
ENDBRANCH  18  20
ENDBRANCH  15  16
ENDBRANCH   8  15
TORSDOF 4
