REMARK  Name = ZINC39960587
REMARK  10 active torsions:
REMARK  status: ('A' for Active; 'I' for Inactive)
REMARK    1  A    between atoms: C_1  and  C_2
REMARK    2  A    between atoms: C_2  and  C_3
REMARK    3  A    between atoms: C_3  and  O_4
REMARK    4  A    between atoms: O_4  and  C_5
REMARK    5  A    between atoms: C_10  and  C_11
REMARK    6  A    between atoms: C_13  and  C_33
REMARK    7  A    between atoms: C_14  and  C_32
REMARK    8  A    between atoms: C_21  and  C_22
REMARK    9  A    between atoms: C_33  and  O_35
REMARK   10  A    between atoms: O_35  and  C_36
REMARK                            x       y       z     vdW  Elec       q    Type
REMARK                         _______ _______ _______ _____ _____    ______ ____
ROOT
ATOM      1  C   UNL     1      -1.369  -4.646   0.214  0.00  0.00    +0.165 C 
ATOM      2  C   UNL     1      -1.207  -4.358  -1.261  0.00  0.00    +0.085 C 
ATOM      3  C   UNL     1      -1.841  -5.179  -2.149  0.00  0.00    +0.053 C 
ATOM      4  N   UNL     1      -2.576  -6.198  -1.720  0.00  0.00    -0.228 NA
ATOM      5  C   UNL     1      -2.762  -6.509  -0.464  0.00  0.00    +0.178 A 
ATOM      6  N   UNL     1      -2.216  -5.813   0.589  0.00  0.00    -0.275 N 
ATOM      7  C   UNL     1      -2.477  -6.225   1.837  0.00  0.00    +0.268 A 
ATOM      8  O   UNL     1      -2.017  -5.643   2.800  0.00  0.00    -0.266 OA
ATOM      9  C   UNL     1      -3.344  -7.410   2.003  0.00  0.00    +0.080 A 
ATOM     10  C   UNL     1      -3.765  -8.034   3.161  0.00  0.00    +0.026 C 
ATOM     11  S   UNL     1      -3.699  -7.816   0.303  0.00  0.00    -0.046 S 
ATOM     12  C   UNL     1      -1.705  -4.926  -3.628  0.00  0.00    +0.066 C 
ENDROOT
BRANCH  10  13
ATOM     13  C   UNL     1      -3.577  -7.413   4.397  0.00  0.00    -0.018 C 
ATOM     14  C   UNL     1      -4.052  -7.839   5.637  0.00  0.00    +0.003 A 
ATOM     15  C   UNL     1      -4.823  -8.954   6.032  0.00  0.00    +0.010 A 
ATOM     16  C   UNL     1      -5.146  -9.120   7.339  0.00  0.00    +0.001 A 
ATOM     17  C   UNL     1      -4.733  -8.210   8.318  0.00  0.00    +0.002 A 
ATOM     18  C   UNL     1      -3.992  -7.119   8.014  0.00  0.00    +0.026 A 
ATOM     19  C   UNL     1      -3.614  -6.877   6.664  0.00  0.00    +0.043 A 
ATOM     20  N   UNL     1      -2.911  -5.909   6.118  0.00  0.00    -0.380 N 
ATOM     21  C   UNL     1      -2.810  -6.138   4.674  0.00  0.00    +0.149 C 
ATOM     22  H   UNL     1      -2.518  -5.163   6.597  0.00  0.00    +0.160 HD
ENDBRANCH  10  13
BRANCH   1  28
ATOM     23  C   UNL     1      -3.319  -3.175   0.781  0.00  0.00    +0.126 A 
ATOM     24  C   UNL     1      -3.858  -2.048   1.385  0.00  0.00    +0.046 A 
ATOM     25  C   UNL     1      -3.035  -1.169   2.062  0.00  0.00    +0.004 A 
ATOM     26  C   UNL     1      -1.676  -1.412   2.139  0.00  0.00    +0.001 A 
ATOM     27  C   UNL     1      -1.137  -2.534   1.538  0.00  0.00    +0.009 A 
ATOM     28  C   UNL     1      -1.956  -3.419   0.864  0.00  0.00    +0.022 A 
BRANCH  23  29
ATOM     29  O   UNL     1      -4.127  -4.042   0.115  0.00  0.00    -0.492 OA
BRANCH  29  30
ATOM     30  C   UNL     1      -5.502  -3.676  -0.017  0.00  0.00    +0.229 C 
BRANCH  30  32
ATOM     31  C   UNL     1      -7.758  -4.469  -0.743  0.00  0.00    +0.007 C 
ATOM     32  C   UNL     1      -6.266  -4.807  -0.709  0.00  0.00    +0.038 C 
ENDBRANCH  30  32
ENDBRANCH  29  30
ENDBRANCH  23  29
ENDBRANCH   1  28
BRANCH   2  33
ATOM     33  C   UNL     1      -0.426  -3.275  -1.706  0.00  0.00    +0.339 C 
ATOM     34  O   UNL     1      -0.308  -3.059  -2.898  0.00  0.00    -0.245 OA
BRANCH  33  35
ATOM     35  O   UNL     1       0.192  -2.475  -0.810  0.00  0.00    -0.465 OA
ATOM     36  C   UNL     1       0.875  -1.331  -1.325  0.00  0.00    +0.280 C 
ENDBRANCH  33  35
ENDBRANCH   2  33
TORSDOF 7
