REMARK  Name = ZINC39864087
REMARK  5 active torsions:
REMARK  status: ('A' for Active; 'I' for Inactive)
REMARK    1  A    between atoms: C_1  and  C_2
REMARK    2  A    between atoms: C_2  and  C_23
REMARK    3  A    between atoms: N_6  and  C_17
REMARK    4  A    between atoms: N_8  and  C_9
REMARK    5  A    between atoms: C_26  and  N_29
REMARK                            x       y       z     vdW  Elec       q    Type
REMARK                         _______ _______ _______ _____ _____    ______ ____
ROOT
ATOM      1  C   UNL     1      -0.035   1.071  -0.240  0.00  0.00    +0.045 C 
ATOM      2  C   UNL     1      -0.298  -0.404  -0.081  0.00  0.00    -0.024 C 
ATOM      3  C   UNL     1      -0.300  -0.964   1.157  0.00  0.00    +0.081 C 
ATOM      4  C   UNL     1      -0.077  -0.331   2.469  0.00  0.00    +0.264 C 
ATOM      5  O   UNL     1       0.149   0.861   2.571  0.00  0.00    -0.269 OA
ATOM      6  N   UNL     1      -0.135  -1.115   3.532  0.00  0.00    -0.214 N 
ATOM      7  C   UNL     1      -0.392  -2.464   3.396  0.00  0.00    +0.173 C 
ATOM      8  N   UNL     1      -0.483  -3.378   4.335  0.00  0.00    -0.222 NA
ATOM      9  S   UNL     1      -0.579  -2.663   1.631  0.00  0.00    -0.048 S 
ENDROOT
BRANCH   8  10
ATOM     10  C   UNL     1      -0.606  -3.002   5.646  0.00  0.00    +0.103 A 
ATOM     11  C   UNL     1      -1.661  -2.177   6.054  0.00  0.00    +0.032 A 
ATOM     12  C   UNL     1      -1.739  -1.826   7.391  0.00  0.00    +0.022 A 
ATOM     13  C   UNL     1      -0.783  -2.296   8.272  0.00  0.00    +0.112 A 
ATOM     14  N   UNL     1       0.201  -3.072   7.861  0.00  0.00    -0.241 NA
ATOM     15  C   UNL     1       0.317  -3.440   6.600  0.00  0.00    +0.154 A 
ATOM     16 CL   UNL     1       1.629  -4.470   6.120  0.00  0.00    -0.060 Cl
ENDBRANCH   8  10
BRANCH   6  17
ATOM     17  C   UNL     1       0.068  -0.573   4.808  0.00  0.00    +0.043 A 
ATOM     18  C   UNL     1       1.208  -0.899   5.529  0.00  0.00    +0.024 A 
ATOM     19  C   UNL     1       1.406  -0.362   6.786  0.00  0.00    +0.002 A 
ATOM     20  C   UNL     1       0.469   0.500   7.327  0.00  0.00    +0.000 A 
ATOM     21  C   UNL     1      -0.668   0.827   6.610  0.00  0.00    +0.002 A 
ATOM     22  C   UNL     1      -0.869   0.297   5.351  0.00  0.00    +0.024 A 
ENDBRANCH   6  17
BRANCH   2  23
ATOM     23  C   UNL     1      -0.553  -1.236  -1.263  0.00  0.00    -0.021 A 
ATOM     24  C   UNL     1       0.346  -2.251  -1.615  0.00  0.00    +0.010 A 
ATOM     25  C   UNL     1       0.103  -3.026  -2.720  0.00  0.00    +0.023 A 
ATOM     26  C   UNL     1      -1.034  -2.805  -3.491  0.00  0.00    +0.025 A 
ATOM     27  C   UNL     1      -1.930  -1.797  -3.146  0.00  0.00    +0.023 A 
ATOM     28  C   UNL     1      -1.699  -1.021  -2.039  0.00  0.00    +0.010 A 
BRANCH  26  29
ATOM     29  N   UNL     1      -1.276  -3.595  -4.612  0.00  0.00    -0.358 N 
ATOM     30  H   UNL     1      -0.653  -4.297  -4.855  0.00  0.00    +0.142 HD
ATOM     31  H   UNL     1      -2.068  -3.442  -5.151  0.00  0.00    +0.142 HD
ENDBRANCH  26  29
ENDBRANCH   2  23
TORSDOF 4
