REMARK  Name = ZINC36612873
REMARK  13 active torsions:
REMARK  status: ('A' for Active; 'I' for Inactive)
REMARK    1  A    between atoms: C_1  and  C_2
REMARK    2  A    between atoms: C_2  and  O_3
REMARK    3  A    between atoms: O_3  and  C_4
REMARK    4  A    between atoms: C_4  and  C_6
REMARK    5  A    between atoms: C_7  and  C_22
REMARK    6  A    between atoms: C_12  and  C_14
REMARK    7  A    between atoms: C_17  and  O_20
REMARK    8  A    between atoms: O_20  and  C_21
REMARK    9  A    between atoms: C_22  and  S_23
REMARK   10  A    between atoms: S_23  and  C_24
REMARK   11  A    between atoms: C_25  and  C_34
REMARK   12  A    between atoms: C_26  and  C_33
REMARK   13  A    between atoms: C_28  and  C_30
REMARK                            x       y       z     vdW  Elec       q    Type
REMARK                         _______ _______ _______ _____ _____    ______ ____
ROOT
ATOM      1  C   UNL     1       1.330  -2.340  -2.530  0.00  0.00    +0.079 C 
ATOM      2  C   UNL     1       1.628  -3.654  -2.615  0.00  0.00    +0.034 C 
ATOM      3  N   UNL     1       2.352  -4.147  -3.663  0.00  0.00    -0.272 N 
ATOM      4  C   UNL     1       2.815  -3.390  -4.666  0.00  0.00    +0.304 C 
ATOM      5  O   UNL     1       3.451  -3.920  -5.556  0.00  0.00    -0.252 OA
ATOM      6  N   UNL     1       2.599  -2.061  -4.720  0.00  0.00    -0.288 N 
ATOM      7  C   UNL     1       1.822  -1.432  -3.639  0.00  0.00    +0.144 C 
ATOM      8  H   UNL     1       2.541  -5.098  -3.682  0.00  0.00    +0.156 HD
ATOM      9  H   UNL     1       2.945  -1.532  -5.456  0.00  0.00    +0.151 HD
ENDROOT
BRANCH   7  10
ATOM     10  C   UNL     1       2.682  -0.362  -3.017  0.00  0.00    -0.022 A 
ATOM     11  C   UNL     1       3.997  -0.638  -2.687  0.00  0.00    +0.009 A 
ATOM     12  C   UNL     1       4.787   0.340  -2.116  0.00  0.00    +0.046 A 
ATOM     13  C   UNL     1       4.261   1.601  -1.874  0.00  0.00    +0.120 A 
ATOM     14  C   UNL     1       2.942   1.876  -2.207  0.00  0.00    +0.046 A 
ATOM     15  C   UNL     1       2.158   0.895  -2.782  0.00  0.00    +0.009 A 
BRANCH  13  16
ATOM     16  O   UNL     1       5.037   2.565  -1.313  0.00  0.00    -0.495 OA
ATOM     17  C   UNL     1       4.429   3.840  -1.092  0.00  0.00    +0.277 C 
ENDBRANCH  13  16
ENDBRANCH   7  10
BRANCH   1  18
ATOM     18  C   UNL     1       0.580  -1.828  -1.445  0.00  0.00    +0.339 C 
ATOM     19  O   UNL     1      -0.605  -1.590  -1.584  0.00  0.00    -0.245 OA
BRANCH  18  20
ATOM     20  O   UNL     1       1.179  -1.605  -0.257  0.00  0.00    -0.462 OA
BRANCH  20  22
ATOM     21  C   UNL     1       1.207  -0.901   2.055  0.00  0.00    +0.048 C 
ATOM     22  C   UNL     1       0.360  -1.087   0.794  0.00  0.00    +0.229 C 
ENDBRANCH  20  22
ENDBRANCH  18  20
ENDBRANCH   1  18
BRANCH   2  23
ATOM     23  C   UNL     1       1.153  -4.593  -1.536  0.00  0.00    +0.127 C 
BRANCH  23  24
ATOM     24  S   UNL     1      -0.251  -5.562  -2.152  0.00  0.00    -0.099 S 
BRANCH  24  25
ATOM     25  C   UNL     1      -0.684  -6.596  -0.793  0.00  0.00    +0.115 A 
ATOM     26  C   UNL     1      -1.752  -7.504  -0.916  0.00  0.00    +0.086 A 
ATOM     27  C   UNL     1      -2.076  -8.315   0.177  0.00  0.00    -0.029 A 
ATOM     28  C   UNL     1      -1.330  -8.187   1.335  0.00  0.00    +0.033 A 
ATOM     29  C   UNL     1      -0.294  -7.271   1.381  0.00  0.00    +0.108 A 
ATOM     30  N   UNL     1      -0.000  -6.519   0.339  0.00  0.00    -0.238 NA
ATOM     31  C   UNL     1      -3.211  -9.303   0.095  0.00  0.00    +0.045 C 
BRANCH  29  32
ATOM     32  C   UNL     1       0.516  -7.134   2.644  0.00  0.00    +0.390 C 
ATOM     33  F   UNL     1       0.985  -5.821   2.758  0.00  0.00    -0.202 F 
ATOM     34  F   UNL     1      -0.286  -7.440   3.749  0.00  0.00    -0.202 F 
ENDBRANCH  29  32
BRANCH  26  35
ATOM     35  C   UNL     1      -2.492  -7.597  -2.139  0.00  0.00    +0.102 C 
ATOM     36  N   UNL     1      -3.080  -7.670  -3.108  0.00  0.00    -0.191 NA
ENDBRANCH  26  35
ENDBRANCH  24  25
ENDBRANCH  23  24
ENDBRANCH   2  23
TORSDOF 10
