REMARK  Name = ZINC44324678
REMARK  7 active torsions:
REMARK  status: ('A' for Active; 'I' for Inactive)
REMARK    1  A    between atoms: C_13  and  C_14
REMARK    2  A    between atoms: C_14  and  O_15
REMARK    3  A    between atoms: O_15  and  C_16
REMARK    4  A    between atoms: N_18  and  CA_19
REMARK    5  A    between atoms: CA_19  and  C_21
REMARK    6  A    between atoms: CA_19  and  C_34
REMARK    7  A    between atoms: C_21  and  C_22
REMARK                            x       y       z     vdW  Elec       q    Type
REMARK                         _______ _______ _______ _____ _____    ______ ____
ROOT
ATOM      1  C   UNL     1       6.379  -1.577  -2.289  0.00  0.00    +0.401 C 
ATOM      2  O   UNL     1       6.162  -0.826  -3.219  0.00  0.00    -0.226 OA
ATOM      3  N   UNL     1       7.473  -2.366  -2.301  0.00  0.00    -0.267 N 
ATOM      4  H   UNL     1       7.646  -2.965  -1.559  0.00  0.00    +0.153 HD
ENDROOT
BRANCH   1   5
ATOM      5  O   UNL     1       5.529  -1.622  -1.247  0.00  0.00    -0.449 OA
BRANCH   5   6
ATOM      6  C   UNL     1       4.391  -0.759  -1.300  0.00  0.00    +0.246 C 
BRANCH   6  19
ATOM      7  C   UNL     1      -0.017   1.375   0.010  0.00  0.00    +0.001 A 
ATOM      8  C   UNL     1       1.169   2.088   0.002  0.00  0.00    +0.000 A 
ATOM      9  C   UNL     1       2.380   1.420  -0.013  0.00  0.00    +0.005 A 
ATOM     10  C   UNL     1       2.408   0.042  -0.021  0.00  0.00    -0.029 A 
ATOM     11  C   UNL     1       1.221  -0.685  -0.013  0.00  0.00    -0.014 A 
ATOM     12  C   UNL     1       0.002  -0.004   0.002  0.00  0.00    +0.009 A 
ATOM     13  C   UNL     1       1.530  -2.136  -0.025  0.00  0.00    -0.014 A 
ATOM     14  C   UNL     1       0.694  -3.254  -0.023  0.00  0.00    +0.009 A 
ATOM     15  C   UNL     1       1.238  -4.521  -0.035  0.00  0.00    +0.001 A 
ATOM     16  C   UNL     1       2.611  -4.690  -0.050  0.00  0.00    +0.000 A 
ATOM     17  C   UNL     1       3.445  -3.587  -0.052  0.00  0.00    +0.005 A 
ATOM     18  C   UNL     1       2.910  -2.316  -0.040  0.00  0.00    -0.029 A 
ATOM     19  C   UNL     1       3.547  -0.948  -0.038  0.00  0.00    +0.088 C 
ENDBRANCH   6  19
ENDBRANCH   5   6
ENDBRANCH   1   5
BRANCH   3  20
ATOM     20  CA  UNL     1       8.398  -2.317  -3.436  0.00  0.00    +0.195 C 
BRANCH  20  21
ATOM     21  C   UNL     1       7.904  -3.232  -4.527  0.00  0.00    +0.376 C 
ATOM     22  O   UNL     1       6.874  -3.865  -4.371  0.00  0.00    -0.244 OA
ATOM     23  OXT UNL     1       8.534  -3.338  -5.565  0.00  0.00    -0.244 OA
ENDBRANCH  20  21
BRANCH  20  24
ATOM     24  C   UNL     1       9.787  -2.770  -2.980  0.00  0.00    +0.087 C 
BRANCH  24  25
ATOM     25  C   UNL     1      10.333  -1.786  -1.978  0.00  0.00    +0.027 A 
ATOM     26  C   UNL     1      10.093  -1.794  -0.651  0.00  0.00    +0.023 A 
ATOM     27  C   UNL     1      10.792  -0.707  -0.088  0.00  0.00    +0.020 A 
ATOM     28  C   UNL     1      11.434  -0.074  -1.091  0.00  0.00    +0.093 A 
ATOM     29  N   UNL     1      11.161  -0.735  -2.256  0.00  0.00    -0.305 N 
ATOM     30  C   UNL     1      11.646  -0.392  -3.521  0.00  0.00    +0.138 A 
ATOM     31  C   UNL     1      12.490   0.704  -3.661  0.00  0.00    +0.048 A 
ATOM     32  C   UNL     1      12.963   1.033  -4.919  0.00  0.00    +0.025 A 
ATOM     33  C   UNL     1      12.574   0.251  -5.999  0.00  0.00    +0.059 A 
ATOM     34  C   UNL     1      11.732  -0.825  -5.786  0.00  0.00    +0.133 A 
ATOM     35  N   UNL     1      11.302  -1.116  -4.573  0.00  0.00    -0.236 NA
ATOM     36 CL   UNL     1      13.139   0.621  -7.598  0.00  0.00    -0.082 Cl
ENDBRANCH  24  25
ENDBRANCH  20  24
ENDBRANCH   3  20
TORSDOF 7
