REMARK  Name = ZINC62500381
REMARK  7 active torsions:
REMARK  status: ('A' for Active; 'I' for Inactive)
REMARK    1  A    between atoms: C_1  and  C_2
REMARK    2  A    between atoms: N_6  and  C_8
REMARK    3  A    between atoms: C_8  and  C_9
REMARK    4  A    between atoms: C_9  and  C_10
REMARK    5  A    between atoms: C_9  and  N_11
REMARK    6  A    between atoms: C_17  and  C_20
REMARK    7  A    between atoms: N_22  and  C_23
REMARK                            x       y       z     vdW  Elec       q    Type
REMARK                         _______ _______ _______ _____ _____    ______ ____
ROOT
ATOM      1  N   UNL     1       1.250  -6.461   1.181  0.00  0.00    -0.298 N 
ATOM      2  C   UNL     1       2.013  -5.581   0.502  0.00  0.00    +0.302 C 
ATOM      3  O   UNL     1       2.149  -4.447   0.918  0.00  0.00    -0.253 OA
ATOM      4  N   UNL     1       2.626  -5.959  -0.637  0.00  0.00    -0.286 N 
ATOM      5  C   UNL     1       3.556  -5.052  -1.323  0.00  0.00    +0.110 C 
ATOM      6  C   UNL     1       3.114  -4.905  -2.783  0.00  0.00    +0.032 C 
ATOM      7  C   UNL     1       3.003  -6.292  -3.421  0.00  0.00    +0.078 C 
ATOM      8  C   UNL     1       1.948  -7.114  -2.677  0.00  0.00    +0.032 C 
ATOM      9  C   UNL     1       2.381  -7.288  -1.214  0.00  0.00    +0.110 C 
ATOM     10  H   UNL     1       1.083  -7.343   0.813  0.00  0.00    +0.150 HD
ENDROOT
BRANCH   7  11
ATOM     11  C   UNL     1       2.602  -6.149  -4.866  0.00  0.00    +0.216 C 
ATOM     12  O   UNL     1       2.422  -5.047  -5.340  0.00  0.00    -0.276 OA
ATOM     13  N   UNL     1       2.443  -7.246  -5.633  0.00  0.00    -0.312 N 
ATOM     14  H   UNL     1       2.587  -8.127  -5.254  0.00  0.00    +0.149 HD
BRANCH  13  15
ATOM     15  C   UNL     1       2.053  -7.107  -7.038  0.00  0.00    +0.073 C 
ATOM     16  C   UNL     1       0.530  -6.998  -7.136  0.00  0.00    +0.022 C 
ATOM     17  C   UNL     1       0.122  -6.853  -8.603  0.00  0.00    +0.002 C 
ATOM     18  C   UNL     1       0.597  -8.078  -9.388  0.00  0.00    +0.000 C 
ATOM     19  C   UNL     1       2.119  -8.188  -9.290  0.00  0.00    +0.002 C 
ATOM     20  C   UNL     1       2.527  -8.332  -7.822  0.00  0.00    +0.022 C 
ENDBRANCH  13  15
ENDBRANCH   7  11
BRANCH   1  21
ATOM     21  C   UNL     1       0.674  -6.085   2.474  0.00  0.00    +0.055 C 
ATOM     22  C   UNL     1      -0.644  -5.341   2.248  0.00  0.00    +0.026 C 
BRANCH  21  23
ATOM     23  C   UNL     1       0.412  -7.346   3.301  0.00  0.00    -0.057 C 
BRANCH  23  29
ATOM     24  C   UNL     1       2.352 -11.560   4.863  0.00  0.00    +0.005 C 
ATOM     25  C   UNL     1       2.646 -10.239   4.150  0.00  0.00    -0.031 C 
ATOM     26  C   UNL     1       3.731  -9.476   4.915  0.00  0.00    -0.001 C 
ATOM     27  C   UNL     1       3.962  -8.122   4.237  0.00  0.00    -0.018 C 
ATOM     28  C   UNL     1       2.641  -7.353   4.183  0.00  0.00    -0.079 C 
ATOM     29  N   UNL     1       1.653  -8.122   3.417  0.00  0.00    +0.381 N 
ATOM     30  C   UNL     1       1.373  -9.392   4.099  0.00  0.00    -0.076 C 
ATOM     31  H   UNL     1       2.017  -8.310   2.495  0.00  0.00    -0.082 HD
ENDBRANCH  23  29
ENDBRANCH  21  23
ENDBRANCH   1  21
TORSDOF 5
