REMARK  Name = ZINC02647890
REMARK  7 active torsions:
REMARK  status: ('A' for Active; 'I' for Inactive)
REMARK    1  A    between atoms: C_4  and  O_26
REMARK    2  A    between atoms: C_5  and  C_7
REMARK    3  A    between atoms: C_7  and  C_9
REMARK    4  A    between atoms: C_13  and  N_14
REMARK    5  A    between atoms: C_15  and  C_17
REMARK    6  A    between atoms: C_17  and  S_18
REMARK    7  A    between atoms: S_18  and  C_19
REMARK                            x       y       z     vdW  Elec       q    Type
REMARK                         _______ _______ _______ _____ _____    ______ ____
ROOT
ATOM      1  C   UNL     1       2.092   0.706  -0.111  0.00  0.00    +0.082 A 
ATOM      2  C   UNL     1       1.247  -0.427  -0.211  0.00  0.00    +0.148 A 
ATOM      3  N   UNL     1       0.013  -0.018  -0.263  0.00  0.00    -0.170 NA
ATOM      4  N   UNL     1      -0.016   1.379  -0.201  0.00  0.00    -0.185 N 
ATOM      5  C   UNL     1       1.268   1.829  -0.108  0.00  0.00    +0.134 A 
ATOM      6  C   UNL     1      -1.122   2.148  -0.235  0.00  0.00    +0.259 C 
ATOM      7  O   UNL     1      -1.023   3.351  -0.175  0.00  0.00    -0.270 OA
ENDROOT
BRANCH   5   8
ATOM      8  N   UNL     1       1.672   3.142  -0.026  0.00  0.00    -0.342 N 
ATOM      9  H   UNL     1       1.013   3.853  -0.032  0.00  0.00    +0.144 HD
ATOM     10  H   UNL     1       2.616   3.355   0.037  0.00  0.00    +0.144 HD
ENDBRANCH   5   8
BRANCH   1  11
ATOM     11  C   UNL     1       3.557   0.697  -0.027  0.00  0.00    +0.201 C 
ATOM     12  O   UNL     1       4.173   1.747  -0.038  0.00  0.00    -0.286 OA
BRANCH  11  17
ATOM     13  C   UNL     1       5.500  -2.191   1.377  0.00  0.00    +0.001 A 
ATOM     14  C   UNL     1       5.647  -2.992   0.256  0.00  0.00    +0.004 A 
ATOM     15  C   UNL     1       5.118  -2.599  -0.958  0.00  0.00    +0.046 A 
ATOM     16  C   UNL     1       4.430  -1.399  -1.060  0.00  0.00    +0.128 A 
ATOM     17  C   UNL     1       4.283  -0.584   0.070  0.00  0.00    +0.064 A 
ATOM     18  C   UNL     1       4.823  -0.994   1.292  0.00  0.00    +0.015 A 
BRANCH  16  19
ATOM     19  O   UNL     1       3.905  -1.014  -2.251  0.00  0.00    -0.506 OA
ATOM     20  H   UNL     1       4.508  -0.490  -2.795  0.00  0.00    +0.292 HD
ENDBRANCH  16  19
ENDBRANCH  11  17
ENDBRANCH   1  11
BRANCH   6  21
ATOM     21  C   UNL     1      -2.482   1.509  -0.347  0.00  0.00    +0.175 C 
BRANCH  21  22
ATOM     22  S   UNL     1      -3.757   2.799  -0.368  0.00  0.00    -0.116 S 
BRANCH  22  23
ATOM     23  C   UNL     1      -5.268   1.902  -0.501  0.00  0.00    +0.008 A 
ATOM     24  C   UNL     1      -5.250   0.514  -0.568  0.00  0.00    +0.016 A 
ATOM     25  C   UNL     1      -6.437  -0.186  -0.667  0.00  0.00    +0.021 A 
ATOM     26  C   UNL     1      -7.641   0.493  -0.710  0.00  0.00    +0.041 A 
ATOM     27  C   UNL     1      -7.662   1.876  -0.649  0.00  0.00    +0.021 A 
ATOM     28  C   UNL     1      -6.479   2.581  -0.545  0.00  0.00    +0.016 A 
ATOM     29 CL   UNL     1      -9.130  -0.390  -0.841  0.00  0.00    -0.084 Cl
ENDBRANCH  22  23
ENDBRANCH  21  22
ENDBRANCH   6  21
TORSDOF 7
