REMARK  Name = ZINC08444069
REMARK  8 active torsions:
REMARK  status: ('A' for Active; 'I' for Inactive)
REMARK    1  A    between atoms: C_1  and  C_2
REMARK    2  A    between atoms: C_2  and  C_3
REMARK    3  A    between atoms: C_3  and  O_4
REMARK    4  A    between atoms: O_4  and  C_5
REMARK    5  A    between atoms: C_10  and  C_11
REMARK    6  A    between atoms: C_16  and  C_21
REMARK    7  A    between atoms: C_24  and  O_27
REMARK    8  A    between atoms: O_27  and  C_28
REMARK                            x       y       z     vdW  Elec       q    Type
REMARK                         _______ _______ _______ _____ _____    ______ ____
ROOT
ATOM      1  C   UNL     1       0.002  -0.004   0.002  0.00  0.00    +0.139 C 
ATOM      2  C   UNL     1       0.120  -0.474  -1.429  0.00  0.00    +0.037 C 
ATOM      3  C   UNL     1      -0.844  -1.079  -2.142  0.00  0.00    +0.017 C 
ATOM      4  C   UNL     1      -0.601  -1.463  -3.592  0.00  0.00    +0.059 C 
ATOM      5  C   UNL     1       0.864  -1.846  -3.790  0.00  0.00    +0.032 C 
ATOM      6  C   UNL     1       1.719  -0.630  -3.414  0.00  0.00    +0.088 C 
ATOM      7  C   UNL     1       1.387  -0.226  -2.009  0.00  0.00    +0.163 C 
ATOM      8  O   UNL     1       2.236   0.334  -1.344  0.00  0.00    -0.292 OA
ATOM      9  N   UNL     1      -2.082  -1.383  -1.675  0.00  0.00    -0.316 N 
ATOM     10  C   UNL     1      -2.897  -0.510  -0.963  0.00  0.00    +0.052 A 
ATOM     11  C   UNL     1      -4.108  -0.059  -1.458  0.00  0.00    +0.025 A 
ATOM     12  C   UNL     1      -4.892   0.774  -0.678  0.00  0.00    +0.002 A 
ATOM     13  C   UNL     1      -4.469   1.149   0.585  0.00  0.00    +0.002 A 
ATOM     14  C   UNL     1      -3.251   0.712   1.074  0.00  0.00    +0.025 A 
ATOM     15  C   UNL     1      -2.455  -0.105   0.288  0.00  0.00    +0.049 A 
ATOM     16  N   UNL     1      -1.176  -0.483   0.694  0.00  0.00    -0.331 N 
ATOM     17  H   UNL     1      -2.422  -2.274  -1.851  0.00  0.00    +0.152 HD
ATOM     18  H   UNL     1      -1.073  -1.078   1.454  0.00  0.00    +0.147 HD
ENDROOT
BRANCH   1  24
ATOM     19  C   UNL     1       0.241   2.194   1.185  0.00  0.00    +0.126 A 
ATOM     20  C   UNL     1       0.222   3.582   1.189  0.00  0.00    +0.046 A 
ATOM     21  C   UNL     1      -0.055   4.271   0.024  0.00  0.00    +0.004 A 
ATOM     22  C   UNL     1      -0.314   3.579  -1.145  0.00  0.00    +0.001 A 
ATOM     23  C   UNL     1      -0.290   2.197  -1.153  0.00  0.00    +0.009 A 
ATOM     24  C   UNL     1      -0.018   1.503   0.010  0.00  0.00    +0.019 A 
BRANCH  19  25
ATOM     25  O   UNL     1       0.515   1.514   2.329  0.00  0.00    -0.492 OA
BRANCH  25  26
ATOM     26  C   UNL     1       0.773   2.291   3.500  0.00  0.00    +0.229 C 
BRANCH  26  28
ATOM     27  C   UNL     1       1.334   2.190   5.932  0.00  0.00    +0.007 C 
ATOM     28  C   UNL     1       1.058   1.358   4.678  0.00  0.00    +0.038 C 
ENDBRANCH  26  28
ENDBRANCH  25  26
ENDBRANCH  19  25
ENDBRANCH   1  24
BRANCH   5  29
ATOM     29  C   UNL     1       1.106  -2.214  -5.231  0.00  0.00    -0.043 A 
ATOM     30  C   UNL     1       0.865  -1.289  -6.229  0.00  0.00    +0.007 A 
ATOM     31  C   UNL     1       1.091  -1.622  -7.551  0.00  0.00    +0.046 A 
ATOM     32  C   UNL     1       1.550  -2.890  -7.876  0.00  0.00    +0.120 A 
ATOM     33  C   UNL     1       1.786  -3.819  -6.873  0.00  0.00    +0.046 A 
ATOM     34  C   UNL     1       1.564  -3.479  -5.552  0.00  0.00    +0.007 A 
BRANCH  32  35
ATOM     35  O   UNL     1       1.769  -3.223  -9.176  0.00  0.00    -0.495 OA
ATOM     36  C   UNL     1       1.504  -2.217 -10.156  0.00  0.00    +0.277 C 
ENDBRANCH  32  35
ENDBRANCH   5  29
TORSDOF 6
