REMARK  Name = ZINC59246292
REMARK  3 active torsions:
REMARK  status: ('A' for Active; 'I' for Inactive)
REMARK    1  A    between atoms: C_4  and  C_7
REMARK    2  A    between atoms: C_10  and  C_12
REMARK    3  A    between atoms: N_13  and  C_14
REMARK                            x       y       z     vdW  Elec       q    Type
REMARK                         _______ _______ _______ _____ _____    ______ ____
ROOT
ATOM      1  C   UNL     1       7.259  -0.855  -0.068  0.00  0.00    +0.157 C 
ATOM      2  N   UNL     1       7.735   0.364  -0.060  0.00  0.00    -0.252 NA
ENDROOT
BRANCH   2   3
ATOM      3  C   UNL     1       9.086   0.570  -0.068  0.00  0.00    +0.066 A 
ATOM      4  C   UNL     1       9.914  -0.183   0.771  0.00  0.00    +0.030 A 
ATOM      5  C   UNL     1      11.276   0.023   0.764  0.00  0.00    +0.030 A 
ATOM      6  C   UNL     1      11.831   0.980  -0.076  0.00  0.00    +0.067 A 
ATOM      7  C   UNL     1      11.009   1.736  -0.917  0.00  0.00    +0.069 A 
ATOM      8  C   UNL     1       9.641   1.529  -0.918  0.00  0.00    +0.055 A 
ATOM      9  N   UNL     1      11.844   2.597  -1.627  0.00  0.00    -0.306 N 
ATOM     10  H   UNL     1      11.559   3.246  -2.289  0.00  0.00    +0.170 HD
ATOM     11  C   UNL     1      13.113   2.376  -1.235  0.00  0.00    +0.325 A 
ATOM     12  O   UNL     1      14.090   2.963  -1.661  0.00  0.00    -0.247 OA
ATOM     13  N   UNL     1      13.137   1.406  -0.302  0.00  0.00    -0.306 N 
ATOM     14  H   UNL     1      13.931   1.064   0.140  0.00  0.00    +0.170 HD
ENDBRANCH   2   3
BRANCH   1  18
ATOM     15  C   UNL     1       3.694  -0.683  -0.038  0.00  0.00    +0.136 A 
ATOM     16  C   UNL     1       3.850  -2.039  -0.053  0.00  0.00    +0.050 A 
ATOM     17  C   UNL     1       5.225  -2.295  -0.066  0.00  0.00    +0.051 A 
ATOM     18  C   UNL     1       5.859  -1.068  -0.059  0.00  0.00    +0.147 A 
ATOM     19  O   UNL     1       4.910  -0.108  -0.048  0.00  0.00    -0.454 OA
BRANCH  15  23
ATOM     20  C   UNL     1      -0.017   1.380   0.010  0.00  0.00    +0.000 A 
ATOM     21  C   UNL     1       1.168   2.094   0.002  0.00  0.00    +0.001 A 
ATOM     22  C   UNL     1       2.377   1.431  -0.013  0.00  0.00    +0.011 A 
ATOM     23  C   UNL     1       2.404   0.034  -0.021  0.00  0.00    +0.017 A 
ATOM     24  C   UNL     1       1.204  -0.681  -0.013  0.00  0.00    +0.011 A 
ATOM     25  C   UNL     1       0.002  -0.004   0.002  0.00  0.00    +0.001 A 
ENDBRANCH  15  23
ENDBRANCH   1  18
TORSDOF 3
