REMARK  Name = ZINC24781186
REMARK  8 active torsions:
REMARK  status: ('A' for Active; 'I' for Inactive)
REMARK    1  A    between atoms: C_1  and  C_2
REMARK    2  A    between atoms: C_5  and  C_8
REMARK    3  A    between atoms: C_10  and  C_13
REMARK    4  A    between atoms: C_13  and  C_14
REMARK    5  A    between atoms: C_19  and  C_22
REMARK    6  A    between atoms: C_25  and  N_28
REMARK    7  A    between atoms: N_28  and  S_29
REMARK    8  A    between atoms: S_29  and  C_32
REMARK                            x       y       z     vdW  Elec       q    Type
REMARK                         _______ _______ _______ _____ _____    ______ ____
ROOT
ATOM      1  C   UNL     1       3.345   3.653  10.522  0.00  0.00    +0.224 C 
ATOM      2  O   UNL     1       3.929   2.597  10.636  0.00  0.00    -0.275 OA
ATOM      3  N   UNL     1       2.635   3.914   9.406  0.00  0.00    -0.264 N 
ATOM      4  C   UNL     1       2.575   2.973   8.386  0.00  0.00    +0.165 A 
ATOM      5  N   UNL     1       1.947   3.038   7.226  0.00  0.00    -0.225 NA
ATOM      6  C   UNL     1       1.992   2.034   6.363  0.00  0.00    +0.080 A 
ATOM      7  C   UNL     1       2.711   0.913   6.674  0.00  0.00    +0.076 A 
ATOM      8  S   UNL     1       3.330   1.356   8.292  0.00  0.00    -0.060 S 
ATOM      9  H   UNL     1       2.105   4.872   9.303  0.00  0.00    +0.157 HD
ENDROOT
BRANCH   6  10
ATOM     10  C   UNL     1       1.275   2.128   5.068  0.00  0.00    +0.001 A 
ATOM     11  C   UNL     1       0.544   3.273   4.756  0.00  0.00    +0.012 A 
ATOM     12  C   UNL     1      -0.123   3.357   3.552  0.00  0.00    +0.025 A 
ATOM     13  C   UNL     1      -0.066   2.302   2.649  0.00  0.00    +0.048 A 
ATOM     14  C   UNL     1       0.658   1.157   2.960  0.00  0.00    +0.025 A 
ATOM     15  C   UNL     1       1.331   1.070   4.161  0.00  0.00    +0.012 A 
BRANCH  13  16
ATOM     16  N   UNL     1      -0.742   2.390   1.430  0.00  0.00    -0.221 N 
ATOM     17  H   UNL     1      -1.835   2.275   1.397  0.00  0.00    +0.173 HD
BRANCH  16  18
ATOM     18  S   UNL     1       0.103   2.668   0.033  0.00  0.00    +0.040 S 
ATOM     19  O   UNL     1      -0.885   2.704  -0.988  0.00  0.00    -0.155 OA
ATOM     20  O   UNL     1       1.121   1.676   0.021  0.00  0.00    -0.155 OA
ATOM     21  C   UNL     1       0.837   4.313   0.251  0.00  0.00    +0.218 C 
ENDBRANCH  16  18
ENDBRANCH  13  16
ENDBRANCH   6  10
BRANCH   1  22
ATOM     22  C   UNL     1       3.411   4.674  11.629  0.00  0.00    +0.152 C 
BRANCH  22  25
ATOM     23  C   UNL     1       4.705   2.491  14.292  0.00  0.00    +0.109 A 
ATOM     24  N   UNL     1       3.971   2.985  13.304  0.00  0.00    -0.243 NA
ATOM     25  C   UNL     1       4.260   4.141  12.754  0.00  0.00    +0.058 A 
ATOM     26  C   UNL     1       5.323   4.859  13.203  0.00  0.00    +0.071 A 
ATOM     27  S   UNL     1       5.930   3.777  14.492  0.00  0.00    -0.075 S 
BRANCH  23  32
ATOM     28  C   UNL     1       4.098  -2.455  17.170  0.00  0.00    +0.044 C 
ATOM     29  C   UNL     1       4.257  -1.160  16.416  0.00  0.00    -0.050 A 
ATOM     30  C   UNL     1       5.289  -0.297  16.739  0.00  0.00    +0.004 A 
ATOM     31  C   UNL     1       5.440   0.890  16.053  0.00  0.00    +0.011 A 
ATOM     32  C   UNL     1       4.549   1.220  15.031  0.00  0.00    +0.007 A 
ATOM     33  C   UNL     1       3.506   0.348  14.714  0.00  0.00    +0.011 A 
ATOM     34  C   UNL     1       3.370  -0.839  15.404  0.00  0.00    +0.004 A 
ENDBRANCH  23  32
ENDBRANCH  22  25
ENDBRANCH   1  22
TORSDOF 6
