REMARK  Name = ZINC22607969
REMARK  4 active torsions:
REMARK  status: ('A' for Active; 'I' for Inactive)
REMARK    1  A    between atoms: C_3  and  S_8
REMARK    2  A    between atoms: S_8  and  N_11
REMARK    3  A    between atoms: N_15  and  C_18
REMARK    4  A    between atoms: C_18  and  C_19
REMARK                            x       y       z     vdW  Elec       q    Type
REMARK                         _______ _______ _______ _____ _____    ______ ____
ROOT
ATOM      1  N   UNL     1       3.618   1.893   0.347  0.00  0.00    -0.097 NA
ATOM      2  C   UNL     1       2.373   1.310   0.370  0.00  0.00    +0.202 C 
ATOM      3  N   UNL     1       1.339   2.000   0.000  0.00  0.00    -0.303 N 
ATOM      4  C   UNL     1      -0.018   1.464   0.010  0.00  0.00    +0.193 C 
ATOM      5  N   UNL     1       0.002  -0.004   0.002  0.00  0.00    -0.267 NA
ATOM      6  C   UNL     1       0.893  -0.508   1.063  0.00  0.00    +0.193 C 
ATOM      7  N   UNL     1       2.244   0.004   0.784  0.00  0.00    -0.303 N 
ATOM      8  H   UNL     1       3.118  -0.653   0.909  0.00  0.00    +0.150 HD
ATOM      9  H   UNL     1       1.520   3.033  -0.332  0.00  0.00    +0.150 HD
ENDROOT
BRANCH   1  10
ATOM     10  S   UNL     1       3.788   3.464  -0.149  0.00  0.00    +0.102 S 
ATOM     11  O   UNL     1       5.168   3.779  -0.035  0.00  0.00    -0.146 OA
ATOM     12  O   UNL     1       3.078   3.582  -1.374  0.00  0.00    -0.146 OA
BRANCH  10  15
ATOM     13  C   UNL     1       2.955   5.758   3.042  0.00  0.00    +0.040 A 
ATOM     14  C   UNL     1       3.617   4.965   2.124  0.00  0.00    +0.032 A 
ATOM     15  C   UNL     1       2.943   4.475   1.021  0.00  0.00    +0.113 A 
ATOM     16  C   UNL     1       1.608   4.781   0.833  0.00  0.00    +0.032 A 
ATOM     17  C   UNL     1       0.943   5.569   1.753  0.00  0.00    +0.040 A 
ATOM     18  C   UNL     1       1.617   6.061   2.858  0.00  0.00    +0.124 A 
ATOM     19  F   UNL     1       0.969   6.836   3.755  0.00  0.00    -0.205 F 
ENDBRANCH  10  15
ENDBRANCH   1  10
BRANCH   5  20
ATOM     20  C   UNL     1      -1.354  -0.550   0.150  0.00  0.00    +0.122 C 
BRANCH  20  21
ATOM     21  C   UNL     1      -1.888  -0.206   1.516  0.00  0.00    -0.030 A 
ATOM     22  C   UNL     1      -2.589   0.970   1.707  0.00  0.00    +0.009 A 
ATOM     23  C   UNL     1      -3.081   1.290   2.959  0.00  0.00    +0.050 A 
ATOM     24  C   UNL     1      -2.872   0.431   4.026  0.00  0.00    +0.166 A 
ATOM     25  C   UNL     1      -2.165  -0.753   3.834  0.00  0.00    +0.167 A 
ATOM     26  C   UNL     1      -1.680  -1.070   2.575  0.00  0.00    +0.054 A 
ATOM     27  O   UNL     1      -2.095  -1.417   5.024  0.00  0.00    -0.453 OA
ATOM     28  C   UNL     1      -3.113  -0.828   5.854  0.00  0.00    +0.466 C 
ATOM     29  O   UNL     1      -3.244   0.509   5.337  0.00  0.00    -0.453 OA
ENDBRANCH  20  21
ENDBRANCH   5  20
TORSDOF 4
