REMARK  Name = ZINC00718462
REMARK  4 active torsions:
REMARK  status: ('A' for Active; 'I' for Inactive)
REMARK    1  A    between atoms: C_6  and  C_7
REMARK    2  A    between atoms: C_14  and  N_30
REMARK    3  A    between atoms: C_15  and  C_28
REMARK    4  A    between atoms: C_16  and  C_18
REMARK                            x       y       z     vdW  Elec       q    Type
REMARK                         _______ _______ _______ _____ _____    ______ ____
ROOT
ATOM      1  C   UNL     1      -1.641  -1.118   0.190  0.00  0.00    +0.100 A 
ATOM      2  C   UNL     1      -1.703  -2.179  -0.719  0.00  0.00    +0.054 A 
ATOM      3  C   UNL     1      -2.948  -2.733  -0.638  0.00  0.00    +0.223 A 
ATOM      4  N   UNL     1      -3.643  -2.045   0.291  0.00  0.00    -0.246 N 
ATOM      5  H   UNL     1      -4.559  -2.217   0.561  0.00  0.00    +0.192 HD
ATOM      6  N   UNL     1      -2.807  -1.040   0.803  0.00  0.00    -0.171 NA
ATOM      7  O   UNL     1      -3.331  -3.788  -1.400  0.00  0.00    -0.423 OA
ATOM      8  C   UNL     1      -2.548  -4.119  -2.447  0.00  0.00    +0.200 C 
ATOM      9  C   UNL     1      -1.295  -3.647  -2.628  0.00  0.00    +0.098 C 
ATOM     10  C   UNL     1      -0.643  -2.692  -1.659  0.00  0.00    +0.103 C 
ENDROOT
BRANCH  10  11
ATOM     11  C   UNL     1       0.424  -3.413  -0.876  0.00  0.00    -0.017 A 
ATOM     12  C   UNL     1       0.074  -4.428  -0.006  0.00  0.00    +0.055 A 
ATOM     13  C   UNL     1       1.054  -5.092   0.715  0.00  0.00    +0.167 A 
ATOM     14  C   UNL     1       2.391  -4.733   0.560  0.00  0.00    +0.167 A 
ATOM     15  C   UNL     1       2.735  -3.715  -0.313  0.00  0.00    +0.065 A 
ATOM     16  C   UNL     1       1.752  -3.060  -1.034  0.00  0.00    +0.026 A 
ATOM     17 BR   UNL     1       2.225  -1.675  -2.232  0.00  0.00    -0.050 Br
ATOM     18  O   UNL     1       3.151  -5.526   1.370  0.00  0.00    -0.453 OA
ATOM     19  C   UNL     1       2.234  -6.094   2.324  0.00  0.00    +0.466 C 
ATOM     20  O   UNL     1       0.977  -6.109   1.622  0.00  0.00    -0.453 OA
ENDBRANCH  10  11
BRANCH   1  26
ATOM     21  C   UNL     1       0.267   0.250  -0.648  0.00  0.00    +0.011 A 
ATOM     22  C   UNL     1       1.357   1.067  -0.422  0.00  0.00    +0.022 A 
ATOM     23  C   UNL     1       1.718   1.400   0.871  0.00  0.00    +0.059 A 
ATOM     24  C   UNL     1       0.990   0.916   1.945  0.00  0.00    +0.060 A 
ATOM     25  C   UNL     1      -0.102   0.098   1.729  0.00  0.00    +0.031 A 
ATOM     26  C   UNL     1      -0.469  -0.240   0.428  0.00  0.00    +0.004 A 
ATOM     27 CL   UNL     1       1.449   1.337   3.566  0.00  0.00    -0.082 Cl
ATOM     28 CL   UNL     1       3.090   2.428   1.149  0.00  0.00    -0.082 Cl
ENDBRANCH   1  26
BRANCH   8  29
ATOM     29  N   UNL     1      -3.054  -4.987  -3.382  0.00  0.00    -0.328 N 
ATOM     30  H   UNL     1      -3.950  -5.343  -3.279  0.00  0.00    +0.145 HD
ATOM     31  H   UNL     1      -2.514  -5.244  -4.147  0.00  0.00    +0.145 HD
ENDBRANCH   8  29
BRANCH   9  32
ATOM     32  C   UNL     1      -0.559  -4.067  -3.782  0.00  0.00    +0.101 C 
ATOM     33  N   UNL     1       0.024  -4.401  -4.698  0.00  0.00    -0.191 NA
ENDBRANCH   9  32
TORSDOF 4
