REMARK  Name = ZINC01699504
REMARK  4 active torsions:
REMARK  status: ('A' for Active; 'I' for Inactive)
REMARK    1  A    between atoms: C_1  and  C_2
REMARK    2  A    between atoms: C_2  and  C_3
REMARK    3  A    between atoms: C_2  and  C_4
REMARK    4  A    between atoms: C_2  and  C_5
REMARK                            x       y       z     vdW  Elec       q    Type
REMARK                         _______ _______ _______ _____ _____    ______ ____
ROOT
ATOM      1  C   UNL     1      -0.019   1.526   0.010  0.00  0.00    +0.015 C 
ATOM      2  C   UNL     1       0.002  -0.004   0.002  0.00  0.00    -0.020 C 
ATOM      3  C   UNL     1       0.742  -0.511   1.242  0.00  0.00    +0.015 C 
ATOM      4  C   UNL     1      -1.433  -0.534   0.013  0.00  0.00    +0.015 C 
ENDROOT
BRANCH   2   5
ATOM      5  C   UNL     1       0.707  -0.490  -1.238  0.00  0.00    -0.029 C 
ATOM      6  C   UNL     1       1.185   0.372  -2.100  0.00  0.00    +0.004 C 
ENDBRANCH   2   5
TORSDOF 1
