REMARK  Name = ZINC21317097
REMARK  11 active torsions:
REMARK  status: ('A' for Active; 'I' for Inactive)
REMARK    1  A    between atoms: C_1  and  C_2
REMARK    2  A    between atoms: C_2  and  C_21
REMARK    3  A    between atoms: N_3  and  N_4
REMARK    4  A    between atoms: C_8  and  S_11
REMARK    5  A    between atoms: N_9  and  N_10
REMARK    6  A    between atoms: S_11  and  C_12
REMARK    7  A    between atoms: C_12  and  C_13
REMARK    8  A    between atoms: C_24  and  O_29
REMARK    9  A    between atoms: C_25  and  O_27
REMARK   10  A    between atoms: O_27  and  C_28
REMARK   11  A    between atoms: O_29  and  C_30
REMARK                            x       y       z     vdW  Elec       q    Type
REMARK                         _______ _______ _______ _____ _____    ______ ____
ROOT
ATOM      1  N   UNL     1       1.701  -1.706  -0.023  0.00  0.00    -0.204 N 
ATOM      2  C   UNL     1       1.254  -0.392  -0.012  0.00  0.00    +0.254 A 
ATOM      3  N   UNL     1       0.002  -0.004   0.002  0.00  0.00    -0.109 NA
ATOM      4  N   UNL     1      -0.017   1.397   0.010  0.00  0.00    -0.119 NA
ATOM      5  C   UNL     1       1.225   1.819   0.000  0.00  0.00    +0.210 A 
ATOM      6  N   UNL     1       2.043   0.725  -0.014  0.00  0.00    -0.211 N 
ATOM      7  H   UNL     1       2.780  -1.919  -0.034  0.00  0.00    +0.178 HD
ENDROOT
BRANCH   1  10
ATOM      8  C   UNL     1       2.674  -4.282  -0.044  0.00  0.00    +0.068 C 
ATOM      9  C   UNL     1       1.196  -3.989  -0.029  0.00  0.00    +0.063 C 
ATOM     10  N   UNL     1       0.778  -2.759  -0.019  0.00  0.00    -0.184 NA
BRANCH   9  11
ATOM     11  C   UNL     1       0.225  -5.098  -0.026  0.00  0.00    +0.001 A 
ATOM     12  C   UNL     1       0.673  -6.421  -0.036  0.00  0.00    +0.013 A 
ATOM     13  C   UNL     1      -0.238  -7.457  -0.033  0.00  0.00    +0.050 A 
ATOM     14  C   UNL     1      -1.599  -7.189  -0.019  0.00  0.00    +0.162 A 
ATOM     15  C   UNL     1      -2.053  -5.872  -0.008  0.00  0.00    +0.162 A 
ATOM     16  C   UNL     1      -1.146  -4.828  -0.006  0.00  0.00    +0.059 A 
BRANCH  15  17
ATOM     17  O   UNL     1      -3.388  -5.613   0.005  0.00  0.00    -0.491 OA
ATOM     18  C   UNL     1      -3.782  -4.240   0.016  0.00  0.00    +0.277 C 
ENDBRANCH  15  17
BRANCH  14  19
ATOM     19  O   UNL     1      -2.492  -8.214  -0.015  0.00  0.00    -0.491 OA
ATOM     20  C   UNL     1      -1.958  -9.540  -0.026  0.00  0.00    +0.277 C 
ENDBRANCH  14  19
ENDBRANCH   9  11
ENDBRANCH   1  10
BRANCH   6  21
ATOM     21  N   UNL     1       3.409   0.744  -0.026  0.00  0.00    -0.294 N 
ATOM     22  H   UNL     1       3.945   1.704  -0.026  0.00  0.00    +0.163 HD
ATOM     23  H   UNL     1       3.971  -0.201  -0.037  0.00  0.00    +0.163 HD
ENDBRANCH   6  21
BRANCH   5  24
ATOM     24  S   UNL     1       1.747   3.502   0.003  0.00  0.00    -0.080 S 
BRANCH  24  25
ATOM     25  C   UNL     1       0.195   4.442   0.023  0.00  0.00    +0.112 C 
BRANCH  25  26
ATOM     26  C   UNL     1       0.502   5.918   0.027  0.00  0.00    -0.036 A 
ATOM     27  C   UNL     1       0.649   6.589   1.227  0.00  0.00    +0.006 A 
ATOM     28  C   UNL     1       0.936   7.941   1.232  0.00  0.00    +0.022 A 
ATOM     29  C   UNL     1       1.066   8.626   0.037  0.00  0.00    +0.059 A 
ATOM     30  C   UNL     1       0.913   7.954  -1.164  0.00  0.00    +0.060 A 
ATOM     31  C   UNL     1       0.631   6.600  -1.168  0.00  0.00    +0.026 A 
ATOM     32 CL   UNL     1       1.076   8.811  -2.665  0.00  0.00    -0.082 Cl
ATOM     33 CL   UNL     1       1.420  10.325   0.043  0.00  0.00    -0.082 Cl
ENDBRANCH  25  26
ENDBRANCH  24  25
ENDBRANCH   5  24
TORSDOF 8
