REMARK  Name = ZINC49050359
REMARK  6 active torsions:
REMARK  status: ('A' for Active; 'I' for Inactive)
REMARK    1  A    between atoms: C_1  and  C_2
REMARK    2  A    between atoms: C_2  and  C_4
REMARK    3  A    between atoms: C_2  and  S_7
REMARK    4  A    between atoms: S_7  and  N_10
REMARK    5  A    between atoms: N_10  and  C_11
REMARK    6  A    between atoms: C_13  and  N_18
REMARK                            x       y       z     vdW  Elec       q    Type
REMARK                         _______ _______ _______ _____ _____    ______ ____
ROOT
ATOM      1  C   UNL     1      -3.740  -0.198   1.646  0.00  0.00    +0.111 A 
ATOM      2  C   UNL     1      -4.333   0.398   2.750  0.00  0.00    +0.057 A 
ATOM      3  C   UNL     1      -5.659   0.126   3.054  0.00  0.00    +0.071 A 
ATOM      4  C   UNL     1      -6.390  -0.743   2.254  0.00  0.00    +0.031 A 
ATOM      5  C   UNL     1      -5.798  -1.336   1.155  0.00  0.00    +0.042 A 
ATOM      6  C   UNL     1      -4.479  -1.063   0.845  0.00  0.00    +0.148 A 
ATOM      7  F   UNL     1      -3.905  -1.640  -0.233  0.00  0.00    -0.203 F 
ENDROOT
BRANCH   3   8
ATOM      8  N   UNL     1      -6.261   0.727   4.170  0.00  0.00    -0.200 N 
ATOM      9  C   UNL     1      -7.529   0.565   4.604  0.00  0.00    +0.250 A 
ATOM     10  N   UNL     1      -7.672   1.306   5.671  0.00  0.00    -0.116 NA
ATOM     11  N   UNL     1      -6.580   1.925   5.942  0.00  0.00    -0.023 NA
ATOM     12  N   UNL     1      -5.671   1.622   5.079  0.00  0.00    -0.039 NA
ENDBRANCH   3   8
BRANCH   1  13
ATOM     13  N   UNL     1      -2.404   0.075   1.337  0.00  0.00    -0.099 NA
BRANCH  13  14
ATOM     14  S   UNL     1      -1.700  -0.632   0.015  0.00  0.00    +0.076 S 
ATOM     15  O   UNL     1      -2.419  -0.118  -1.098  0.00  0.00    -0.153 OA
ATOM     16  O   UNL     1      -1.706  -2.024   0.302  0.00  0.00    -0.153 OA
BRANCH  14  18
ATOM     17  C   UNL     1      -0.019   1.526   0.010  0.00  0.00    +0.046 C 
ATOM     18  C   UNL     1       0.002  -0.004   0.002  0.00  0.00    +0.262 C 
BRANCH  18  19
ATOM     19  C   UNL     1       0.707  -0.490  -1.238  0.00  0.00    +0.381 C 
ATOM     20  O   UNL     1       1.530  -1.387  -1.159  0.00  0.00    -0.244 OA
ATOM     21  O   UNL     1       0.456   0.013  -2.319  0.00  0.00    -0.244 OA
ENDBRANCH  18  19
ENDBRANCH  14  18
ENDBRANCH  13  14
ENDBRANCH   1  13
TORSDOF 5
