REMARK  Name = ZINC08856076
REMARK  13 active torsions:
REMARK  status: ('A' for Active; 'I' for Inactive)
REMARK    1  A    between atoms: C_1  and  C_2
REMARK    2  A    between atoms: C_2  and  C_3
REMARK    3  A    between atoms: C_3  and  C_4
REMARK    4  A    between atoms: N_6  and  C_30
REMARK    5  A    between atoms: C_9  and  C_10
REMARK    6  A    between atoms: N_11  and  C_12
REMARK    7  A    between atoms: C_12  and  C_13
REMARK    8  A    between atoms: C_13  and  N_72
REMARK    9  A    between atoms: N_16  and  C_19
REMARK   10  A    between atoms: C_19  and  N_21
REMARK   11  A    between atoms: N_21  and  C_22
REMARK   12  A    between atoms: C_22  and  C_23
REMARK   13  A    between atoms: C_23  and  C_24
REMARK                            x       y       z     vdW  Elec       q    Type
REMARK                         _______ _______ _______ _____ _____    ______ ____
ROOT
ATOM      1  C   UNL     1       3.571   2.057  -0.011  0.00  0.00    -0.055 C 
ENDROOT
BRANCH   1   7
ATOM      2  C   UNL     1       5.048   0.587   1.222  0.00  0.00    -0.059 C 
ATOM      3  C   UNL     1       6.303  -0.284   1.097  0.00  0.00    +0.088 C 
ATOM      4  N   UNL     1       7.432   0.576   0.709  0.00  0.00    -0.316 N 
ATOM      5  C   UNL     1       7.263   1.465  -0.451  0.00  0.00    +0.088 C 
ATOM      6  C   UNL     1       5.970   2.266  -0.265  0.00  0.00    -0.059 C 
ATOM      7  N   UNL     1       4.853   1.322  -0.046  0.00  0.00    +0.383 N 
ATOM      8  H   UNL     1       4.830   0.649  -0.821  0.00  0.00    -0.082 HD
BRANCH   4   9
ATOM      9  C   UNL     1       8.590   0.551   1.397  0.00  0.00    +0.133 C 
ATOM     10  S   UNL     1       8.719  -0.391   2.821  0.00  0.00    -0.019 S 
BRANCH   9  11
ATOM     11  N   UNL     1       9.647   1.267   0.966  0.00  0.00    -0.326 N 
ATOM     12  H   UNL     1       9.553   1.857   0.201  0.00  0.00    +0.148 HD
BRANCH  11  13
ATOM     13  C   UNL     1      10.937   1.155   1.651  0.00  0.00    +0.108 C 
BRANCH  13  14
ATOM     14  C   UNL     1      11.959   2.064   0.966  0.00  0.00    +0.054 C 
BRANCH  14  15
ATOM     15  C   UNL     1      13.286   1.949   1.670  0.00  0.00    -0.046 A 
ATOM     16  C   UNL     1      13.587   2.797   2.719  0.00  0.00    +0.004 A 
ATOM     17  C   UNL     1      14.803   2.688   3.369  0.00  0.00    +0.000 A 
ATOM     18  C   UNL     1      15.721   1.738   2.962  0.00  0.00    +0.000 A 
ATOM     19  C   UNL     1      15.422   0.893   1.909  0.00  0.00    +0.000 A 
ATOM     20  C   UNL     1      14.204   0.999   1.264  0.00  0.00    +0.004 A 
ENDBRANCH  14  15
ENDBRANCH  13  14
ENDBRANCH  11  13
ENDBRANCH   9  11
ENDBRANCH   4   9
ENDBRANCH   1   7
BRANCH   1  21
ATOM     21  C   UNL     1       2.424   1.045  -0.007  0.00  0.00    +0.122 C 
BRANCH  21  23
ATOM     22  C   UNL     1      -0.014   1.065   0.010  0.00  0.00    +0.096 C 
ATOM     23  N   UNL     1       1.144   1.758   0.005  0.00  0.00    -0.297 NA
BRANCH  22  29
ATOM     24  C   UNL     1      -1.438   3.194   0.042  0.00  0.00    +0.055 C 
ATOM     25  N   UNL     1      -2.719   3.401   0.043  0.00  0.00    -0.180 NA
ATOM     26  N   UNL     1      -3.427   2.199   0.037  0.00  0.00    -0.160 N 
ATOM     27  C   UNL     1      -2.571   1.157   0.024  0.00  0.00    +0.253 C 
ATOM     28  O   UNL     1      -2.858  -0.028   0.016  0.00  0.00    -0.272 OA
ATOM     29  C   UNL     1      -1.223   1.739   0.022  0.00  0.00    +0.163 C 
BRANCH  26  30
ATOM     30  C   UNL     1      -4.824   2.090   0.044  0.00  0.00    +0.060 A 
ATOM     31  C   UNL     1      -5.424   0.838   0.031  0.00  0.00    +0.028 A 
ATOM     32  C   UNL     1      -6.801   0.732   0.045  0.00  0.00    +0.040 A 
ATOM     33  C   UNL     1      -7.583   1.875   0.058  0.00  0.00    +0.124 A 
ATOM     34  C   UNL     1      -6.987   3.125   0.064  0.00  0.00    +0.040 A 
ATOM     35  C   UNL     1      -5.611   3.234   0.057  0.00  0.00    +0.028 A 
ATOM     36  F   UNL     1      -8.930   1.770   0.065  0.00  0.00    -0.205 F 
ENDBRANCH  26  30
BRANCH  24  37
ATOM     37  C   UNL     1      -0.365   4.252   0.053  0.00  0.00    +0.053 C 
BRANCH  37  39
ATOM     38  C   UNL     1       0.074   6.712   0.085  0.00  0.00    +0.004 C 
ATOM     39  C   UNL     1      -1.015   5.637   0.073  0.00  0.00    +0.003 C 
ENDBRANCH  37  39
ENDBRANCH  24  37
ENDBRANCH  22  29
ENDBRANCH  21  23
ENDBRANCH   1  21
TORSDOF 12
