REMARK  Name = ZINC39568622
REMARK  16 active torsions:
REMARK  status: ('A' for Active; 'I' for Inactive)
REMARK    1  A    between atoms: C_1  and  C_2
REMARK    2  A    between atoms: C_4  and  C_40
REMARK    3  A    between atoms: C_6  and  C_8
REMARK    4  A    between atoms: C_8  and  C_32
REMARK    5  A    between atoms: N_9  and  N_10
REMARK    6  A    between atoms: N_10  and  C_11
REMARK    7  A    between atoms: C_11  and  N_13
REMARK    8  A    between atoms: N_13  and  N_14
REMARK    9  A    between atoms: C_15  and  C_16
REMARK   10  A    between atoms: C_15  and  C_24
REMARK   11  A    between atoms: C_18  and  C_23
REMARK   12  A    between atoms: C_20  and  C_22
REMARK   13  A    between atoms: C_26  and  C_31
REMARK   14  A    between atoms: C_28  and  C_30
REMARK   15  A    between atoms: C_34  and  C_39
REMARK   16  A    between atoms: C_36  and  C_38
REMARK                            x       y       z     vdW  Elec       q    Type
REMARK                         _______ _______ _______ _____ _____    ______ ____
ROOT
ATOM      1  C   UNL     1       2.644   1.420  -0.397  0.00  0.00    +0.170 C 
ATOM      2  S   UNL     1       2.322   2.585  -1.610  0.00  0.00    -0.016 S 
ENDROOT
BRANCH   1   3
ATOM      3  N   UNL     1       1.710   0.502  -0.079  0.00  0.00    -0.217 N 
ATOM      4  H   UNL     1       0.883   0.457  -0.585  0.00  0.00    +0.176 HD
BRANCH   3   6
ATOM      5  C   UNL     1       1.091  -1.320   1.220  0.00  0.00    +0.094 C 
ATOM      6  N   UNL     1       1.932  -0.386   0.981  0.00  0.00    -0.185 NA
BRANCH   5  12
ATOM      7  C   UNL     1       1.329  -2.424  -1.809  0.00  0.00    +0.041 C 
ATOM      8  C   UNL     1       0.245  -2.533  -0.768  0.00  0.00    -0.041 C 
ATOM      9  C   UNL     1      -0.609  -3.542  -0.602  0.00  0.00    +0.024 C 
ATOM     10  C   UNL     1      -1.497  -3.249   0.524  0.00  0.00    +0.034 C 
ATOM     11  N   UNL     1      -1.218  -2.102   1.049  0.00  0.00    -0.275 NA
ATOM     12  C   UNL     1      -0.091  -1.523   0.307  0.00  0.00    +0.179 C 
ATOM     13  C   UNL     1      -2.593  -4.164   1.006  0.00  0.00    +0.065 C 
ENDBRANCH   5  12
BRANCH   5  14
ATOM     14  C   UNL     1       1.281  -2.218   2.416  0.00  0.00    +0.179 C 
ATOM     15  C   UNL     1       2.554  -1.852   3.148  0.00  0.00    -0.041 C 
ATOM     16  C   UNL     1       3.325  -2.937   3.104  0.00  0.00    +0.024 C 
ATOM     17  C   UNL     1       2.629  -4.002   2.381  0.00  0.00    +0.034 C 
ATOM     18  N   UNL     1       1.463  -3.609   1.984  0.00  0.00    -0.275 NA
ATOM     19  C   UNL     1       3.196  -5.376   2.134  0.00  0.00    +0.065 C 
ATOM     20  C   UNL     1       2.881  -0.531   3.794  0.00  0.00    +0.041 C 
ENDBRANCH   5  14
ENDBRANCH   3   6
ENDBRANCH   1   3
BRANCH   1  21
ATOM     21  N   UNL     1       3.832   1.421   0.240  0.00  0.00    -0.217 N 
ATOM     22  H   UNL     1       4.042   0.719   0.876  0.00  0.00    +0.176 HD
BRANCH  21  23
ATOM     23  N   UNL     1       4.764   2.435  -0.017  0.00  0.00    -0.185 NA
ATOM     24  C   UNL     1       5.928   2.383   0.512  0.00  0.00    +0.094 C 
BRANCH  24  25
ATOM     25  C   UNL     1       6.328   1.187   1.337  0.00  0.00    +0.179 C 
ATOM     26  C   UNL     1       7.024   0.161   0.470  0.00  0.00    -0.041 C 
ATOM     27  C   UNL     1       8.249   0.026   0.974  0.00  0.00    +0.024 C 
ATOM     28  C   UNL     1       8.401   0.909   2.131  0.00  0.00    +0.034 C 
ATOM     29  N   UNL     1       7.315   1.577   2.352  0.00  0.00    -0.275 NA
ATOM     30  C   UNL     1       9.656   1.024   2.958  0.00  0.00    +0.065 C 
ATOM     31  C   UNL     1       6.448  -0.560  -0.722  0.00  0.00    +0.041 C 
ENDBRANCH  24  25
BRANCH  24  32
ATOM     32  C   UNL     1       6.899   3.518   0.310  0.00  0.00    +0.179 C 
ATOM     33  C   UNL     1       6.226   4.658  -0.421  0.00  0.00    -0.041 C 
ATOM     34  C   UNL     1       6.906   4.817  -1.556  0.00  0.00    +0.024 C 
ATOM     35  C   UNL     1       7.994   3.840  -1.613  0.00  0.00    +0.034 C 
ATOM     36  N   UNL     1       8.005   3.093  -0.557  0.00  0.00    -0.275 NA
ATOM     37  C   UNL     1       8.974   3.720  -2.752  0.00  0.00    +0.065 C 
ATOM     38  C   UNL     1       5.031   5.453   0.039  0.00  0.00    +0.041 C 
ENDBRANCH  24  32
ENDBRANCH  21  23
ENDBRANCH   1  21
TORSDOF 8
