REMARK  Name = ZINC24714006
REMARK  8 active torsions:
REMARK  status: ('A' for Active; 'I' for Inactive)
REMARK    1  A    between atoms: C_1  and  C_2
REMARK    2  A    between atoms: C_2  and  C_27
REMARK    3  A    between atoms: C_3  and  C_4
REMARK    4  A    between atoms: C_6  and  C_11
REMARK    5  A    between atoms: C_8  and  C_9
REMARK    6  A    between atoms: C_8  and  C_10
REMARK    7  A    between atoms: N_13  and  N_14
REMARK    8  A    between atoms: C_15  and  C_17
REMARK                            x       y       z     vdW  Elec       q    Type
REMARK                         _______ _______ _______ _____ _____    ______ ____
ROOT
ATOM      1  N   UNL     1       1.316   2.131  -0.191  0.00  0.00    -0.234 N 
ATOM      2  C   UNL     1       0.182   1.403  -0.211  0.00  0.00    +0.235 C 
ATOM      3  O   UNL     1      -0.896   1.959  -0.180  0.00  0.00    -0.274 OA
ATOM      4  H   UNL     1       2.293   1.627  -0.223  0.00  0.00    +0.173 HD
ENDROOT
BRANCH   2   5
ATOM      5  C   UNL     1       0.252  -0.101  -0.277  0.00  0.00    +0.049 C 
ATOM      6  C   UNL     1       1.009  -0.630   0.943  0.00  0.00    +0.019 C 
ATOM      7  C   UNL     1       1.081  -2.157   0.876  0.00  0.00    -0.009 C 
ATOM      8  C   UNL     1      -0.337  -2.734   0.865  0.00  0.00    +0.007 C 
ATOM      9  C   UNL     1      -1.094  -2.204  -0.354  0.00  0.00    -0.009 C 
ATOM     10  C   UNL     1      -1.165  -0.677  -0.287  0.00  0.00    +0.019 C 
ATOM     11  C   UNL     1      -0.362  -2.625  -1.631  0.00  0.00    +0.007 C 
ATOM     12  C   UNL     1       1.055  -2.048  -1.620  0.00  0.00    -0.009 C 
ATOM     13  C   UNL     1       1.812  -2.578  -0.401  0.00  0.00    +0.007 C 
ATOM     14  C   UNL     1       0.983  -0.521  -1.553  0.00  0.00    +0.019 C 
ENDBRANCH   2   5
BRANCH   1  17
ATOM     15  C   UNL     1       2.385   4.256  -0.110  0.00  0.00    +0.233 C 
ATOM     16  O   UNL     1       3.463   3.700  -0.145  0.00  0.00    -0.274 OA
ATOM     17  N   UNL     1       1.251   3.529  -0.130  0.00  0.00    -0.234 N 
ATOM     18  H   UNL     1       0.274   4.033  -0.097  0.00  0.00    +0.173 HD
BRANCH  15  20
ATOM     19  C   UNL     1       3.575   6.543  -0.419  0.00  0.00    +0.030 C 
ATOM     20  C   UNL     1       2.315   5.760  -0.044  0.00  0.00    +0.090 C 
ATOM     21  C   UNL     1       2.372   6.529  -1.365  0.00  0.00    -0.016 C 
ATOM     22  C   UNL     1       2.497   5.712  -2.653  0.00  0.00    +0.012 C 
ATOM     23  C   UNL     1       1.543   7.810  -1.474  0.00  0.00    +0.012 C 
BRANCH  19  26
ATOM     24  C   UNL     1       5.952   6.819   1.075  0.00  0.00    +0.038 C 
ATOM     25  C   UNL     1       4.987   7.971   0.969  0.00  0.00    -0.079 C 
ATOM     26  C   UNL     1       3.851   7.819   0.335  0.00  0.00    -0.023 C 
ATOM     27  C   UNL     1       5.329   9.300   1.593  0.00  0.00    +0.038 C 
ENDBRANCH  19  26
ENDBRANCH  15  20
ENDBRANCH   1  17
TORSDOF 4
