REMARK  Name = ZINC22826603
REMARK  9 active torsions:
REMARK  status: ('A' for Active; 'I' for Inactive)
REMARK    1  A    between atoms: C_4  and  C_7
REMARK    2  A    between atoms: C_7  and  C_9
REMARK    3  A    between atoms: C_7  and  O_22
REMARK    4  A    between atoms: N_11  and  C_12
REMARK    5  A    between atoms: C_15  and  N_19
REMARK    6  A    between atoms: O_22  and  C_23
REMARK    7  A    between atoms: C_23  and  C_25
REMARK    8  A    between atoms: C_28  and  N_34
REMARK    9  A    between atoms: C_29  and  N_31
REMARK                            x       y       z     vdW  Elec       q    Type
REMARK                         _______ _______ _______ _____ _____    ______ ____
ROOT
ATOM      1  C   UNL     1       2.688   1.099   0.221  0.00  0.00    +0.292 C 
ENDROOT
BRANCH   1   5
ATOM      2  C   UNL     1       2.881  -1.079   3.890  0.00  0.00    +0.000 A 
ATOM      3  C   UNL     1       2.507  -1.721   2.725  0.00  0.00    +0.000 A 
ATOM      4  C   UNL     1       2.445  -1.016   1.537  0.00  0.00    +0.008 A 
ATOM      5  C   UNL     1       2.756   0.330   1.515  0.00  0.00    +0.002 A 
ATOM      6  C   UNL     1       3.135   0.971   2.680  0.00  0.00    +0.008 A 
ATOM      7  C   UNL     1       3.193   0.267   3.869  0.00  0.00    +0.000 A 
ENDBRANCH   1   5
BRANCH   1   8
ATOM      8  C   UNL     1       1.397   1.873   0.163  0.00  0.00    +0.263 C 
ATOM      9  O   UNL     1       1.419   3.082   0.068  0.00  0.00    -0.271 OA
ATOM     10  N   UNL     1       0.218   1.223   0.218  0.00  0.00    -0.281 N 
ATOM     11  H   UNL     1       0.197   0.123   0.238  0.00  0.00    +0.155 HD
BRANCH  10  12
ATOM     12  C   UNL     1      -0.980   1.946   0.249  0.00  0.00    +0.052 A 
ATOM     13  C   UNL     1      -1.089   3.141  -0.449  0.00  0.00    +0.027 A 
ATOM     14  C   UNL     1      -2.272   3.853  -0.417  0.00  0.00    +0.034 A 
ATOM     15  C   UNL     1      -3.348   3.377   0.311  0.00  0.00    +0.128 A 
ATOM     16  C   UNL     1      -3.244   2.188   1.008  0.00  0.00    +0.054 A 
ATOM     17  C   UNL     1      -2.064   1.468   0.975  0.00  0.00    +0.064 A 
ATOM     18 CL   UNL     1      -1.935  -0.029   1.844  0.00  0.00    -0.082 Cl
BRANCH  15  19
ATOM     19  N   UNL     1      -4.614   4.143   0.343  0.00  0.00    +0.056 N 
ATOM     20  O   UNL     1      -4.708   5.191  -0.271  0.00  0.00    -0.126 OA
ATOM     21  O   UNL     1      -5.563   3.725   0.983  0.00  0.00    -0.126 OA
ENDBRANCH  15  19
ENDBRANCH  10  12
ENDBRANCH   1   8
BRANCH   1  22
ATOM     22  O   UNL     1       3.809   2.019   0.145  0.00  0.00    -0.444 OA
BRANCH  22  23
ATOM     23  C   UNL     1       4.940   1.560  -0.425  0.00  0.00    +0.340 C 
ATOM     24  O   UNL     1       4.989   0.421  -0.846  0.00  0.00    -0.245 OA
BRANCH  23  25
ATOM     25  C   UNL     1       6.118   2.438  -0.536  0.00  0.00    +0.061 A 
ATOM     26  C   UNL     1       6.062   3.751  -0.057  0.00  0.00    +0.017 A 
ATOM     27  C   UNL     1       7.155   4.563  -0.155  0.00  0.00    +0.026 A 
ATOM     28  C   UNL     1       8.327   4.092  -0.743  0.00  0.00    +0.055 A 
ATOM     29  C   UNL     1       8.390   2.788  -1.228  0.00  0.00    +0.147 A 
ATOM     30  C   UNL     1       7.294   1.963  -1.127  0.00  0.00    +0.049 A 
BRANCH  29  31
ATOM     31  N   UNL     1       9.637   2.290  -1.852  0.00  0.00    +0.058 N 
ATOM     32  O   UNL     1       9.660   1.190  -2.373  0.00  0.00    -0.126 OA
ATOM     33  O   UNL     1      10.640   2.981  -1.844  0.00  0.00    -0.126 OA
ENDBRANCH  29  31
BRANCH  28  34
ATOM     34  N   UNL     1       9.435   4.925  -0.845  0.00  0.00    -0.356 N 
ATOM     35  H   UNL     1      10.361   4.554  -1.309  0.00  0.00    +0.142 HD
ATOM     36  H   UNL     1       9.386   5.955  -0.462  0.00  0.00    +0.142 HD
ENDBRANCH  28  34
ENDBRANCH  23  25
ENDBRANCH  22  23
ENDBRANCH   1  22
TORSDOF 9
