REMARK  Name = ZINC00649346
REMARK  14 active torsions:
REMARK  status: ('A' for Active; 'I' for Inactive)
REMARK    1  A    between atoms: C_1  and  C_2
REMARK    2  A    between atoms: C_2  and  O_3
REMARK    3  A    between atoms: O_3  and  C_4
REMARK    4  A    between atoms: C_7  and  N_10
REMARK    5  A    between atoms: N_10  and  C_11
REMARK    6  A    between atoms: C_11  and  C_12
REMARK    7  A    between atoms: C_15  and  S_24
REMARK    8  A    between atoms: N_16  and  C_17
REMARK    9  A    between atoms: C_20  and  C_23
REMARK   10  A    between atoms: S_24  and  C_25
REMARK   11  A    between atoms: C_25  and  C_26
REMARK   12  A    between atoms: N_28  and  C_29
REMARK   13  A    between atoms: C_32  and  C_35
REMARK   14  A    between atoms: C_35  and  C_37
REMARK                            x       y       z     vdW  Elec       q    Type
REMARK                         _______ _______ _______ _____ _____    ______ ____
ROOT
ATOM      1  C   UNL     1       1.308   3.705   0.057  0.00  0.00    +0.156 A 
ATOM      2  N   UNL     1       0.984   4.420  -0.983  0.00  0.00    -0.132 NA
ATOM      3  N   UNL     1       0.721   5.627  -0.626  0.00  0.00    -0.122 NA
ATOM      4  C   UNL     1       0.872   5.752   0.672  0.00  0.00    +0.197 A 
ATOM      5  N   UNL     1       1.252   4.527   1.150  0.00  0.00    -0.273 N 
ENDROOT
BRANCH   5   6
ATOM      6  C   UNL     1       1.527   4.186   2.482  0.00  0.00    +0.050 A 
ATOM      7  C   UNL     1       0.717   3.278   3.149  0.00  0.00    +0.026 A 
ATOM      8  C   UNL     1       0.993   2.940   4.460  0.00  0.00    +0.005 A 
ATOM      9  C   UNL     1       2.070   3.513   5.110  0.00  0.00    -0.050 A 
ATOM     10  C   UNL     1       2.876   4.422   4.450  0.00  0.00    +0.005 A 
ATOM     11  C   UNL     1       2.607   4.761   3.138  0.00  0.00    +0.026 A 
ATOM     12  C   UNL     1       2.366   3.146   6.542  0.00  0.00    +0.044 C 
ENDBRANCH   5   6
BRANCH   1  13
ATOM     13  C   UNL     1       1.680   2.244   0.055  0.00  0.00    +0.178 C 
BRANCH  13  14
ATOM     14  N   UNL     1       0.474   1.433   0.242  0.00  0.00    -0.337 N 
ATOM     15  H   UNL     1      -0.390   1.863   0.338  0.00  0.00    +0.147 HD
BRANCH  14  19
ATOM     16  C   UNL     1       0.756  -2.725   0.341  0.00  0.00    +0.121 A 
ATOM     17  C   UNL     1      -0.479  -2.110   0.485  0.00  0.00    +0.047 A 
ATOM     18  C   UNL     1      -0.574  -0.732   0.452  0.00  0.00    +0.026 A 
ATOM     19  C   UNL     1       0.569   0.037   0.275  0.00  0.00    +0.028 A 
ATOM     20  C   UNL     1       1.804  -0.579   0.126  0.00  0.00    +0.026 A 
ATOM     21  C   UNL     1       1.897  -1.957   0.165  0.00  0.00    +0.047 A 
BRANCH  16  22
ATOM     22  O   UNL     1       0.847  -4.081   0.373  0.00  0.00    -0.492 OA
BRANCH  22  24
ATOM     23  C   UNL     1       2.054  -6.173   0.281  0.00  0.00    +0.048 C 
ATOM     24  C   UNL     1       2.150  -4.647   0.219  0.00  0.00    +0.225 C 
ENDBRANCH  22  24
ENDBRANCH  16  22
ENDBRANCH  14  19
ENDBRANCH  13  14
ENDBRANCH   1  13
BRANCH   4  25
ATOM     25  S   UNL     1       0.632   7.218   1.619  0.00  0.00    -0.076 S 
BRANCH  25  26
ATOM     26  C   UNL     1       0.153   8.366   0.304  0.00  0.00    +0.173 C 
BRANCH  26  27
ATOM     27  C   UNL     1      -0.110   9.727   0.896  0.00  0.00    +0.227 C 
ATOM     28  O   UNL     1       0.013   9.903   2.089  0.00  0.00    -0.275 OA
ATOM     29  N   UNL     1      -0.483  10.748   0.099  0.00  0.00    -0.285 N 
ATOM     30  H   UNL     1      -0.510  10.627  -0.863  0.00  0.00    +0.155 HD
BRANCH  29  31
ATOM     31  C   UNL     1      -0.830  11.976   0.657  0.00  0.00    +0.033 A 
ATOM     32  C   UNL     1      -0.543  13.155  -0.026  0.00  0.00    +0.024 A 
ATOM     33  C   UNL     1      -0.887  14.365   0.517  0.00  0.00    +0.013 A 
ATOM     34  C   UNL     1      -1.518  14.416   1.766  0.00  0.00    +0.017 A 
ATOM     35  C   UNL     1      -1.800  13.228   2.452  0.00  0.00    +0.013 A 
ATOM     36  C   UNL     1      -1.457  12.022   1.899  0.00  0.00    +0.024 A 
BRANCH  34  37
ATOM     37  C   UNL     1      -1.884  15.711   2.355  0.00  0.00    +0.160 C 
ATOM     38  O   UNL     1      -2.339  15.760   3.478  0.00  0.00    -0.292 OA
ATOM     39  C   UNL     1      -1.694  16.979   1.563  0.00  0.00    +0.091 C 
ENDBRANCH  34  37
ENDBRANCH  29  31
ENDBRANCH  26  27
ENDBRANCH  25  26
ENDBRANCH   4  25
TORSDOF 11
