REMARK  Name = ZINC23139235
REMARK  6 active torsions:
REMARK  status: ('A' for Active; 'I' for Inactive)
REMARK    1  A    between atoms: C_1  and  C_2
REMARK    2  A    between atoms: C_3  and  O_33
REMARK    3  A    between atoms: C_12  and  C_13
REMARK    4  A    between atoms: C_13  and  S_14
REMARK    5  A    between atoms: S_14  and  C_15
REMARK    6  A    between atoms: C_21  and  C_26
REMARK                            x       y       z     vdW  Elec       q    Type
REMARK                         _______ _______ _______ _____ _____    ______ ____
ROOT
ATOM      1  C   UNL     1      -2.580  -2.820   1.413  0.00  0.00    +0.170 A 
ATOM      2  N   UNL     1      -2.594  -3.686   2.468  0.00  0.00    -0.301 N 
ATOM      3  H   UNL     1      -2.580  -3.298   3.498  0.00  0.00    +0.171 HD
ATOM      4  C   UNL     1      -2.624  -5.017   2.277  0.00  0.00    +0.261 A 
ATOM      5  O   UNL     1      -2.636  -5.777   3.230  0.00  0.00    -0.267 OA
ATOM      6  C   UNL     1      -2.642  -5.529   0.943  0.00  0.00    +0.080 A 
ATOM      7  C   UNL     1      -2.675  -6.916   0.489  0.00  0.00    +0.004 A 
ATOM      8  C   UNL     1      -2.687  -7.165  -0.841  0.00  0.00    +0.056 A 
ATOM      9  S   UNL     1      -2.654  -5.538  -1.568  0.00  0.00    -0.076 S 
ATOM     10  C   UNL     1      -2.625  -4.568  -0.082  0.00  0.00    +0.117 A 
ATOM     11  N   UNL     1      -2.601  -3.265   0.174  0.00  0.00    -0.216 NA
ENDROOT
BRANCH   7  12
ATOM     12  C   UNL     1      -2.695  -8.030   1.466  0.00  0.00    -0.016 A 
ATOM     13  C   UNL     1      -1.763  -8.069   2.503  0.00  0.00    +0.011 A 
ATOM     14  C   UNL     1      -1.789  -9.105   3.413  0.00  0.00    +0.039 A 
ATOM     15  C   UNL     1      -2.732 -10.113   3.292  0.00  0.00    +0.123 A 
ATOM     16  C   UNL     1      -3.657 -10.082   2.260  0.00  0.00    +0.039 A 
ATOM     17  C   UNL     1      -3.642  -9.046   1.349  0.00  0.00    +0.011 A 
ATOM     18  F   UNL     1      -2.751 -11.129   4.182  0.00  0.00    -0.205 F 
ENDBRANCH   7  12
BRANCH   1  19
ATOM     19  S   UNL     1      -2.542  -1.084   1.713  0.00  0.00    -0.083 S 
BRANCH  19  20
ATOM     20  C   UNL     1      -2.537  -0.471   0.010  0.00  0.00    +0.113 C 
BRANCH  20  32
ATOM     21  C   UNL     1      -0.051   5.371   0.032  0.00  0.00    +0.051 C 
ATOM     22  C   UNL     1      -0.051   3.864   0.023  0.00  0.00    +0.034 A 
ATOM     23  C   UNL     1       1.148   3.170   0.008  0.00  0.00    +0.123 A 
ATOM     24  C   UNL     1       1.159   1.776   0.001  0.00  0.00    +0.046 A 
ATOM     25  C   UNL     1      -0.013   1.076   0.008  0.00  0.00    +0.015 A 
ATOM     26  C   UNL     1      -1.232   1.761   0.018  0.00  0.00    +0.022 A 
ATOM     27  C   UNL     1      -1.250   3.169   0.032  0.00  0.00    +0.146 A 
ATOM     28  O   UNL     1      -2.429   3.826   0.046  0.00  0.00    -0.422 OA
ATOM     29  C   UNL     1      -3.599   3.167   0.035  0.00  0.00    +0.338 A 
ATOM     30  O   UNL     1      -4.638   3.803   0.044  0.00  0.00    -0.245 OA
ATOM     31  C   UNL     1      -3.655   1.758   0.028  0.00  0.00    +0.097 A 
ATOM     32  C   UNL     1      -2.505   1.036   0.019  0.00  0.00    -0.020 A 
BRANCH  23  33
ATOM     33  O   UNL     1       2.321   3.852  -0.000  0.00  0.00    -0.506 OA
ATOM     34  H   UNL     1       3.276   3.305  -0.013  0.00  0.00    +0.292 HD
ENDBRANCH  23  33
ENDBRANCH  20  32
ENDBRANCH  19  20
ENDBRANCH   1  19
TORSDOF 5
