REMARK  Name = ZINC03628253
REMARK  15 active torsions:
REMARK  status: ('A' for Active; 'I' for Inactive)
REMARK    1  A    between atoms: C_1  and  C_2
REMARK    2  A    between atoms: C_2  and  O_3
REMARK    3  A    between atoms: O_3  and  C_4
REMARK    4  A    between atoms: C_4  and  C_6
REMARK    5  A    between atoms: C_7  and  C_34
REMARK    6  A    between atoms: N_8  and  C_27
REMARK    7  A    between atoms: C_12  and  O_15
REMARK    8  A    between atoms: O_15  and  C_16
REMARK    9  A    between atoms: C_16  and  C_17
REMARK   10  A    between atoms: C_17  and  C_19
REMARK   11  A    between atoms: C_17  and  O_26
REMARK   12  A    between atoms: C_19  and  N_63
REMARK   13  A    between atoms: C_20  and  C_21
REMARK   14  A    between atoms: C_20  and  N_63
REMARK   15  A    between atoms: C_30  and  C_33
REMARK                            x       y       z     vdW  Elec       q    Type
REMARK                         _______ _______ _______ _____ _____    ______ ____
ROOT
ATOM      1  C   UNL     1      -1.385   1.110 -11.008  0.00  0.00    +0.088 A 
ATOM      2  C   UNL     1      -0.530   0.427 -11.824  0.00  0.00    +0.036 A 
ATOM      3  N   UNL     1       0.449  -0.148 -11.084  0.00  0.00    -0.312 N 
ATOM      4  C   UNL     1       0.271   0.139  -9.743  0.00  0.00    +0.055 A 
ATOM      5  C   UNL     1      -0.880   0.936  -9.633  0.00  0.00    +0.018 A 
ATOM      6  C   UNL     1      -1.306   1.381  -8.384  0.00  0.00    +0.056 A 
ATOM      7  C   UNL     1      -0.591   1.033  -7.254  0.00  0.00    +0.121 A 
ATOM      8  C   UNL     1       0.553   0.247  -7.364  0.00  0.00    +0.048 A 
ATOM      9  C   UNL     1       0.978  -0.202  -8.595  0.00  0.00    +0.030 A 
ATOM     10  C   UNL     1      -0.655   0.328 -13.323  0.00  0.00    +0.065 C 
ENDROOT
BRANCH   3  11
ATOM     11  C   UNL     1       1.493  -0.924 -11.603  0.00  0.00    +0.047 A 
ATOM     12  C   UNL     1       1.588  -2.270 -11.277  0.00  0.00    +0.026 A 
ATOM     13  C   UNL     1       2.616  -3.034 -11.795  0.00  0.00    +0.005 A 
ATOM     14  C   UNL     1       3.556  -2.457 -12.629  0.00  0.00    -0.050 A 
ATOM     15  C   UNL     1       3.467  -1.115 -12.951  0.00  0.00    +0.005 A 
ATOM     16  C   UNL     1       2.439  -0.347 -12.441  0.00  0.00    +0.026 A 
ATOM     17  C   UNL     1       4.679  -3.291 -13.187  0.00  0.00    +0.044 C 
ENDBRANCH   3  11
BRANCH   1  18
ATOM     18  C   UNL     1      -2.572   1.868 -11.418  0.00  0.00    +0.342 C 
ATOM     19  O   UNL     1      -2.475   3.048 -11.695  0.00  0.00    -0.245 OA
BRANCH  18  20
ATOM     20  O   UNL     1      -3.772   1.256 -11.488  0.00  0.00    -0.461 OA
BRANCH  20  22
ATOM     21  C   UNL     1      -6.168   1.207 -11.920  0.00  0.00    +0.048 C 
ATOM     22  C   UNL     1      -4.903   2.067 -11.900  0.00  0.00    +0.229 C 
ENDBRANCH  20  22
ENDBRANCH  18  20
ENDBRANCH   1  18
BRANCH   7  23
ATOM     23  O   UNL     1      -1.002   1.464  -6.032  0.00  0.00    -0.489 OA
BRANCH  23  24
ATOM     24  C   UNL     1      -0.216   1.067  -4.906  0.00  0.00    +0.258 C 
BRANCH  24  25
ATOM     25  C   UNL     1      -0.829   1.643  -3.628  0.00  0.00    +0.135 C 
BRANCH  25  26
ATOM     26  O   UNL     1      -0.749   3.069  -3.661  0.00  0.00    -0.390 OA
ATOM     27  H   UNL     1       0.153   3.411  -3.724  0.00  0.00    +0.210 HD
ENDBRANCH  25  26
BRANCH  25  28
ATOM     28  C   UNL     1      -0.062   1.117  -2.413  0.00  0.00    -0.047 C 
BRANCH  28  29
ATOM     29  N   UNL     1      -0.732   1.579  -1.182  0.00  0.00    +0.385 N 
ATOM     30  H   UNL     1      -1.695   1.223  -1.167  0.00  0.00    -0.085 HD
ATOM     31  H   UNL     1      -0.746   2.605  -1.168  0.00  0.00    -0.085 HD
BRANCH  29  32
ATOM     32  C   UNL     1      -0.013   1.086   0.008  0.00  0.00    -0.007 C 
BRANCH  32  33
ATOM     33  C   UNL     1      -0.718   1.572   1.248  0.00  0.00    +0.088 A 
ATOM     34  C   UNL     1      -1.704   0.926   1.896  0.00  0.00    +0.042 A 
ATOM     35  C   UNL     1      -2.070   1.736   2.996  0.00  0.00    +0.041 A 
ATOM     36  C   UNL     1      -1.286   2.828   2.954  0.00  0.00    +0.195 A 
ATOM     37  O   UNL     1      -0.465   2.720   1.896  0.00  0.00    -0.470 OA
ENDBRANCH  32  33
ENDBRANCH  29  32
ENDBRANCH  28  29
ENDBRANCH  25  28
ENDBRANCH  24  25
ENDBRANCH  23  24
ENDBRANCH   7  23
TORSDOF 12
