REMARK  Name = ZINC18331663
REMARK  7 active torsions:
REMARK  status: ('A' for Active; 'I' for Inactive)
REMARK    1  A    between atoms: C_1  and  C_2
REMARK    2  A    between atoms: C_5  and  S_9
REMARK    3  A    between atoms: C_6  and  C_8
REMARK    4  A    between atoms: S_9  and  C_10
REMARK    5  A    between atoms: C_10  and  C_12
REMARK    6  A    between atoms: C_10  and  C_13
REMARK    7  A    between atoms: C_19  and  C_24
REMARK                            x       y       z     vdW  Elec       q    Type
REMARK                         _______ _______ _______ _____ _____    ______ ____
ROOT
ATOM      1  C   UNL     1      -1.042   3.345   0.199  0.00  0.00    +0.124 A 
ATOM      2  N   UNL     1       0.312   3.344   0.294  0.00  0.00    -0.309 N 
ATOM      3  H   UNL     1       0.789   4.189   0.302  0.00  0.00    +0.170 HD
ATOM      4  C   UNL     1       1.007   2.194   0.375  0.00  0.00    +0.260 A 
ATOM      5  O   UNL     1       2.223   2.211   0.459  0.00  0.00    -0.267 OA
ATOM      6  C   UNL     1       0.297   0.952   0.362  0.00  0.00    +0.083 A 
ATOM      7  C   UNL     1       0.816  -0.409   0.438  0.00  0.00    +0.039 A 
ATOM      8  C   UNL     1      -0.062  -1.444   0.407  0.00  0.00    +0.059 A 
ATOM      9  S   UNL     1      -1.645  -0.637   0.273  0.00  0.00    -0.076 S 
ATOM     10  C   UNL     1      -1.101   1.051   0.261  0.00  0.00    +0.116 A 
ATOM     11  N   UNL     1      -1.718   2.227   0.189  0.00  0.00    -0.225 NA
ENDROOT
BRANCH   7  12
ATOM     12  C   UNL     1       2.268  -0.656   0.545  0.00  0.00    +0.136 A 
ATOM     13  C   UNL     1       2.876  -1.459   1.461  0.00  0.00    +0.050 A 
ATOM     14  C   UNL     1       4.259  -1.402   1.196  0.00  0.00    +0.042 A 
ATOM     15  C   UNL     1       4.427  -0.571   0.149  0.00  0.00    +0.196 A 
ATOM     16  O   UNL     1       3.222  -0.122  -0.241  0.00  0.00    -0.463 OA
ENDBRANCH   7  12
BRANCH   1  17
ATOM     17  C   UNL     1      -1.778   4.657   0.109  0.00  0.00    +0.114 C 
ATOM     18  C   UNL     1      -2.236   5.081   1.506  0.00  0.00    +0.027 C 
BRANCH  17  19
ATOM     19  S   UNL     1      -3.223   4.467  -0.970  0.00  0.00    -0.114 S 
BRANCH  19  24
ATOM     20  C   UNL     1      -0.850   3.679  -6.464  0.00  0.00    +0.044 C 
ATOM     21  C   UNL     1      -1.442   3.876  -5.093  0.00  0.00    -0.050 A 
ATOM     22  C   UNL     1      -0.619   4.169  -4.021  0.00  0.00    +0.004 A 
ATOM     23  C   UNL     1      -1.158   4.355  -2.764  0.00  0.00    +0.015 A 
ATOM     24  C   UNL     1      -2.530   4.237  -2.574  0.00  0.00    +0.011 A 
ATOM     25  C   UNL     1      -3.355   3.943  -3.653  0.00  0.00    -0.037 A 
ATOM     26  C   UNL     1      -2.808   3.763  -4.909  0.00  0.00    +0.007 A 
ATOM     27  C   UNL     1      -4.843   3.819  -3.454  0.00  0.00    +0.045 C 
ENDBRANCH  19  24
ENDBRANCH  17  19
ENDBRANCH   1  17
TORSDOF 4
