REMARK  Name = ZINC21705239
REMARK  8 active torsions:
REMARK  status: ('A' for Active; 'I' for Inactive)
REMARK    1  A    between atoms: C_1  and  C_2
REMARK    2  A    between atoms: C_2  and  C_3
REMARK    3  A    between atoms: C_6  and  N_9
REMARK    4  A    between atoms: C_10  and  C_12
REMARK    5  A    between atoms: C_12  and  N_13
REMARK    6  A    between atoms: C_20  and  C_26
REMARK    7  A    between atoms: C_29  and  O_32
REMARK    8  A    between atoms: O_32  and  C_33
REMARK                            x       y       z     vdW  Elec       q    Type
REMARK                         _______ _______ _______ _____ _____    ______ ____
ROOT
ATOM      1  N   UNL     1      -2.270   5.717   7.044  0.00  0.00    -0.203 N 
ATOM      2  C   UNL     1      -2.678   6.967   6.739  0.00  0.00    +0.353 A 
ATOM      3  O   UNL     1      -3.627   7.259   6.033  0.00  0.00    -0.244 OA
ATOM      4  N   UNL     1      -1.854   7.833   7.355  0.00  0.00    -0.233 N 
ATOM      5  C   UNL     1      -1.794   9.201   7.401  0.00  0.00    +0.210 A 
ATOM      6  N   UNL     1      -0.898   9.852   8.061  0.00  0.00    -0.235 NA
ATOM      7  C   UNL     1       0.096   9.245   8.791  0.00  0.00    +0.091 A 
ATOM      8  C   UNL     1       1.157   9.863   9.572  0.00  0.00    +0.015 A 
ATOM      9  C   UNL     1       2.043   9.063  10.223  0.00  0.00    +0.056 A 
ATOM     10  S   UNL     1       1.487   7.420   9.811  0.00  0.00    -0.091 S 
ATOM     11  C   UNL     1       0.102   7.847   8.793  0.00  0.00    +0.083 A 
ATOM     12  C   UNL     1      -0.900   7.101   8.055  0.00  0.00    +0.179 A 
ATOM     13  N   UNL     1      -1.144   5.829   7.873  0.00  0.00    -0.147 NA
ENDROOT
BRANCH   8  14
ATOM     14  C   UNL     1       1.269  11.339   9.658  0.00  0.00    -0.015 A 
ATOM     15  C   UNL     1       1.252  12.109   8.496  0.00  0.00    +0.012 A 
ATOM     16  C   UNL     1       1.351  13.483   8.579  0.00  0.00    +0.046 A 
ATOM     17  C   UNL     1       1.478  14.097   9.817  0.00  0.00    +0.120 A 
ATOM     18  C   UNL     1       1.500  13.333  10.975  0.00  0.00    +0.046 A 
ATOM     19  C   UNL     1       1.396  11.960  10.899  0.00  0.00    +0.012 A 
BRANCH  17  20
ATOM     20  O   UNL     1       1.581  15.450   9.895  0.00  0.00    -0.495 OA
ATOM     21  C   UNL     1       1.552  16.175   8.664  0.00  0.00    +0.277 C 
ENDBRANCH  17  20
ENDBRANCH   8  14
BRANCH   1  22
ATOM     22  C   UNL     1      -2.887   4.469   6.588  0.00  0.00    +0.244 C 
BRANCH  22  24
ATOM     23  N   UNL     1      -2.668   2.915   4.676  0.00  0.00    -0.284 N 
ATOM     24  C   UNL     1      -2.256   4.043   5.287  0.00  0.00    +0.239 C 
ATOM     25  O   UNL     1      -1.377   4.716   4.790  0.00  0.00    -0.273 OA
ATOM     26  H   UNL     1      -3.522   2.352   5.079  0.00  0.00    +0.155 HD
BRANCH  23  30
ATOM     27  C   UNL     1      -0.706   1.561   1.259  0.00  0.00    -0.048 A 
ATOM     28  C   UNL     1      -2.068   1.362   1.397  0.00  0.00    +0.005 A 
ATOM     29  C   UNL     1      -2.720   1.806   2.531  0.00  0.00    +0.023 A 
ATOM     30  C   UNL     1      -2.009   2.461   3.528  0.00  0.00    +0.033 A 
ATOM     31  C   UNL     1      -0.643   2.663   3.384  0.00  0.00    +0.023 A 
ATOM     32  C   UNL     1       0.004   2.213   2.250  0.00  0.00    +0.005 A 
BRANCH  27  34
ATOM     33  C   UNL     1       0.500  -0.358   0.253  0.00  0.00    +0.009 C 
ATOM     34  C   UNL     1       0.004   1.071   0.023  0.00  0.00    +0.032 C 
ENDBRANCH  27  34
ENDBRANCH  23  30
ENDBRANCH  22  24
ENDBRANCH   1  22
TORSDOF 6
