REMARK  Name = ZINC03348206
REMARK  9 active torsions:
REMARK  status: ('A' for Active; 'I' for Inactive)
REMARK    1  A    between atoms: C_1  and  C_2
REMARK    2  A    between atoms: C_2  and  C_3
REMARK    3  A    between atoms: C_2  and  C_4
REMARK    4  A    between atoms: C_2  and  C_5
REMARK    5  A    between atoms: C_8  and  C_11
REMARK    6  A    between atoms: C_14  and  S_23
REMARK    7  A    between atoms: N_15  and  C_16
REMARK    8  A    between atoms: S_23  and  C_24
REMARK    9  A    between atoms: C_24  and  C_25
REMARK                            x       y       z     vdW  Elec       q    Type
REMARK                         _______ _______ _______ _____ _____    ______ ____
ROOT
ATOM      1  C   UNL     1      -2.501   0.983  -0.131  0.00  0.00    +0.169 A 
ATOM      2  N   UNL     1      -2.643  -0.299   0.109  0.00  0.00    -0.128 NA
ATOM      3  N   UNL     1      -3.890  -0.589   0.227  0.00  0.00    -0.122 NA
ATOM      4  C   UNL     1      -4.622   0.491   0.070  0.00  0.00    +0.197 A 
ATOM      5  N   UNL     1      -3.764   1.532  -0.158  0.00  0.00    -0.270 N 
ENDROOT
BRANCH   5   6
ATOM      6  C   UNL     1      -4.100   2.876  -0.376  0.00  0.00    +0.051 A 
ATOM      7  C   UNL     1      -3.775   3.836   0.572  0.00  0.00    +0.027 A 
ATOM      8  C   UNL     1      -4.104   5.160   0.353  0.00  0.00    +0.017 A 
ATOM      9  C   UNL     1      -4.765   5.527  -0.806  0.00  0.00    +0.018 A 
ATOM     10  C   UNL     1      -5.094   4.571  -1.750  0.00  0.00    +0.017 A 
ATOM     11  C   UNL     1      -4.764   3.247  -1.538  0.00  0.00    +0.027 A 
ATOM     12 BR   UNL     1      -5.218   7.339  -1.100  0.00  0.00    -0.050 Br
ENDBRANCH   5   6
BRANCH   1  16
ATOM     13  C   UNL     1       1.164   3.056  -0.695  0.00  0.00    -0.042 A 
ATOM     14  C   UNL     1      -0.024   3.632  -1.108  0.00  0.00    +0.005 A 
ATOM     15  C   UNL     1      -1.218   2.963  -0.932  0.00  0.00    +0.012 A 
ATOM     16  C   UNL     1      -1.225   1.704  -0.329  0.00  0.00    +0.020 A 
ATOM     17  C   UNL     1      -0.023   1.126   0.082  0.00  0.00    +0.012 A 
ATOM     18  C   UNL     1       1.163   1.806  -0.101  0.00  0.00    +0.005 A 
BRANCH  13  20
ATOM     19  C   UNL     1       2.414   5.124  -0.138  0.00  0.00    +0.015 C 
ATOM     20  C   UNL     1       2.463   3.793  -0.891  0.00  0.00    -0.013 C 
ATOM     21  C   UNL     1       3.617   2.945  -0.352  0.00  0.00    +0.015 C 
ATOM     22  C   UNL     1       2.679   4.059  -2.382  0.00  0.00    +0.015 C 
ENDBRANCH  13  20
ENDBRANCH   1  16
BRANCH   4  23
ATOM     23  S   UNL     1      -6.380   0.583   0.144  0.00  0.00    -0.076 S 
BRANCH  23  24
ATOM     24  C   UNL     1      -6.771  -1.153   0.480  0.00  0.00    +0.173 C 
BRANCH  24  25
ATOM     25  C   UNL     1      -8.265  -1.319   0.588  0.00  0.00    +0.231 C 
ATOM     26  O   UNL     1      -8.993  -0.360   0.451  0.00  0.00    -0.274 OA
ATOM     27  N   UNL     1      -8.791  -2.535   0.836  0.00  0.00    -0.240 N 
ATOM     28  C   UNL     1     -10.127  -2.684   0.932  0.00  0.00    +0.303 C 
ATOM     29  O   UNL     1     -10.857  -1.722   0.796  0.00  0.00    -0.253 OA
ATOM     30  N   UNL     1     -10.653  -3.900   1.180  0.00  0.00    -0.313 N 
ATOM     31  H   UNL     1      -8.208  -3.303   0.945  0.00  0.00    +0.159 HD
ATOM     32  H   UNL     1     -10.070  -4.668   1.289  0.00  0.00    +0.146 HD
ATOM     33  H   UNL     1     -11.615  -4.007   1.250  0.00  0.00    +0.146 HD
ENDBRANCH  24  25
ENDBRANCH  23  24
ENDBRANCH   4  23
TORSDOF 6
