REMARK  Name = ZINC09360735
REMARK  17 active torsions:
REMARK  status: ('A' for Active; 'I' for Inactive)
REMARK    1  A    between atoms: C_1  and  C_2
REMARK    2  A    between atoms: C_2  and  O_3
REMARK    3  A    between atoms: O_3  and  C_4
REMARK    4  A    between atoms: C_6  and  C_11
REMARK    5  A    between atoms: C_9  and  O_10
REMARK    6  A    between atoms: C_14  and  C_15
REMARK    7  A    between atoms: C_14  and  O_25
REMARK    8  A    between atoms: C_18  and  O_21
REMARK    9  A    between atoms: O_21  and  C_22
REMARK   10  A    between atoms: C_22  and  C_23
REMARK   11  A    between atoms: C_22  and  C_24
REMARK   12  A    between atoms: N_30  and  C_31
REMARK   13  A    between atoms: C_31  and  C_32
REMARK   14  A    between atoms: C_32  and  C_33
REMARK   15  A    between atoms: C_33  and  N_69
REMARK   16  A    between atoms: C_34  and  N_69
REMARK   17  A    between atoms: C_35  and  N_69
REMARK                            x       y       z     vdW  Elec       q    Type
REMARK                         _______ _______ _______ _____ _____    ______ ____
ROOT
ATOM      1  C   UNL     1       2.433  -0.559  -1.328  0.00  0.00    +0.145 C 
ATOM      2  C   UNL     1       2.658  -1.041  -2.743  0.00  0.00    +0.071 C 
ATOM      3  C   UNL     1       3.703  -1.822  -3.197  0.00  0.00    +0.133 C 
ATOM      4  C   UNL     1       1.593  -0.534  -3.502  0.00  0.00    +0.249 C 
ATOM      5  O   UNL     1       1.421  -0.707  -4.695  0.00  0.00    -0.282 OA
ATOM      6  C   UNL     1       0.707   0.245  -2.596  0.00  0.00    +0.288 C 
ATOM      7  O   UNL     1      -0.311   0.812  -2.937  0.00  0.00    -0.266 OA
ATOM      8  N   UNL     1       1.199   0.232  -1.346  0.00  0.00    -0.284 N 
ENDROOT
BRANCH   1  11
ATOM      9  C   UNL     1       5.612   0.564   0.376  0.00  0.00    +0.162 A 
ATOM     10  C   UNL     1       4.548  -0.223  -0.035  0.00  0.00    +0.055 A 
ATOM     11  C   UNL     1       3.590   0.298  -0.883  0.00  0.00    -0.019 A 
ATOM     12  C   UNL     1       3.692   1.603  -1.329  0.00  0.00    +0.009 A 
ATOM     13  C   UNL     1       4.748   2.395  -0.920  0.00  0.00    +0.049 A 
ATOM     14  C   UNL     1       5.713   1.879  -0.069  0.00  0.00    +0.158 A 
BRANCH  14  15
ATOM     15  O   UNL     1       6.755   2.655   0.330  0.00  0.00    -0.503 OA
ATOM     16  H   UNL     1       7.526   2.608  -0.252  0.00  0.00    +0.292 HD
ENDBRANCH  14  15
BRANCH   9  17
ATOM     17  O   UNL     1       6.556   0.053   1.211  0.00  0.00    -0.489 OA
BRANCH  17  19
ATOM     18  C   UNL     1       7.538  -1.698   2.556  0.00  0.00    +0.048 C 
ATOM     19  C   UNL     1       6.388  -1.304   1.627  0.00  0.00    +0.226 C 
ENDBRANCH  17  19
ENDBRANCH   9  17
ENDBRANCH   1  11
BRANCH   3  20
ATOM     20  C   UNL     1       3.719  -2.292  -4.591  0.00  0.00    +0.017 A 
ATOM     21  C   UNL     1       2.587  -2.912  -5.135  0.00  0.00    +0.015 A 
ATOM     22  C   UNL     1       2.604  -3.344  -6.442  0.00  0.00    +0.046 A 
ATOM     23  C   UNL     1       3.747  -3.178  -7.217  0.00  0.00    +0.121 A 
ATOM     24  C   UNL     1       4.875  -2.569  -6.678  0.00  0.00    +0.046 A 
ATOM     25  C   UNL     1       4.866  -2.127  -5.375  0.00  0.00    +0.015 A 
BRANCH  23  26
ATOM     26  O   UNL     1       3.761  -3.611  -8.503  0.00  0.00    -0.489 OA
BRANCH  26  27
ATOM     27  C   UNL     1       2.616  -4.336  -8.955  0.00  0.00    +0.167 C 
ATOM     28  C   UNL     1       1.575  -3.357  -9.503  0.00  0.00    +0.051 C 
ATOM     29  C   UNL     1       3.032  -5.309 -10.060  0.00  0.00    +0.051 C 
ENDBRANCH  26  27
ENDBRANCH  23  26
ENDBRANCH   3  20
BRANCH   3  30
ATOM     30  O   UNL     1       4.711  -2.154  -2.361  0.00  0.00    -0.506 OA
ATOM     31  H   UNL     1       5.377  -2.718  -2.850  0.00  0.00    +0.292 HD
ENDBRANCH   3  30
BRANCH   8  32
ATOM     32  C   UNL     1       0.597   0.895  -0.187  0.00  0.00    +0.107 C 
BRANCH  32  33
ATOM     33  C   UNL     1       1.153   2.315  -0.066  0.00  0.00    +0.000 C 
BRANCH  33  34
ATOM     34  C   UNL     1       0.524   3.008   1.145  0.00  0.00    -0.078 C 
BRANCH  34  37
ATOM     35  C   UNL     1       0.637   5.201   0.125  0.00  0.00    -0.097 C 
ATOM     36  C   UNL     1       0.664   4.985   2.536  0.00  0.00    -0.097 C 
ATOM     37  N   UNL     1       1.088   4.370   1.260  0.00  0.00    +0.376 N 
ATOM     38  H   UNL     1       2.112   4.309   1.243  0.00  0.00    -0.083 HD
ENDBRANCH  34  37
ENDBRANCH  33  34
ENDBRANCH  32  33
ENDBRANCH   8  32
TORSDOF 12
