REMARK  Name = ZINC05976741
REMARK  8 active torsions:
REMARK  status: ('A' for Active; 'I' for Inactive)
REMARK    1  A    between atoms: C_1  and  C_2
REMARK    2  A    between atoms: C_2  and  C_3
REMARK    3  A    between atoms: C_2  and  C_4
REMARK    4  A    between atoms: C_2  and  C_5
REMARK    5  A    between atoms: C_8  and  C_23
REMARK    6  A    between atoms: N_13  and  C_16
REMARK    7  A    between atoms: C_23  and  N_57
REMARK    8  A    between atoms: C_24  and  N_57
REMARK                            x       y       z     vdW  Elec       q    Type
REMARK                         _______ _______ _______ _____ _____    ______ ____
ROOT
ATOM      1  C   UNL     1       0.953  -2.062  -0.018  0.00  0.00    +0.049 A 
ATOM      2  C   UNL     1       1.240  -0.701  -0.013  0.00  0.00    +0.041 A 
ATOM      3  C   UNL     1       2.447   0.037  -0.021  0.00  0.00    +0.020 A 
ATOM      4  C   UNL     1       2.376   1.393  -0.013  0.00  0.00    +0.003 A 
ATOM      5  C   UNL     1       1.115   2.026   0.002  0.00  0.00    +0.273 A 
ATOM      6  O   UNL     1       1.055   3.247   0.009  0.00  0.00    -0.266 OA
ATOM      7  N   UNL     1      -0.016   1.315   0.009  0.00  0.00    -0.189 NA
ATOM      8  C   UNL     1       0.002  -0.004   0.002  0.00  0.00    +0.165 A 
ATOM      9  N   UNL     1      -0.991  -0.959   0.006  0.00  0.00    -0.236 N 
ATOM     10  N   UNL     1      -0.380  -2.218  -0.006  0.00  0.00    -0.294 N 
ATOM     11  H   UNL     1      -0.846  -3.069  -0.006  0.00  0.00    +0.187 HD
ENDROOT
BRANCH   9  12
ATOM     12  C   UNL     1      -2.368  -0.713   0.021  0.00  0.00    +0.066 A 
ATOM     13  C   UNL     1      -2.896   0.238   0.885  0.00  0.00    +0.029 A 
ATOM     14  C   UNL     1      -4.255   0.482   0.894  0.00  0.00    +0.022 A 
ATOM     15  C   UNL     1      -5.092  -0.227   0.050  0.00  0.00    +0.041 A 
ATOM     16  C   UNL     1      -4.569  -1.178  -0.808  0.00  0.00    +0.022 A 
ATOM     17  C   UNL     1      -3.210  -1.423  -0.825  0.00  0.00    +0.029 A 
ATOM     18 CL   UNL     1      -6.801   0.078   0.069  0.00  0.00    -0.084 Cl
ENDBRANCH   9  12
BRANCH   1  20
ATOM     19  C   UNL     1       1.248  -4.524  -0.034  0.00  0.00    +0.017 C 
ATOM     20  C   UNL     1       1.969  -3.175  -0.034  0.00  0.00    +0.005 C 
ATOM     21  C   UNL     1       2.834  -3.058  -1.291  0.00  0.00    +0.017 C 
ATOM     22  C   UNL     1       2.857  -3.071   1.208  0.00  0.00    +0.017 C 
ENDBRANCH   1  20
BRANCH   4  23
ATOM     23  C   UNL     1       3.637   2.219  -0.021  0.00  0.00    -0.041 C 
BRANCH  23  24
ATOM     24  N   UNL     1       3.831   2.792  -1.366  0.00  0.00    +0.384 N 
ATOM     25  H   UNL     1       3.026   3.384  -1.601  0.00  0.00    -0.085 HD
ATOM     26  H   UNL     1       3.908   2.031  -2.051  0.00  0.00    -0.085 HD
BRANCH  24  27
ATOM     27  C   UNL     1       5.061   3.606  -1.404  0.00  0.00    -0.071 C 
ATOM     28  C   UNL     1       4.751   5.022  -0.913  0.00  0.00    -0.016 C 
ATOM     29  C   UNL     1       6.025   5.868  -0.960  0.00  0.00    -0.002 C 
ATOM     30  C   UNL     1       6.543   5.929  -2.399  0.00  0.00    -0.000 C 
ATOM     31  C   UNL     1       6.853   4.514  -2.889  0.00  0.00    -0.002 C 
ATOM     32  C   UNL     1       5.579   3.667  -2.842  0.00  0.00    -0.016 C 
ENDBRANCH  24  27
ENDBRANCH  23  24
ENDBRANCH   4  23
TORSDOF 5
