REMARK  Name = ZINC09981599
REMARK  7 active torsions:
REMARK  status: ('A' for Active; 'I' for Inactive)
REMARK    1  A    between atoms: C_1  and  C_2
REMARK    2  A    between atoms: C_2  and  C_3
REMARK    3  A    between atoms: C_6  and  C_8
REMARK    4  A    between atoms: C_10  and  C_35
REMARK    5  A    between atoms: C_11  and  N_34
REMARK    6  A    between atoms: N_12  and  C_27
REMARK    7  A    between atoms: C_18  and  C_21
REMARK                            x       y       z     vdW  Elec       q    Type
REMARK                         _______ _______ _______ _____ _____    ______ ____
ROOT
ATOM      1  C   UNL     1      -0.639   5.309   0.201  0.00  0.00    +0.104 C 
ATOM      2  C   UNL     1      -0.948   6.129  -1.017  0.00  0.00    +0.077 C 
ATOM      3  C   UNL     1      -1.165   5.541  -2.222  0.00  0.00    +0.107 C 
ATOM      4  N   UNL     1      -1.097   4.172  -2.345  0.00  0.00    -0.260 N 
ATOM      5  C   UNL     1      -0.441   3.420  -1.405  0.00  0.00    +0.025 C 
ATOM      6  C   UNL     1      -0.188   3.921  -0.177  0.00  0.00    +0.026 C 
ATOM      7  C   UNL     1       0.499   3.163   0.787  0.00  0.00    +0.162 C 
ATOM      8  O   UNL     1       0.700   3.640   1.887  0.00  0.00    -0.292 OA
ATOM      9  C   UNL     1       0.990   1.774   0.484  0.00  0.00    +0.088 C 
ATOM     10  C   UNL     1       1.270   1.662  -1.018  0.00  0.00    +0.032 C 
ATOM     11  C   UNL     1      -0.004   2.026  -1.783  0.00  0.00    +0.060 C 
ENDROOT
BRANCH   4  12
ATOM     12  C   UNL     1      -1.701   3.542  -3.438  0.00  0.00    +0.041 A 
ATOM     13  C   UNL     1      -3.004   3.071  -3.337  0.00  0.00    +0.024 A 
ATOM     14  C   UNL     1      -3.599   2.450  -4.418  0.00  0.00    +0.003 A 
ATOM     15  C   UNL     1      -2.899   2.297  -5.601  0.00  0.00    +0.020 A 
ATOM     16  C   UNL     1      -1.601   2.766  -5.706  0.00  0.00    +0.043 A 
ATOM     17  C   UNL     1      -1.002   3.392  -4.629  0.00  0.00    +0.043 A 
ATOM     18 CL   UNL     1      -0.727   2.573  -7.193  0.00  0.00    -0.083 Cl
ENDBRANCH   4  12
BRANCH  10  19
ATOM     19  C   UNL     1       1.676   0.250  -1.353  0.00  0.00    -0.044 A 
ATOM     20  C   UNL     1       0.816  -0.798  -1.086  0.00  0.00    +0.004 A 
ATOM     21  C   UNL     1       1.187  -2.093  -1.397  0.00  0.00    +0.000 A 
ATOM     22  C   UNL     1       2.421  -2.341  -1.968  0.00  0.00    +0.000 A 
ATOM     23  C   UNL     1       3.284  -1.293  -2.231  0.00  0.00    +0.000 A 
ATOM     24  C   UNL     1       2.911   0.003  -1.923  0.00  0.00    +0.004 A 
ENDBRANCH  10  19
BRANCH   1  28
ATOM     25  C   UNL     1      -4.278   4.821   2.218  0.00  0.00    -0.010 A 
ATOM     26  C   UNL     1      -3.302   5.447   2.921  0.00  0.00    +0.011 A 
ATOM     27  C   UNL     1      -2.071   5.646   2.327  0.00  0.00    +0.012 A 
ATOM     28  C   UNL     1      -1.875   5.212   1.058  0.00  0.00    +0.003 A 
ATOM     29  S   UNL     1      -3.463   4.499   0.663  0.00  0.00    -0.097 S 
BRANCH  25  31
ATOM     30  C   UNL     1      -6.614   5.651   2.275  0.00  0.00    +0.009 C 
ATOM     31  C   UNL     1      -5.687   4.489   2.639  0.00  0.00    +0.039 C 
ENDBRANCH  25  31
ENDBRANCH   1  28
BRANCH   3  32
ATOM     32  N   UNL     1      -1.453   6.315  -3.321  0.00  0.00    -0.345 N 
ATOM     33  H   UNL     1      -1.517   5.906  -4.198  0.00  0.00    +0.144 HD
ATOM     34  H   UNL     1      -1.593   7.269  -3.219  0.00  0.00    +0.144 HD
ENDBRANCH   3  32
BRANCH   2  35
ATOM     35  C   UNL     1      -1.016   7.556  -0.907  0.00  0.00    +0.099 C 
ATOM     36  N   UNL     1      -1.069   8.687  -0.821  0.00  0.00    -0.191 NA
ENDBRANCH   2  35
TORSDOF 6
