REMARK  Name = ZINC13843193
REMARK  7 active torsions:
REMARK  status: ('A' for Active; 'I' for Inactive)
REMARK    1  A    between atoms: C_1  and  C_2
REMARK    2  A    between atoms: C_9  and  C_11
REMARK    3  A    between atoms: C_15  and  N_17
REMARK    4  A    between atoms: N_17  and  C_18
REMARK    5  A    between atoms: C_18  and  N_20
REMARK    6  A    between atoms: C_21  and  C_23
REMARK    7  A    between atoms: C_23  and  C_24
REMARK                            x       y       z     vdW  Elec       q    Type
REMARK                         _______ _______ _______ _____ _____    ______ ____
ROOT
ATOM      1  N   UNL     1      -0.017   1.395   0.010  0.00  0.00    -0.295 N 
ATOM      2  H   UNL     1      -0.855   1.803   0.280  0.00  0.00    +0.154 HD
ENDROOT
BRANCH   1   7
ATOM      3  C   UNL     1       1.414  -1.954   0.581  0.00  0.00    +0.039 A 
ATOM      4  C   UNL     1       0.390  -2.761   0.082  0.00  0.00    +0.015 A 
ATOM      5  C   UNL     1      -0.753  -2.186  -0.433  0.00  0.00    +0.022 A 
ATOM      6  C   UNL     1      -0.890  -0.809  -0.458  0.00  0.00    +0.062 A 
ATOM      7  C   UNL     1       0.125   0.003   0.037  0.00  0.00    +0.052 A 
ATOM      8  C   UNL     1       1.279  -0.566   0.551  0.00  0.00    +0.038 A 
ATOM      9 CL   UNL     1      -2.332  -0.094  -1.108  0.00  0.00    -0.082 Cl
BRANCH   3  18
ATOM     10  C   UNL     1       6.881  -6.285   2.994  0.00  0.00    +0.044 C 
ATOM     11  C   UNL     1       6.076  -5.057   2.656  0.00  0.00    -0.048 A 
ATOM     12  C   UNL     1       6.591  -3.798   2.931  0.00  0.00    +0.007 A 
ATOM     13  C   UNL     1       5.866  -2.664   2.627  0.00  0.00    +0.049 A 
ATOM     14  C   UNL     1       4.614  -2.780   2.043  0.00  0.00    +0.156 A 
ATOM     15  C   UNL     1       4.089  -4.052   1.763  0.00  0.00    +0.110 A 
ATOM     16  C   UNL     1       4.835  -5.191   2.077  0.00  0.00    +0.035 A 
ATOM     17  N   UNL     1       2.868  -3.855   1.202  0.00  0.00    -0.209 NA
ATOM     18  C   UNL     1       2.640  -2.568   1.133  0.00  0.00    +0.228 A 
ATOM     19  O   UNL     1       3.688  -1.885   1.632  0.00  0.00    -0.435 OA
ENDBRANCH   3  18
ENDBRANCH   1   7
BRANCH   1  20
ATOM     20  C   UNL     1       1.008   2.170  -0.398  0.00  0.00    +0.141 C 
ATOM     21  S   UNL     1       2.433   1.448  -1.014  0.00  0.00    -0.018 S 
BRANCH  20  22
ATOM     22  N   UNL     1       0.912   3.512  -0.320  0.00  0.00    -0.268 N 
ATOM     23  C   UNL     1       1.937   4.286  -0.727  0.00  0.00    +0.219 C 
ATOM     24  O   UNL     1       2.946   3.775  -1.164  0.00  0.00    -0.275 OA
ATOM     25  H   UNL     1       0.104   3.920   0.029  0.00  0.00    +0.156 HD
BRANCH  23  26
ATOM     26  C   UNL     1       1.829   5.786  -0.640  0.00  0.00    +0.103 C 
BRANCH  26  27
ATOM     27  C   UNL     1       3.119   6.422  -1.162  0.00  0.00    -0.020 C 
ATOM     28  C   UNL     1       4.301   5.946  -0.315  0.00  0.00    +0.011 C 
ATOM     29  C   UNL     1       5.591   6.581  -0.837  0.00  0.00    -0.010 C 
ATOM     30  C   UNL     1       5.482   8.104  -0.749  0.00  0.00    +0.007 C 
ATOM     31  C   UNL     1       4.300   8.581  -1.596  0.00  0.00    -0.010 C 
ATOM     32  C   UNL     1       3.010   7.945  -1.074  0.00  0.00    +0.011 C 
ATOM     33  C   UNL     1       4.518   8.168  -3.053  0.00  0.00    +0.007 C 
ATOM     34  C   UNL     1       4.628   6.645  -3.141  0.00  0.00    -0.010 C 
ATOM     35  C   UNL     1       5.809   6.169  -2.295  0.00  0.00    +0.007 C 
ATOM     36  C   UNL     1       3.337   6.010  -2.619  0.00  0.00    +0.011 C 
ENDBRANCH  26  27
ENDBRANCH  23  26
ENDBRANCH  20  22
ENDBRANCH   1  20
TORSDOF 6
