REMARK  Name = ZINC32843253
REMARK  7 active torsions:
REMARK  status: ('A' for Active; 'I' for Inactive)
REMARK    1  A    between atoms: C_1  and  C_2
REMARK    2  A    between atoms: C_2  and  C_25
REMARK    3  A    between atoms: C_3  and  C_4
REMARK    4  A    between atoms: C_6  and  C_11
REMARK    5  A    between atoms: C_8  and  C_9
REMARK    6  A    between atoms: C_8  and  C_10
REMARK    7  A    between atoms: N_13  and  C_14
REMARK                            x       y       z     vdW  Elec       q    Type
REMARK                         _______ _______ _______ _____ _____    ______ ____
ROOT
ATOM      1  C   UNL     1       5.724   0.402  -4.240  0.00  0.00    +0.221 C 
ATOM      2  O   UNL     1       5.214   1.490  -4.410  0.00  0.00    -0.275 OA
ATOM      3  N   UNL     1       5.525  -0.263  -3.085  0.00  0.00    -0.285 N 
ATOM      4  H   UNL     1       6.052  -1.210  -2.898  0.00  0.00    +0.155 HD
ENDROOT
BRANCH   3   5
ATOM      5  C   UNL     1       4.647   0.253  -2.122  0.00  0.00    +0.035 A 
ATOM      6  C   UNL     1       4.942   0.118  -0.772  0.00  0.00    +0.027 A 
ATOM      7  C   UNL     1       4.079   0.625   0.182  0.00  0.00    +0.049 A 
ATOM      8  C   UNL     1       2.918   1.269  -0.209  0.00  0.00    +0.142 A 
ATOM      9  C   UNL     1       2.619   1.405  -1.564  0.00  0.00    +0.077 A 
ATOM     10  C   UNL     1       3.483   0.898  -2.519  0.00  0.00    +0.050 A 
ATOM     11  N   UNL     1       1.438   2.059  -1.944  0.00  0.00    -0.280 N 
ATOM     12  C   UNL     1       0.783   2.810  -1.031  0.00  0.00    +0.255 C 
ATOM     13  O   UNL     1      -0.256   3.360  -1.329  0.00  0.00    -0.272 OA
ATOM     14  C   UNL     1       1.349   2.961   0.358  0.00  0.00    +0.325 C 
ATOM     15  O   UNL     1       2.060   1.774   0.719  0.00  0.00    -0.481 OA
ATOM     16  H   UNL     1       1.058   1.957  -2.971  0.00  0.00    +0.155 HD
ENDBRANCH   3   5
BRANCH   1  18
ATOM     17  C   UNL     1       8.051  -0.464  -4.997  0.00  0.00    +0.030 C 
ATOM     18  C   UNL     1       6.579  -0.206  -5.322  0.00  0.00    +0.089 C 
ATOM     19  C   UNL     1       7.665   0.675  -5.943  0.00  0.00    -0.016 C 
ATOM     20  C   UNL     1       7.961   0.488  -7.432  0.00  0.00    +0.012 C 
ATOM     21  C   UNL     1       7.800   2.106  -5.418  0.00  0.00    +0.012 C 
BRANCH  17  24
ATOM     22  C   UNL     1      10.635  -1.244  -4.190  0.00  0.00    +0.038 C 
ATOM     23  C   UNL     1       9.896  -2.047  -5.229  0.00  0.00    -0.079 C 
ATOM     24  C   UNL     1       8.694  -1.685  -5.604  0.00  0.00    -0.023 C 
ATOM     25  C   UNL     1      10.539  -3.268  -5.835  0.00  0.00    +0.038 C 
ENDBRANCH  17  24
ENDBRANCH   1  18
TORSDOF 3
