REMARK  Name = ZINC20634924
REMARK  4 active torsions:
REMARK  status: ('A' for Active; 'I' for Inactive)
REMARK    1  A    between atoms: C_4  and  C_7
REMARK    2  A    between atoms: C_24  and  C_26
REMARK    3  A    between atoms: C_26  and  S_27
REMARK    4  A    between atoms: S_27  and  C_28
REMARK                            x       y       z     vdW  Elec       q    Type
REMARK                         _______ _______ _______ _____ _____    ______ ____
ROOT
ATOM      1  C   UNL     1       3.697  -0.686  -0.037  0.00  0.00    +0.084 A 
ATOM      2  C   UNL     1       3.885  -1.861   0.732  0.00  0.00    +0.028 A 
ATOM      3  C   UNL     1       2.870  -2.394   1.535  0.00  0.00    +0.032 A 
ATOM      4  C   UNL     1       3.108  -3.529   2.255  0.00  0.00    +0.042 A 
ATOM      5  C   UNL     1       4.347  -4.164   2.200  0.00  0.00    +0.022 A 
ATOM      6  C   UNL     1       5.356  -3.671   1.428  0.00  0.00    +0.030 A 
ATOM      7  C   UNL     1       5.146  -2.506   0.675  0.00  0.00    +0.077 A 
ATOM      8  N   UNL     1       6.105  -1.981  -0.100  0.00  0.00    -0.214 NA
ATOM      9  C   UNL     1       5.876  -0.885  -0.795  0.00  0.00    +0.223 A 
ATOM     10  N   UNL     1       4.708  -0.251  -0.777  0.00  0.00    -0.214 NA
ATOM     11  N   UNL     1       6.896  -0.374  -1.585  0.00  0.00    -0.254 N 
ATOM     12  C   UNL     1       8.112  -1.009  -1.630  0.00  0.00    +0.202 A 
ATOM     13  N   UNL     1       9.106  -0.495  -2.404  0.00  0.00    -0.295 N 
ATOM     14  H   UNL     1       8.954   0.313  -2.918  0.00  0.00    +0.172 HD
ATOM     15  C   UNL     1      10.305  -1.113  -2.453  0.00  0.00    +0.253 A 
ATOM     16  O   UNL     1      11.208  -0.666  -3.142  0.00  0.00    -0.268 OA
ATOM     17  C   UNL     1      10.494  -2.283  -1.695  0.00  0.00    +0.094 A 
ATOM     18  C   UNL     1       9.460  -2.752  -0.937  0.00  0.00    +0.060 A 
ATOM     19  N   UNL     1       8.298  -2.102  -0.919  0.00  0.00    -0.220 NA
ATOM     20 CL   UNL     1       1.850  -4.190   3.252  0.00  0.00    -0.084 Cl
ATOM     21  H   UNL     1       6.750   0.431  -2.105  0.00  0.00    +0.158 HD
ENDROOT
BRANCH   1  25
ATOM     22  C   UNL     1      -0.016   1.380   0.011  0.00  0.00    +0.000 A 
ATOM     23  C   UNL     1       0.537   0.930   1.196  0.00  0.00    +0.001 A 
ATOM     24  C   UNL     1       1.742   0.258   1.187  0.00  0.00    +0.010 A 
ATOM     25  C   UNL     1       2.403   0.034  -0.021  0.00  0.00    +0.001 A 
ATOM     26  C   UNL     1       1.840   0.490  -1.213  0.00  0.00    +0.010 A 
ATOM     27  C   UNL     1       0.634   1.160  -1.190  0.00  0.00    +0.001 A 
ENDBRANCH   1  25
BRANCH  18  28
ATOM     28  C   UNL     1       9.636  -4.003  -0.116  0.00  0.00    +0.132 C 
BRANCH  28  29
ATOM     29  S   UNL     1       9.812  -3.558   1.633  0.00  0.00    -0.091 S 
BRANCH  29  30
ATOM     30  C   UNL     1      10.007  -5.107   2.450  0.00  0.00    +0.160 A 
ATOM     31  N   UNL     1      10.031  -6.324   1.940  0.00  0.00    -0.133 NA
ATOM     32  N   UNL     1      10.196  -7.410   2.768  0.00  0.00    -0.125 NA
ATOM     33  C   UNL     1      10.330  -7.230   4.067  0.00  0.00    +0.180 A 
ATOM     34  S   UNL     1      10.232  -5.451   4.188  0.00  0.00    -0.025 S 
ATOM     35  N   UNL     1      10.505  -8.173   5.073  0.00  0.00    -0.336 N 
ATOM     36  H   UNL     1      10.544  -9.117   4.852  0.00  0.00    +0.144 HD
ATOM     37  H   UNL     1      10.589  -7.888   5.996  0.00  0.00    +0.144 HD
ENDBRANCH  29  30
ENDBRANCH  28  29
ENDBRANCH  18  28
TORSDOF 4
