REMARK  Name = ZINC08646198
REMARK  13 active torsions:
REMARK  status: ('A' for Active; 'I' for Inactive)
REMARK    1  A    between atoms: C_1  and  C_2
REMARK    2  A    between atoms: C_2  and  C_3
REMARK    3  A    between atoms: C_3  and  C_4
REMARK    4  A    between atoms: C_4  and  N_5
REMARK    5  A    between atoms: C_9  and  C_33
REMARK    6  A    between atoms: C_10  and  C_32
REMARK    7  A    between atoms: C_14  and  S_15
REMARK    8  A    between atoms: S_15  and  C_16
REMARK    9  A    between atoms: C_16  and  C_18
REMARK   10  A    between atoms: C_16  and  C_19
REMARK   11  A    between atoms: N_21  and  C_22
REMARK   12  A    between atoms: C_25  and  S_28
REMARK   13  A    between atoms: S_28  and  N_31
REMARK                            x       y       z     vdW  Elec       q    Type
REMARK                         _______ _______ _______ _____ _____    ______ ____
ROOT
ATOM      1  C   UNL     1      -2.689   0.484   0.037  0.00  0.00    +0.137 C 
ATOM      2  C   UNL     1      -2.561   1.282  -1.262  0.00  0.00    +0.029 C 
ENDROOT
BRANCH   1   3
ATOM      3  C   UNL     1      -4.093  -0.048   0.163  0.00  0.00    +0.230 C 
ATOM      4  O   UNL     1      -4.334  -1.200  -0.128  0.00  0.00    -0.274 OA
ATOM      5  N   UNL     1      -5.082   0.757   0.600  0.00  0.00    -0.285 N 
ATOM      6  H   UNL     1      -4.878   1.658   0.896  0.00  0.00    +0.155 HD
BRANCH   5   7
ATOM      7  C   UNL     1      -6.402   0.294   0.625  0.00  0.00    +0.034 A 
ATOM      8  C   UNL     1      -7.450   1.164   0.358  0.00  0.00    +0.025 A 
ATOM      9  C   UNL     1      -8.752   0.702   0.377  0.00  0.00    +0.030 A 
ATOM     10  C   UNL     1      -9.012  -0.623   0.675  0.00  0.00    +0.105 A 
ATOM     11  C   UNL     1      -7.970  -1.491   0.948  0.00  0.00    +0.030 A 
ATOM     12  C   UNL     1      -6.666  -1.037   0.924  0.00  0.00    +0.025 A 
BRANCH  10  13
ATOM     13  S   UNL     1     -10.674  -1.207   0.707  0.00  0.00    +0.056 S 
ATOM     14  O   UNL     1     -11.429  -0.330  -0.117  0.00  0.00    -0.153 OA
ATOM     15  O   UNL     1     -10.617  -2.608   0.476  0.00  0.00    -0.153 OA
BRANCH  13  16
ATOM     16  N   UNL     1     -11.235  -1.005   2.252  0.00  0.00    -0.204 NA
ATOM     17  H   UNL     1     -12.178  -0.842   2.408  0.00  0.00    +0.144 HD
ATOM     18  H   UNL     1     -10.620  -1.050   3.001  0.00  0.00    +0.144 HD
ENDBRANCH  13  16
ENDBRANCH  10  13
ENDBRANCH   5   7
ENDBRANCH   1   3
BRANCH   1  19
ATOM     19  S   UNL     1      -1.520  -0.898   0.014  0.00  0.00    -0.075 S 
BRANCH  19  29
ATOM     20  N   UNL     1       1.182  -0.698  -0.000  0.00  0.00    -0.287 N 
ATOM     21  C   UNL     1       2.364  -0.056   0.000  0.00  0.00    +0.263 A 
ATOM     22  O   UNL     1       3.408  -0.684  -0.013  0.00  0.00    -0.267 OA
ATOM     23  C   UNL     1       2.380   1.375   0.016  0.00  0.00    +0.075 A 
ATOM     24  C   UNL     1       3.514   2.282   0.020  0.00  0.00    -0.026 A 
ATOM     25  C   UNL     1       3.295   3.605   0.036  0.00  0.00    -0.008 A 
ATOM     26  S   UNL     1       1.516   3.730   0.048  0.00  0.00    -0.073 S 
ATOM     27  C   UNL     1       1.119   2.001   0.031  0.00  0.00    +0.117 A 
ATOM     28  N   UNL     1      -0.013   1.306   0.030  0.00  0.00    -0.216 NA
ATOM     29  C   UNL     1       0.003  -0.011   0.015  0.00  0.00    +0.173 A 
ATOM     30  C   UNL     1       4.309   4.720   0.043  0.00  0.00    +0.052 C 
ATOM     31  C   UNL     1       4.921   1.743   0.005  0.00  0.00    +0.045 C 
BRANCH  20  32
ATOM     32  C   UNL     1       1.160  -2.163  -0.016  0.00  0.00    +0.127 C 
BRANCH  32  33
ATOM     33  C   UNL     1       1.144  -2.657  -1.464  0.00  0.00    +0.021 C 
BRANCH  33  35
ATOM     34  C   UNL     1       1.105  -4.681  -2.929  0.00  0.00    +0.004 C 
ATOM     35  C   UNL     1       1.121  -4.187  -1.481  0.00  0.00    -0.002 C 
ENDBRANCH  33  35
ENDBRANCH  32  33
ENDBRANCH  20  32
ENDBRANCH  19  29
ENDBRANCH   1  19
TORSDOF 9
