REMARK  Name = ZINC09510336
REMARK  11 active torsions:
REMARK  status: ('A' for Active; 'I' for Inactive)
REMARK    1  A    between atoms: C_1  and  C_2
REMARK    2  A    between atoms: C_9  and  C_19
REMARK    3  A    between atoms: C_12  and  C_13
REMARK    4  A    between atoms: C_19  and  O_21
REMARK    5  A    between atoms: O_21  and  C_22
REMARK    6  A    between atoms: C_22  and  C_23
REMARK    7  A    between atoms: N_28  and  C_29
REMARK    8  A    between atoms: C_29  and  C_30
REMARK    9  A    between atoms: C_30  and  C_31
REMARK   10  A    between atoms: C_31  and  C_32
REMARK   11  A    between atoms: C_31  and  C_33
REMARK                            x       y       z     vdW  Elec       q    Type
REMARK                         _______ _______ _______ _____ _____    ______ ____
ROOT
ATOM      1  C   UNL     1      -3.587   6.283  -0.090  0.00  0.00    +0.051 C 
ATOM      2  C   UNL     1      -2.387   5.374  -0.024  0.00  0.00    +0.040 A 
ATOM      3  C   UNL     1      -2.535   3.982  -0.232  0.00  0.00    +0.196 A 
ATOM      4  O   UNL     1      -3.625   3.488  -0.468  0.00  0.00    -0.287 OA
ATOM      5  C   UNL     1      -1.316   3.151  -0.152  0.00  0.00    +0.065 A 
ATOM      6  C   UNL     1      -1.366   1.772  -0.348  0.00  0.00    +0.015 A 
ATOM      7  C   UNL     1      -0.211   1.022  -0.262  0.00  0.00    +0.002 A 
ATOM      8  C   UNL     1       1.002   1.630   0.008  0.00  0.00    +0.019 A 
ATOM      9  C   UNL     1       1.074   3.010   0.203  0.00  0.00    +0.102 A 
ATOM     10  C   UNL     1      -0.095   3.783   0.123  0.00  0.00    +0.153 A 
ATOM     11  O   UNL     1      -0.055   5.116   0.306  0.00  0.00    -0.454 OA
ATOM     12  C   UNL     1      -1.153   5.884   0.237  0.00  0.00    +0.142 A 
ENDROOT
BRANCH  12  13
ATOM     13  C   UNL     1      -1.018   7.339   0.451  0.00  0.00    +0.018 A 
ATOM     14  C   UNL     1      -0.086   8.073  -0.287  0.00  0.00    +0.011 A 
ATOM     15  C   UNL     1       0.032   9.432  -0.085  0.00  0.00    +0.001 A 
ATOM     16  C   UNL     1      -0.763  10.067   0.853  0.00  0.00    +0.000 A 
ATOM     17  C   UNL     1      -1.684   9.345   1.591  0.00  0.00    +0.001 A 
ATOM     18  C   UNL     1      -1.816   7.986   1.396  0.00  0.00    +0.011 A 
ENDBRANCH  12  13
BRANCH   9  19
ATOM     19  C   UNL     1       2.370   3.651   0.491  0.00  0.00    +0.343 C 
ATOM     20  O   UNL     1       2.428   4.853   0.660  0.00  0.00    -0.245 OA
BRANCH  19  21
ATOM     21  O   UNL     1       3.489   2.904   0.567  0.00  0.00    -0.452 OA
BRANCH  21  22
ATOM     22  C   UNL     1       4.729   3.603   0.854  0.00  0.00    +0.328 C 
BRANCH  22  23
ATOM     23  C   UNL     1       5.864   2.613   0.901  0.00  0.00    +0.258 C 
ATOM     24  O   UNL     1       5.649   1.435   0.710  0.00  0.00    -0.272 OA
ATOM     25  N   UNL     1       7.118   3.037   1.153  0.00  0.00    -0.237 N 
ATOM     26  C   UNL     1       8.133   2.151   1.195  0.00  0.00    +0.306 C 
ATOM     27  O   UNL     1       7.918   0.971   1.004  0.00  0.00    -0.252 OA
ATOM     28  N   UNL     1       9.388   2.575   1.448  0.00  0.00    -0.299 N 
ATOM     29  H   UNL     1       7.290   3.979   1.306  0.00  0.00    +0.159 HD
ATOM     30  H   UNL     1       9.559   3.518   1.600  0.00  0.00    +0.150 HD
BRANCH  28  31
ATOM     31  C   UNL     1      10.491   1.613   1.493  0.00  0.00    +0.106 C 
BRANCH  31  32
ATOM     32  C   UNL     1      11.798   2.349   1.795  0.00  0.00    +0.022 C 
BRANCH  32  33
ATOM     33  C   UNL     1      12.950   1.344   1.842  0.00  0.00    -0.016 C 
ATOM     34  C   UNL     1      14.273   2.092   2.021  0.00  0.00    +0.007 C 
ATOM     35  C   UNL     1      12.744   0.386   3.017  0.00  0.00    +0.007 C 
ENDBRANCH  32  33
ENDBRANCH  31  32
ENDBRANCH  28  31
ENDBRANCH  22  23
ENDBRANCH  21  22
ENDBRANCH  19  21
ENDBRANCH   9  19
TORSDOF 8
