REMARK  Name = ZINC67581941
REMARK  9 active torsions:
REMARK  status: ('A' for Active; 'I' for Inactive)
REMARK    1  A    between atoms: C_1  and  C_2
REMARK    2  A    between atoms: C_2  and  C_4
REMARK    3  A    between atoms: C_2  and  N_11
REMARK    4  A    between atoms: C_8  and  O_10
REMARK    5  A    between atoms: N_11  and  C_12
REMARK    6  A    between atoms: N_15  and  C_16
REMARK    7  A    between atoms: C_16  and  C_17
REMARK    8  A    between atoms: C_17  and  C_19
REMARK    9  A    between atoms: C_17  and  N_24
REMARK                            x       y       z     vdW  Elec       q    Type
REMARK                         _______ _______ _______ _____ _____    ______ ____
ROOT
ATOM      1  N   UNL     1       0.886  -0.286   1.105  0.00  0.00    -0.282 N 
ATOM      2  C   UNL     1       0.191  -0.375   2.392  0.00  0.00    +0.134 C 
ATOM      3  C   UNL     1       2.171  -0.678   1.004  0.00  0.00    +0.302 C 
ATOM      4  O   UNL     1       2.748  -0.605  -0.064  0.00  0.00    -0.253 OA
ATOM      5  N   UNL     1       2.818  -1.152   2.088  0.00  0.00    -0.300 N 
ATOM      6  H   UNL     1       2.358  -1.211   2.940  0.00  0.00    +0.150 HD
ENDROOT
BRANCH   1   8
ATOM      7  C   UNL     1      -0.427   1.593   0.253  0.00  0.00    +0.033 C 
ATOM      8  C   UNL     1       0.183   0.229  -0.073  0.00  0.00    +0.104 C 
BRANCH   8   9
ATOM      9  C   UNL     1      -0.912  -0.731  -0.464  0.00  0.00    -0.024 A 
ATOM     10  C   UNL     1      -0.968  -1.226  -1.754  0.00  0.00    +0.006 A 
ATOM     11  C   UNL     1      -1.971  -2.106  -2.115  0.00  0.00    +0.004 A 
ATOM     12  C   UNL     1      -2.920  -2.492  -1.189  0.00  0.00    +0.045 A 
ATOM     13  C   UNL     1      -2.866  -1.997   0.106  0.00  0.00    +0.117 A 
ATOM     14  C   UNL     1      -1.855  -1.119   0.468  0.00  0.00    +0.050 A 
BRANCH  13  15
ATOM     15  O   UNL     1      -3.798  -2.376   1.019  0.00  0.00    -0.507 OA
ATOM     16  H   UNL     1      -3.558  -3.165   1.523  0.00  0.00    +0.292 HD
ENDBRANCH  13  15
ENDBRANCH   8   9
ENDBRANCH   1   8
BRANCH   5  17
ATOM     17  C   UNL     1       4.215  -1.578   1.979  0.00  0.00    +0.098 C 
BRANCH  17  18
ATOM     18  C   UNL     1       4.747  -1.943   3.366  0.00  0.00    +0.016 C 
BRANCH  18  19
ATOM     19  N   UNL     1       4.568  -0.802   4.275  0.00  0.00    +0.387 N 
ATOM     20  C   UNL     1       5.185   0.392   3.685  0.00  0.00    -0.078 C 
ATOM     21  C   UNL     1       4.932   1.600   4.589  0.00  0.00    -0.019 C 
ATOM     22  C   UNL     1       5.543   1.336   5.968  0.00  0.00    -0.004 C 
ATOM     23  C   UNL     1       4.947   0.048   6.542  0.00  0.00    -0.019 C 
ATOM     24  C   UNL     1       5.199  -1.103   5.566  0.00  0.00    -0.078 C 
ATOM     25  H   UNL     1       3.583  -0.636   4.414  0.00  0.00    -0.081 HD
ENDBRANCH  18  19
BRANCH  18  26
ATOM     26  C   UNL     1       6.212  -2.284   3.270  0.00  0.00    +0.093 A 
ATOM     27  C   UNL     1       6.731  -3.525   3.256  0.00  0.00    +0.043 A 
ATOM     28  C   UNL     1       8.134  -3.380   3.155  0.00  0.00    +0.041 A 
ATOM     29  C   UNL     1       8.387  -2.059   3.112  0.00  0.00    +0.195 A 
ATOM     30  O   UNL     1       7.219  -1.401   3.176  0.00  0.00    -0.469 OA
ENDBRANCH  18  26
ENDBRANCH  17  18
ENDBRANCH   5  17
TORSDOF 7
