REMARK  Name = ZINC53518907
REMARK  5 active torsions:
REMARK  status: ('A' for Active; 'I' for Inactive)
REMARK    1  A    between atoms: C_1  and  C_2
REMARK    2  A    between atoms: C_5  and  N_8
REMARK    3  A    between atoms: N_14  and  C_17
REMARK    4  A    between atoms: C_17  and  C_18
REMARK    5  A    between atoms: N_20  and  C_21
REMARK                            x       y       z     vdW  Elec       q    Type
REMARK                         _______ _______ _______ _____ _____    ______ ____
ROOT
ATOM      1  N   UNL     1      -0.427  -4.045   3.559  0.00  0.00    -0.296 N 
ATOM      2  C   UNL     1      -0.531  -4.714   2.394  0.00  0.00    +0.302 C 
ATOM      3  O   UNL     1      -0.732  -4.106   1.360  0.00  0.00    -0.253 OA
ATOM      4  N   UNL     1      -0.411  -6.056   2.374  0.00  0.00    -0.283 N 
ATOM      5  C   UNL     1      -0.406  -6.795   1.103  0.00  0.00    +0.124 C 
ATOM      6  C   UNL     1       0.814  -7.722   1.084  0.00  0.00    +0.104 C 
ATOM      7  N   UNL     1       0.806  -8.561   2.290  0.00  0.00    -0.291 NA
ATOM      8  C   UNL     1       0.932  -7.747   3.506  0.00  0.00    +0.104 C 
ATOM      9  C   UNL     1      -0.277  -6.820   3.624  0.00  0.00    +0.124 C 
ATOM     10  H   UNL     1      -0.341  -4.533   4.393  0.00  0.00    +0.151 HD
ENDROOT
BRANCH   1  15
ATOM     11  C   UNL     1      -1.206   1.484   4.845  0.00  0.00    +0.007 C 
ATOM     12  C   UNL     1      -1.187  -0.046   4.837  0.00  0.00    -0.014 C 
ATOM     13  C   UNL     1       0.262  -0.538   4.821  0.00  0.00    +0.005 C 
ATOM     14  C   UNL     1       0.281  -2.068   4.813  0.00  0.00    +0.022 C 
ATOM     15  C   UNL     1      -0.445  -2.580   3.567  0.00  0.00    +0.074 C 
ATOM     16  C   UNL     1      -1.894  -2.088   3.583  0.00  0.00    +0.022 C 
ATOM     17  C   UNL     1      -1.913  -0.558   3.591  0.00  0.00    +0.005 C 
ENDBRANCH   1  15
BRANCH   7  18
ATOM     18  C   UNL     1       1.862  -9.581   2.228  0.00  0.00    +0.180 C 
BRANCH  18  19
ATOM     19  C   UNL     1       1.672 -10.569   3.351  0.00  0.00    +0.227 C 
ATOM     20  O   UNL     1       0.749 -10.436   4.126  0.00  0.00    -0.274 OA
ATOM     21  N   UNL     1       2.528 -11.600   3.493  0.00  0.00    -0.311 N 
ATOM     22  H   UNL     1       3.267 -11.706   2.873  0.00  0.00    +0.149 HD
BRANCH  21  23
ATOM     23  C   UNL     1       2.344 -12.559   4.585  0.00  0.00    +0.073 C 
ATOM     24  C   UNL     1       3.588 -12.992   5.362  0.00  0.00    +0.024 C 
ATOM     25  C   UNL     1       2.916 -13.966   4.392  0.00  0.00    +0.024 C 
ENDBRANCH  21  23
ENDBRANCH  18  19
ENDBRANCH   7  18
TORSDOF 4
