REMARK  Name = ZINC56246720
REMARK  4 active torsions:
REMARK  status: ('A' for Active; 'I' for Inactive)
REMARK    1  A    between atoms: C_1  and  C_2
REMARK    2  A    between atoms: C_6  and  N_8
REMARK    3  A    between atoms: C_9  and  C_11
REMARK    4  A    between atoms: C_15  and  N_21
REMARK                            x       y       z     vdW  Elec       q    Type
REMARK                         _______ _______ _______ _____ _____    ______ ____
ROOT
ATOM      1  C   UNL     1       0.278  -2.879   4.824  0.00  0.00    +0.103 A 
ATOM      2  C   UNL     1       0.380  -2.325   6.061  0.00  0.00    +0.041 A 
ATOM      3  C   UNL     1       0.483  -3.380   6.999  0.00  0.00    +0.003 A 
ATOM      4  C   UNL     1       0.610  -3.419   8.394  0.00  0.00    +0.042 A 
ATOM      5  C   UNL     1       0.691  -4.621   9.035  0.00  0.00    +0.127 A 
ATOM      6  C   UNL     1       0.648  -5.809   8.317  0.00  0.00    +0.035 A 
ATOM      7  C   UNL     1       0.524  -5.798   6.946  0.00  0.00    +0.028 A 
ATOM      8  C   UNL     1       0.440  -4.584   6.269  0.00  0.00    +0.047 A 
ATOM      9  N   UNL     1       0.308  -4.255   4.941  0.00  0.00    -0.351 N 
ATOM     10  H   UNL     1       0.249  -4.885   4.206  0.00  0.00    +0.166 HD
ENDROOT
BRANCH   1  12
ATOM     11  N   UNL     1       0.053  -2.796   2.395  0.00  0.00    -0.278 N 
ATOM     12  C   UNL     1       0.151  -2.132   3.564  0.00  0.00    +0.265 C 
ATOM     13  O   UNL     1       0.135  -0.916   3.576  0.00  0.00    -0.268 OA
ATOM     14  H   UNL     1       0.000  -3.764   2.390  0.00  0.00    +0.155 HD
BRANCH  11  20
ATOM     15  C   UNL     1      -1.306   1.189  -0.143  0.00  0.00    +0.044 C 
ATOM     16  C   UNL     1      -0.626  -0.153  -0.071  0.00  0.00    -0.049 A 
ATOM     17  C   UNL     1      -0.028  -0.686  -1.198  0.00  0.00    +0.006 A 
ATOM     18  C   UNL     1       0.597  -1.918  -1.137  0.00  0.00    +0.040 A 
ATOM     19  C   UNL     1       0.626  -2.621   0.053  0.00  0.00    +0.145 A 
ATOM     20  C   UNL     1       0.026  -2.087   1.188  0.00  0.00    +0.070 A 
ATOM     21  C   UNL     1      -0.597  -0.848   1.123  0.00  0.00    +0.029 A 
ATOM     22  F   UNL     1       1.236  -3.825   0.113  0.00  0.00    -0.204 F 
ENDBRANCH  11  20
ENDBRANCH   1  12
BRANCH   5  23
ATOM     23  N   UNL     1       0.824  -4.658  10.508  0.00  0.00    +0.056 N 
ATOM     24  O   UNL     1       0.862  -3.627  11.138  0.00  0.00    -0.126 OA
ATOM     25  O   UNL     1       0.896  -5.720  11.082  0.00  0.00    -0.126 OA
ENDBRANCH   5  23
TORSDOF 3
