REMARK  Name = ZINC04655225
REMARK  6 active torsions:
REMARK  status: ('A' for Active; 'I' for Inactive)
REMARK    1  A    between atoms: C_1  and  C_2
REMARK    2  A    between atoms: C_2  and  C_4
REMARK    3  A    between atoms: C_4  and  O_29
REMARK    4  A    between atoms: C_9  and  C_28
REMARK    5  A    between atoms: C_20  and  C_27
REMARK    6  A    between atoms: C_23  and  O_26
REMARK                            x       y       z     vdW  Elec       q    Type
REMARK                         _______ _______ _______ _____ _____    ______ ____
ROOT
ATOM      1  C   UNL     1       5.478   2.110  -1.835  0.00  0.00    +0.129 C 
ATOM      2  C   UNL     1       5.276   2.913  -0.527  0.00  0.00    +0.043 C 
ATOM      3  C   UNL     1       3.897   2.485   0.045  0.00  0.00    +0.008 C 
ATOM      4  C   UNL     1       3.564   1.216  -0.754  0.00  0.00    +0.002 C 
ATOM      5  C   UNL     1       4.066   1.581  -2.166  0.00  0.00    +0.007 C 
ATOM      6  C   UNL     1       4.040   0.386  -3.083  0.00  0.00    +0.010 C 
ATOM      7  C   UNL     1       2.847  -0.529  -2.767  0.00  0.00    +0.005 C 
ATOM      8  C   UNL     1       1.713   0.253  -2.120  0.00  0.00    -0.001 C 
ATOM      9  C   UNL     1       2.138   0.757  -0.741  0.00  0.00    -0.004 C 
ATOM     10  C   UNL     1       1.145   1.787  -0.218  0.00  0.00    +0.004 C 
ATOM     11  C   UNL     1      -0.284   1.263  -0.440  0.00  0.00    +0.004 C 
ATOM     12  C   UNL     1      -0.219  -0.242  -0.647  0.00  0.00    -0.002 C 
ATOM     13  C   UNL     1       0.440  -0.578  -1.986  0.00  0.00    -0.026 C 
ATOM     14  C   UNL     1       0.700  -2.078  -2.045  0.00  0.00    +0.010 C 
ATOM     15  C   UNL     1      -0.626  -2.834  -1.899  0.00  0.00    +0.032 C 
ATOM     16  C   UNL     1      -1.346  -2.447  -0.611  0.00  0.00    +0.115 C 
ATOM     17  C   UNL     1      -1.572  -0.931  -0.538  0.00  0.00    +0.035 C 
ATOM     18  C   UNL     1      -0.482  -0.179  -3.142  0.00  0.00    +0.012 C 
ATOM     19  C   UNL     1       3.293   2.753  -2.775  0.00  0.00    +0.015 C 
ENDROOT
BRANCH   1  21
ATOM     20  C   UNL     1       6.623   2.414  -4.156  0.00  0.00    +0.089 C 
ATOM     21  C   UNL     1       5.958   3.007  -2.940  0.00  0.00    +0.162 C 
ATOM     22  O   UNL     1       5.811   4.202  -2.855  0.00  0.00    -0.295 OA
ENDBRANCH   1  21
BRANCH  16  23
ATOM     23  O   UNL     1      -2.613  -3.111  -0.563  0.00  0.00    -0.392 OA
ATOM     24  H   UNL     1      -2.554  -4.075  -0.604  0.00  0.00    +0.210 HD
ENDBRANCH  16  23
BRANCH   1  25
ATOM     25  O   UNL     1       6.377   1.027  -1.622  0.00  0.00    -0.381 OA
ATOM     26  H   UNL     1       7.280   1.301  -1.410  0.00  0.00    +0.211 HD
ENDBRANCH   1  25
TORSDOF 3
