REMARK  Name = ZINC63835456
REMARK  8 active torsions:
REMARK  status: ('A' for Active; 'I' for Inactive)
REMARK    1  A    between atoms: C_1  and  C_2
REMARK    2  A    between atoms: N_5  and  S_11
REMARK    3  A    between atoms: C_7  and  C_10
REMARK    4  A    between atoms: S_11  and  C_14
REMARK    5  A    between atoms: C_16  and  C_21
REMARK    6  A    between atoms: N_23  and  C_24
REMARK    7  A    between atoms: C_24  and  C_25
REMARK    8  A    between atoms: C_25  and  C_26
REMARK                            x       y       z     vdW  Elec       q    Type
REMARK                         _______ _______ _______ _____ _____    ______ ____
ROOT
ATOM      1  C   UNL     1      -1.206  -3.292  -2.224  0.00  0.00    +0.124 A 
ATOM      2  C   UNL     1      -0.813  -4.575  -2.541  0.00  0.00    +0.043 A 
ATOM      3  C   UNL     1      -0.007  -4.799  -3.658  0.00  0.00    +0.039 A 
ATOM      4  C   UNL     1       0.398  -3.721  -4.448  0.00  0.00    +0.014 A 
ATOM      5  C   UNL     1      -0.001  -2.443  -4.121  0.00  0.00    +0.023 A 
ATOM      6  C   UNL     1      -0.807  -2.227  -3.014  0.00  0.00    +0.067 A 
ATOM      7 CL   UNL     1      -1.311  -0.615  -2.614  0.00  0.00    -0.082 Cl
ENDROOT
BRANCH   3   8
ATOM      8  C   UNL     1       0.418  -6.172  -4.003  0.00  0.00    +0.244 C 
ATOM      9  O   UNL     1       0.065  -7.109  -3.313  0.00  0.00    -0.270 OA
ATOM     10  N   UNL     1       1.197  -6.386  -5.082  0.00  0.00    -0.311 N 
ATOM     11  H   UNL     1       1.479  -5.638  -5.632  0.00  0.00    +0.149 HD
BRANCH  10  12
ATOM     12  C   UNL     1       1.618  -7.747  -5.423  0.00  0.00    +0.109 C 
BRANCH  12  13
ATOM     13  C   UNL     1       2.488  -7.710  -6.681  0.00  0.00    +0.052 C 
BRANCH  13  14
ATOM     14  C   UNL     1       2.921  -9.110  -7.033  0.00  0.00    -0.040 C 
ATOM     15  C   UNL     1       2.327  -9.949  -7.912  0.00  0.00    -0.001 A 
ATOM     16  C   UNL     1       1.144  -9.814  -8.770  0.00  0.00    +0.010 A 
ATOM     17  C   UNL     1       0.786 -10.851  -9.561  0.00  0.00    +0.001 A 
ATOM     18  C   UNL     1       1.514 -12.048  -9.582  0.00  0.00    +0.002 A 
ATOM     19  C   UNL     1       2.612 -12.247  -8.822  0.00  0.00    +0.026 A 
ATOM     20  C   UNL     1       3.079 -11.223  -7.952  0.00  0.00    +0.043 A 
ATOM     21  N   UNL     1       4.099 -11.174  -7.130  0.00  0.00    -0.380 N 
ATOM     22  C   UNL     1       4.113  -9.860  -6.479  0.00  0.00    +0.144 C 
ATOM     23  H   UNL     1       4.740 -11.887  -6.980  0.00  0.00    +0.160 HD
ENDBRANCH  13  14
ENDBRANCH  12  13
ENDBRANCH  10  12
ENDBRANCH   3   8
BRANCH   1  24
ATOM     24  S   UNL     1      -2.225  -3.006  -0.815  0.00  0.00    +0.062 S 
ATOM     25  O   UNL     1      -2.491  -4.279  -0.242  0.00  0.00    -0.153 OA
ATOM     26  O   UNL     1      -3.260  -2.127  -1.233  0.00  0.00    -0.153 OA
BRANCH  24  30
ATOM     27  C   UNL     1      -0.042   1.371   0.656  0.00  0.00    +0.039 C 
ATOM     28  C   UNL     1       0.010  -0.127   0.350  0.00  0.00    +0.131 C 
ATOM     29  C   UNL     1      -1.408  -0.709   0.398  0.00  0.00    +0.140 C 
ATOM     30  N   UNL     1      -1.313  -2.173   0.288  0.00  0.00    -0.172 NA
ATOM     31  C   UNL     1      -0.383  -2.875   1.187  0.00  0.00    +0.140 C 
ATOM     32  C   UNL     1       0.984  -2.188   1.102  0.00  0.00    +0.131 C 
ATOM     33  O   UNL     1       0.822  -0.785   1.325  0.00  0.00    -0.371 OA
ATOM     34  C   UNL     1       1.586  -2.418  -0.286  0.00  0.00    +0.039 C 
ENDBRANCH  24  30
ENDBRANCH   1  24
TORSDOF 6
