REMARK  Name = ZINC67318044
REMARK  7 active torsions:
REMARK  status: ('A' for Active; 'I' for Inactive)
REMARK    1  A    between atoms: C_1  and  C_2
REMARK    2  A    between atoms: C_2  and  C_3
REMARK    3  A    between atoms: C_8  and  N_9
REMARK    4  A    between atoms: C_10  and  C_12
REMARK    5  A    between atoms: C_12  and  N_13
REMARK    6  A    between atoms: C_20  and  C_24
REMARK    7  A    between atoms: C_26  and  C_29
REMARK                            x       y       z     vdW  Elec       q    Type
REMARK                         _______ _______ _______ _____ _____    ______ ____
ROOT
ATOM      1  N   UNL     1      -2.353  -0.595  -5.972  0.00  0.00    -0.299 N 
ATOM      2  C   UNL     1      -2.358  -1.873  -6.490  0.00  0.00    +0.053 A 
ATOM      3  C   UNL     1      -1.519  -2.857  -5.975  0.00  0.00    +0.026 A 
ATOM      4  C   UNL     1      -1.544  -4.126  -6.510  0.00  0.00    +0.002 A 
ATOM      5  C   UNL     1      -2.398  -4.435  -7.560  0.00  0.00    +0.001 A 
ATOM      6  C   UNL     1      -3.230  -3.484  -8.082  0.00  0.00    +0.011 A 
ATOM      7  C   UNL     1      -3.221  -2.191  -7.554  0.00  0.00    +0.011 A 
ATOM      8  C   UNL     1      -4.104  -1.144  -8.092  0.00  0.00    +0.054 A 
ATOM      9  C   UNL     1      -4.048   0.104  -7.531  0.00  0.00    +0.084 A 
ATOM     10  C   UNL     1      -3.165   0.358  -6.461  0.00  0.00    +0.253 A 
ATOM     11  O   UNL     1      -3.132   1.474  -5.971  0.00  0.00    -0.268 OA
ENDROOT
BRANCH   8  12
ATOM     12  C   UNL     1      -5.028  -1.431  -9.210  0.00  0.00    +0.260 A 
ATOM     13  N   UNL     1      -5.851  -0.575  -9.767  0.00  0.00    -0.187 NA
ATOM     14  C   UNL     1      -6.538  -1.174 -10.751  0.00  0.00    +0.202 A 
ATOM     15  N   UNL     1      -6.158  -2.426 -10.832  0.00  0.00    -0.056 NA
ATOM     16  O   UNL     1      -5.165  -2.614  -9.834  0.00  0.00    -0.332 OA
BRANCH  14  17
ATOM     17  C   UNL     1      -7.562  -0.525 -11.609  0.00  0.00    +0.025 A 
ATOM     18  C   UNL     1      -7.889   0.822 -11.441  0.00  0.00    +0.031 A 
ATOM     19  C   UNL     1      -8.847   1.386 -12.259  0.00  0.00    +0.111 A 
ATOM     20  N   UNL     1      -9.449   0.670 -13.189  0.00  0.00    -0.263 NA
ATOM     21  C   UNL     1      -9.169  -0.604 -13.380  0.00  0.00    +0.111 A 
ATOM     22  C   UNL     1      -8.220  -1.245 -12.609  0.00  0.00    +0.031 A 
ENDBRANCH  14  17
ENDBRANCH   8  12
BRANCH   1  23
ATOM     23  C   UNL     1      -1.451  -0.272  -4.864  0.00  0.00    +0.221 C 
BRANCH  23  25
ATOM     24  N   UNL     1      -1.505  -0.315  -2.391  0.00  0.00    -0.284 N 
ATOM     25  C   UNL     1      -2.147  -0.541  -3.555  0.00  0.00    +0.237 C 
ATOM     26  O   UNL     1      -3.285  -0.961  -3.548  0.00  0.00    -0.274 OA
ATOM     27  H   UNL     1      -0.620   0.082  -2.395  0.00  0.00    +0.155 HD
BRANCH  24  33
ATOM     28  C   UNL     1      -1.349  -1.119  -0.119  0.00  0.00    -0.026 A 
ATOM     29  C   UNL     1      -1.954  -1.445   1.079  0.00  0.00    +0.005 A 
ATOM     30  C   UNL     1      -3.322  -1.313   1.222  0.00  0.00    +0.000 A 
ATOM     31  C   UNL     1      -4.090  -0.854   0.168  0.00  0.00    +0.002 A 
ATOM     32  C   UNL     1      -3.491  -0.525  -1.033  0.00  0.00    +0.023 A 
ATOM     33  C   UNL     1      -2.116  -0.652  -1.178  0.00  0.00    +0.037 A 
BRANCH  28  35
ATOM     34  C   UNL     1       0.819   0.078   0.019  0.00  0.00    +0.009 C 
ATOM     35  C   UNL     1       0.143  -1.263  -0.275  0.00  0.00    +0.033 C 
ENDBRANCH  28  35
ENDBRANCH  24  33
ENDBRANCH  23  25
ENDBRANCH   1  23
TORSDOF 6
