REMARK  Name = ZINC39616046
REMARK  8 active torsions:
REMARK  status: ('A' for Active; 'I' for Inactive)
REMARK    1  A    between atoms: C_7  and  C_11
REMARK    2  A    between atoms: C_11  and  C_12
REMARK    3  A    between atoms: C_12  and  C_14
REMARK    4  A    between atoms: C_12  and  N_24
REMARK    5  A    between atoms: C_14  and  O_16
REMARK    6  A    between atoms: O_16  and  C_17
REMARK    7  A    between atoms: C_17  and  C_18
REMARK    8  A    between atoms: C_25  and  C_27
REMARK                            x       y       z     vdW  Elec       q    Type
REMARK                         _______ _______ _______ _____ _____    ______ ____
ROOT
ATOM      1  C   UNL     1       0.236  -3.589  -1.455  0.00  0.00    +0.186 C 
ENDROOT
BRANCH   1   2
ATOM      2  N   UNL     1       1.401  -4.022  -2.231  0.00  0.00    -0.298 N 
ATOM      3  C   UNL     1       2.203  -3.106  -2.809  0.00  0.00    +0.245 C 
ATOM      4  O   UNL     1       1.960  -1.921  -2.687  0.00  0.00    -0.270 OA
ATOM      5  H   UNL     1       1.595  -4.967  -2.329  0.00  0.00    +0.150 HD
BRANCH   3   6
ATOM      6  C   UNL     1       3.378  -3.542  -3.592  0.00  0.00    +0.037 A 
ATOM      7  C   UNL     1       3.656  -4.903  -3.739  0.00  0.00    +0.016 A 
ATOM      8  C   UNL     1       4.754  -5.304  -4.470  0.00  0.00    +0.039 A 
ATOM      9  C   UNL     1       5.581  -4.360  -5.058  0.00  0.00    +0.123 A 
ATOM     10  C   UNL     1       5.309  -3.008  -4.916  0.00  0.00    +0.039 A 
ATOM     11  C   UNL     1       4.211  -2.595  -4.192  0.00  0.00    +0.016 A 
ATOM     12  F   UNL     1       6.656  -4.759  -5.773  0.00  0.00    -0.205 F 
ENDBRANCH   3   6
ENDBRANCH   1   2
BRANCH   1  13
ATOM     13  C   UNL     1      -0.795  -4.689  -1.442  0.00  0.00    +0.328 C 
ATOM     14  O   UNL     1      -0.578  -5.727  -2.020  0.00  0.00    -0.249 OA
BRANCH  13  15
ATOM     15  O   UNL     1      -1.953  -4.514  -0.786  0.00  0.00    -0.454 OA
BRANCH  15  16
ATOM     16  C   UNL     1      -2.884  -5.598  -0.815  0.00  0.00    +0.328 C 
BRANCH  16  17
ATOM     17  C   UNL     1      -4.116  -5.223  -0.032  0.00  0.00    +0.258 C 
ATOM     18  O   UNL     1      -4.189  -4.135   0.498  0.00  0.00    -0.272 OA
ATOM     19  N   UNL     1      -5.136  -6.097   0.079  0.00  0.00    -0.238 N 
ATOM     20  C   UNL     1      -6.237  -5.762   0.779  0.00  0.00    +0.303 C 
ATOM     21  O   UNL     1      -6.311  -4.671   1.311  0.00  0.00    -0.253 OA
ATOM     22  N   UNL     1      -7.257  -6.636   0.890  0.00  0.00    -0.313 N 
ATOM     23  H   UNL     1      -5.077  -6.967  -0.345  0.00  0.00    +0.159 HD
ATOM     24  H   UNL     1      -7.199  -7.506   0.466  0.00  0.00    +0.146 HD
ATOM     25  H   UNL     1      -8.050  -6.394   1.394  0.00  0.00    +0.146 HD
ENDBRANCH  16  17
ENDBRANCH  15  16
ENDBRANCH  13  15
ENDBRANCH   1  13
BRANCH   1  26
ATOM     26  C   UNL     1       0.666  -3.275  -0.021  0.00  0.00    +0.071 C 
BRANCH  26  33
ATOM     27  C   UNL     1      -0.017   1.362   0.009  0.00  0.00    +0.001 A 
ATOM     28  C   UNL     1       1.170   2.083   0.002  0.00  0.00    +0.002 A 
ATOM     29  C   UNL     1       2.386   1.436  -0.013  0.00  0.00    +0.026 A 
ATOM     30  C   UNL     1       2.428   0.046  -0.021  0.00  0.00    +0.047 A 
ATOM     31  C   UNL     1       1.223  -0.681  -0.013  0.00  0.00    +0.003 A 
ATOM     32  C   UNL     1       0.002  -0.004   0.002  0.00  0.00    +0.010 A 
ATOM     33  C   UNL     1       1.604  -2.095  -0.025  0.00  0.00    -0.020 A 
ATOM     34  C   UNL     1       2.945  -2.141  -0.038  0.00  0.00    +0.087 A 
ATOM     35  N   UNL     1       3.455  -0.871  -0.036  0.00  0.00    -0.360 N 
ATOM     36  H   UNL     1       4.399  -0.650  -0.044  0.00  0.00    +0.165 HD
ENDBRANCH  26  33
ENDBRANCH   1  26
TORSDOF 8
