REMARK  Name = ZINC03205165
REMARK  9 active torsions:
REMARK  status: ('A' for Active; 'I' for Inactive)
REMARK    1  A    between atoms: C_6  and  C_7
REMARK    2  A    between atoms: C_7  and  C_8
REMARK    3  A    between atoms: C_7  and  O_15
REMARK    4  A    between atoms: O_15  and  C_16
REMARK    5  A    between atoms: C_16  and  C_17
REMARK    6  A    between atoms: C_17  and  C_19
REMARK    7  A    between atoms: C_17  and  O_32
REMARK    8  A    between atoms: C_19  and  N_60
REMARK    9  A    between atoms: N_22  and  C_25
REMARK                            x       y       z     vdW  Elec       q    Type
REMARK                         _______ _______ _______ _____ _____    ______ ____
ROOT
ATOM      1  C   UNL     1       3.211   4.785   2.879  0.00  0.00    +0.124 C 
ENDROOT
BRANCH   1   2
ATOM      2  O   UNL     1       3.534   6.087   2.386  0.00  0.00    -0.391 OA
ATOM      3  H   UNL     1       2.834   6.742   2.516  0.00  0.00    +0.210 HD
ENDBRANCH   1   2
BRANCH   1   4
ATOM      4  C   UNL     1       1.964   4.263   2.162  0.00  0.00    +0.190 C 
BRANCH   4   5
ATOM      5  O   UNL     1       2.254   4.080   0.775  0.00  0.00    -0.365 OA
BRANCH   5   6
ATOM      6  C   UNL     1       1.150   3.592   0.010  0.00  0.00    +0.178 C 
BRANCH   6  12
ATOM      7  C   UNL     1      -0.017   1.378   0.010  0.00  0.00    +0.008 A 
ATOM      8  C   UNL     1       0.002  -0.004   0.002  0.00  0.00    +0.020 A 
ATOM      9  C   UNL     1       1.210  -0.679  -0.013  0.00  0.00    +0.041 A 
ATOM     10  C   UNL     1       2.398   0.030  -0.021  0.00  0.00    +0.020 A 
ATOM     11  C   UNL     1       2.378   1.412  -0.013  0.00  0.00    +0.008 A 
ATOM     12  C   UNL     1       1.171   2.086   0.002  0.00  0.00    -0.014 A 
ATOM     13 CL   UNL     1       1.234  -2.415  -0.022  0.00  0.00    -0.084 Cl
ENDBRANCH   6  12
BRANCH   6  14
ATOM     14  C   UNL     1       1.253   4.104  -1.404  0.00  0.00    -0.014 A 
ATOM     15  C   UNL     1       2.485   4.164  -2.029  0.00  0.00    +0.008 A 
ATOM     16  C   UNL     1       2.580   4.628  -3.327  0.00  0.00    +0.020 A 
ATOM     17  C   UNL     1       1.443   5.042  -3.998  0.00  0.00    +0.041 A 
ATOM     18  C   UNL     1       0.211   4.986  -3.371  0.00  0.00    +0.020 A 
ATOM     19  C   UNL     1       0.117   4.518  -2.074  0.00  0.00    +0.008 A 
ATOM     20 CL   UNL     1       1.562   5.630  -5.627  0.00  0.00    -0.084 Cl
ENDBRANCH   6  14
ENDBRANCH   5   6
ENDBRANCH   4   5
ENDBRANCH   1   4
BRANCH   1  21
ATOM     21  C   UNL     1       2.940   4.862   4.383  0.00  0.00    -0.045 C 
BRANCH  21  27
ATOM     22  C   UNL     1       5.245   4.404   4.968  0.00  0.00    -0.060 C 
ATOM     23  C   UNL     1       6.492   4.996   5.627  0.00  0.00    +0.086 C 
ATOM     24  N   UNL     1       6.200   5.309   7.032  0.00  0.00    -0.333 N 
ATOM     25  C   UNL     1       5.092   6.269   7.136  0.00  0.00    +0.086 C 
ATOM     26  C   UNL     1       3.844   5.676   6.477  0.00  0.00    -0.060 C 
ATOM     27  N   UNL     1       4.145   5.388   5.059  0.00  0.00    +0.383 N 
ATOM     28  H   UNL     1       4.435   6.257   4.596  0.00  0.00    -0.082 HD
BRANCH  24  29
ATOM     29  C   UNL     1       7.339   5.786   7.687  0.00  0.00    +0.030 A 
ATOM     30  C   UNL     1       7.313   7.024   8.315  0.00  0.00    +0.026 A 
ATOM     31  C   UNL     1       8.438   7.492   8.966  0.00  0.00    +0.040 A 
ATOM     32  C   UNL     1       9.595   6.731   8.983  0.00  0.00    +0.124 A 
ATOM     33  C   UNL     1       9.625   5.498   8.354  0.00  0.00    +0.040 A 
ATOM     34  C   UNL     1       8.500   5.025   7.707  0.00  0.00    +0.026 A 
ATOM     35  F   UNL     1      10.695   7.192   9.617  0.00  0.00    -0.205 F 
ENDBRANCH  24  29
ENDBRANCH  21  27
ENDBRANCH   1  21
TORSDOF 9
