REMARK  Name = ZINC20193779
REMARK  7 active torsions:
REMARK  status: ('A' for Active; 'I' for Inactive)
REMARK    1  A    between atoms: C_4  and  C_7
REMARK    2  A    between atoms: C_7  and  N_8
REMARK    3  A    between atoms: C_9  and  C_27
REMARK    4  A    between atoms: C_12  and  S_13
REMARK    5  A    between atoms: S_13  and  C_14
REMARK    6  A    between atoms: C_14  and  C_15
REMARK    7  A    between atoms: N_17  and  C_18
REMARK                            x       y       z     vdW  Elec       q    Type
REMARK                         _______ _______ _______ _____ _____    ______ ____
ROOT
ATOM      1  N   UNL     1       4.163  -0.958   1.334  0.00  0.00    -0.295 N 
ATOM      2  C   UNL     1       4.953  -0.142   2.114  0.00  0.00    +0.201 A 
ATOM      3  N   UNL     1       5.109  -0.748   3.270  0.00  0.00    -0.125 NA
ATOM      4  N   UNL     1       4.480  -1.869   3.266  0.00  0.00    -0.122 NA
ATOM      5  C   UNL     1       3.879  -2.046   2.110  0.00  0.00    +0.193 A 
ENDROOT
BRANCH   2   6
ATOM      6  C   UNL     1       5.516   1.161   1.725  0.00  0.00    +0.173 A 
ATOM      7  C   UNL     1       6.046   2.070   2.583  0.00  0.00    +0.061 A 
ATOM      8  C   UNL     1       6.476   3.201   1.760  0.00  0.00    +0.021 A 
ATOM      9  C   UNL     1       7.085   4.428   2.034  0.00  0.00    +0.011 A 
ATOM     10  C   UNL     1       7.364   5.289   1.010  0.00  0.00    +0.001 A 
ATOM     11  C   UNL     1       7.046   4.952  -0.298  0.00  0.00    +0.004 A 
ATOM     12  C   UNL     1       6.445   3.745  -0.588  0.00  0.00    +0.047 A 
ATOM     13  C   UNL     1       6.153   2.854   0.436  0.00  0.00    +0.136 A 
ATOM     14  O   UNL     1       5.588   1.629   0.463  0.00  0.00    -0.452 OA
ENDBRANCH   2   6
BRANCH   1  15
ATOM     15  C   UNL     1       3.715  -0.709  -0.038  0.00  0.00    +0.161 C 
BRANCH  15  19
ATOM     16  C   UNL     1      -0.003   1.393   0.034  0.00  0.00    +0.000 A 
ATOM     17  C   UNL     1       1.188   2.095   0.021  0.00  0.00    +0.000 A 
ATOM     18  C   UNL     1       2.391   1.415  -0.003  0.00  0.00    +0.005 A 
ATOM     19  C   UNL     1       2.403   0.033  -0.012  0.00  0.00    -0.028 A 
ATOM     20  C   UNL     1       1.213  -0.669   0.002  0.00  0.00    +0.005 A 
ATOM     21  C   UNL     1       0.009   0.011   0.024  0.00  0.00    +0.000 A 
ENDBRANCH  15  19
ENDBRANCH   1  15
BRANCH   5  22
ATOM     22  S   UNL     1       2.894  -3.432   1.646  0.00  0.00    -0.077 S 
BRANCH  22  23
ATOM     23  C   UNL     1       2.920  -4.498   3.113  0.00  0.00    +0.173 C 
BRANCH  23  24
ATOM     24  C   UNL     1       2.103  -5.737   2.848  0.00  0.00    +0.227 C 
ATOM     25  O   UNL     1       1.558  -5.886   1.774  0.00  0.00    -0.275 OA
ATOM     26  N   UNL     1       1.979  -6.679   3.803  0.00  0.00    -0.285 N 
ATOM     27  H   UNL     1       2.468  -6.593   4.636  0.00  0.00    +0.155 HD
BRANCH  26  28
ATOM     28  C   UNL     1       1.143  -7.784   3.593  0.00  0.00    +0.037 A 
ATOM     29  C   UNL     1       0.428  -8.325   4.653  0.00  0.00    +0.027 A 
ATOM     30  C   UNL     1      -0.397  -9.414   4.447  0.00  0.00    +0.051 A 
ATOM     31  C   UNL     1      -0.514  -9.969   3.183  0.00  0.00    +0.166 A 
ATOM     32  C   UNL     1       0.201  -9.428   2.117  0.00  0.00    +0.168 A 
ATOM     33  C   UNL     1       1.024  -8.333   2.324  0.00  0.00    +0.072 A 
ATOM     34  O   UNL     1      -0.083 -10.145   0.991  0.00  0.00    -0.453 OA
ATOM     35  C   UNL     1      -0.660 -11.380   1.457  0.00  0.00    +0.466 C 
ATOM     36  O   UNL     1      -1.247 -11.026   2.724  0.00  0.00    -0.453 OA
ENDBRANCH  26  28
ENDBRANCH  23  24
ENDBRANCH  22  23
ENDBRANCH   5  22
TORSDOF 7
