REMARK  Name = ZINC49531290
REMARK  6 active torsions:
REMARK  status: ('A' for Active; 'I' for Inactive)
REMARK    1  A    between atoms: C_1  and  C_2
REMARK    2  A    between atoms: C_2  and  C_3
REMARK    3  A    between atoms: C_3  and  C_5
REMARK    4  A    between atoms: C_3  and  N_10
REMARK    5  A    between atoms: N_10  and  C_11
REMARK    6  A    between atoms: C_16  and  N_17
REMARK                            x       y       z     vdW  Elec       q    Type
REMARK                         _______ _______ _______ _____ _____    ______ ____
ROOT
ATOM      1  C   UNL     1      -0.016   1.023  -3.167  0.00  0.00    +0.060 A 
ATOM      2  C   UNL     1       0.955   1.916  -2.716  0.00  0.00    +0.026 A 
ATOM      3  C   UNL     1       1.155   3.103  -3.393  0.00  0.00    +0.019 A 
ATOM      4  C   UNL     1       0.395   3.387  -4.502  0.00  0.00    +0.041 A 
ATOM      5  C   UNL     1      -0.598   2.507  -4.987  0.00  0.00    +0.110 A 
ATOM      6  C   UNL     1      -0.778   1.299  -4.281  0.00  0.00    +0.173 A 
ATOM      7  N   UNL     1      -1.234   2.968  -6.085  0.00  0.00    -0.245 NA
ATOM      8  C   UNL     1      -0.941   4.116  -6.623  0.00  0.00    +0.157 A 
ATOM      9  S   UNL     1       0.290   4.731  -5.655  0.00  0.00    -0.075 S 
ENDROOT
BRANCH   6  10
ATOM     10  N   UNL     1      -1.796   0.326  -4.735  0.00  0.00    +0.060 N 
ATOM     11  O   UNL     1      -2.928   0.394  -4.315  0.00  0.00    -0.126 OA
ATOM     12  O   UNL     1      -1.496  -0.538  -5.527  0.00  0.00    -0.126 OA
ENDBRANCH   6  10
BRANCH   1  13
ATOM     13  N   UNL     1      -0.217  -0.178  -2.479  0.00  0.00    -0.335 N 
ATOM     14  H   UNL     1      -0.934  -0.775  -2.745  0.00  0.00    +0.147 HD
BRANCH  13  15
ATOM     15  C   UNL     1       0.656  -0.535  -1.358  0.00  0.00    +0.107 C 
BRANCH  15  16
ATOM     16  C   UNL     1       1.929  -1.145  -1.886  0.00  0.00    +0.010 A 
ATOM     17  C   UNL     1       3.201  -0.974  -1.453  0.00  0.00    +0.013 A 
ATOM     18  C   UNL     1       4.225  -1.644  -2.097  0.00  0.00    +0.008 A 
ATOM     19  C   UNL     1       3.925  -2.453  -3.143  0.00  0.00    +0.045 A 
ATOM     20  S   UNL     1       2.150  -2.288  -3.240  0.00  0.00    -0.100 S 
ENDBRANCH  15  16
BRANCH  15  22
ATOM     21  C   UNL     1      -1.279  -0.881   0.185  0.00  0.00    +0.006 C 
ATOM     22  C   UNL     1      -0.058  -1.544  -0.457  0.00  0.00    +0.024 C 
ENDBRANCH  15  22
ENDBRANCH  13  15
ENDBRANCH   1  13
TORSDOF 5
