REMARK  Name = ZINC39674177
REMARK  10 active torsions:
REMARK  status: ('A' for Active; 'I' for Inactive)
REMARK    1  A    between atoms: C_1  and  C_2
REMARK    2  A    between atoms: C_4  and  C_9
REMARK    3  A    between atoms: C_5  and  C_8
REMARK    4  A    between atoms: C_9  and  C_11
REMARK    5  A    between atoms: C_9  and  N_12
REMARK    6  A    between atoms: C_13  and  C_15
REMARK    7  A    between atoms: C_26  and  C_28
REMARK    8  A    between atoms: C_33  and  O_34
REMARK    9  A    between atoms: O_34  and  C_35
REMARK   10  A    between atoms: C_35  and  C_37
REMARK                            x       y       z     vdW  Elec       q    Type
REMARK                         _______ _______ _______ _____ _____    ______ ____
ROOT
ATOM      1  C   UNL     1      -4.097  -1.858  -5.996  0.00  0.00    +0.100 C 
ATOM      2  C   UNL     1      -4.710  -3.058  -5.241  0.00  0.00    +0.121 C 
ATOM      3  N   UNL     1      -5.679  -3.646  -6.196  0.00  0.00    -0.296 N 
ATOM      4  C   UNL     1      -5.002  -3.556  -7.511  0.00  0.00    +0.115 C 
ATOM      5  C   UNL     1      -4.290  -2.189  -7.486  0.00  0.00    -0.004 C 
ATOM      6  C   UNL     1      -2.937  -2.286  -8.185  0.00  0.00    -0.010 C 
ATOM      7  C   UNL     1      -3.156  -2.558  -9.676  0.00  0.00    -0.082 C 
ATOM      8  N   UNL     1      -3.954  -1.473 -10.260  0.00  0.00    +0.379 N 
ATOM      9  C   UNL     1      -5.287  -1.446  -9.647  0.00  0.00    -0.082 C 
ATOM     10  C   UNL     1      -5.159  -1.128  -8.155  0.00  0.00    -0.010 C 
ATOM     11  C   UNL     1      -6.901  -4.149  -5.928  0.00  0.00    +0.250 C 
ATOM     12  O   UNL     1      -7.553  -4.665  -6.815  0.00  0.00    -0.270 OA
ATOM     13  H   UNL     1      -3.492  -0.591 -10.097  0.00  0.00    -0.086 HD
ATOM     14  H   UNL     1      -4.046  -1.623 -11.254  0.00  0.00    -0.086 HD
ENDROOT
BRANCH  11  15
ATOM     15  C   UNL     1      -7.447  -4.072  -4.560  0.00  0.00    +0.079 A 
ATOM     16  C   UNL     1      -6.594  -4.155  -3.457  0.00  0.00    +0.017 A 
ATOM     17  C   UNL     1      -7.110  -4.082  -2.181  0.00  0.00    +0.001 A 
ATOM     18  C   UNL     1      -8.473  -3.927  -1.987  0.00  0.00    +0.004 A 
ATOM     19  C   UNL     1      -9.328  -3.844  -3.068  0.00  0.00    +0.047 A 
ATOM     20  C   UNL     1      -8.825  -3.910  -4.359  0.00  0.00    +0.144 A 
BRANCH  20  21
ATOM     21  O   UNL     1      -9.663  -3.823  -5.423  0.00  0.00    -0.425 OA
BRANCH  21  22
ATOM     22  C   UNL     1      -9.863  -2.613  -5.971  0.00  0.00    +0.309 C 
ATOM     23  O   UNL     1      -9.245  -1.657  -5.566  0.00  0.00    -0.251 OA
ATOM     24  C   UNL     1     -10.857  -2.448  -7.091  0.00  0.00    +0.136 C 
ENDBRANCH  21  22
ENDBRANCH  20  21
ENDBRANCH  11  15
BRANCH   1  26
ATOM     25  N   UNL     1      -2.021  -0.531  -5.778  0.00  0.00    -0.309 N 
ATOM     26  C   UNL     1      -2.631  -1.728  -5.673  0.00  0.00    +0.219 C 
ATOM     27  O   UNL     1      -2.000  -2.701  -5.318  0.00  0.00    -0.275 OA
ATOM     28  H   UNL     1      -2.526   0.247  -6.061  0.00  0.00    +0.149 HD
BRANCH  25  29
ATOM     29  C   UNL     1      -0.596  -0.404  -5.463  0.00  0.00    +0.100 C 
ATOM     30  C   UNL     1       0.233  -0.770  -6.696  0.00  0.00    +0.033 C 
BRANCH  29  33
ATOM     31  C   UNL     1       0.170   2.296  -7.164  0.00  0.00    +0.039 C 
ATOM     32  C   UNL     1      -0.583   2.290  -5.832  0.00  0.00    +0.154 C 
ATOM     33  C   UNL     1      -0.295   1.016  -5.058  0.00  0.00    -0.001 C 
ATOM     34  C   UNL     1       0.286   1.445  -3.936  0.00  0.00    +0.063 C 
ATOM     35  N   UNL     1       0.385   2.793  -3.933  0.00  0.00    -0.159 NA
ATOM     36  N   UNL     1      -0.072   3.346  -4.941  0.00  0.00    -0.180 NA
ATOM     37  C   UNL     1       0.767   0.549  -2.824  0.00  0.00    +0.067 C 
ENDBRANCH  29  33
ENDBRANCH  25  29
ENDBRANCH   1  26
TORSDOF 6
