REMARK  Name = ZINC13189374
REMARK  11 active torsions:
REMARK  status: ('A' for Active; 'I' for Inactive)
REMARK    1  A    between atoms: C_1  and  O_2
REMARK    2  A    between atoms: O_2  and  C_3
REMARK    3  A    between atoms: C_6  and  N_9
REMARK    4  A    between atoms: C_10  and  C_12
REMARK    5  A    between atoms: C_12  and  S_13
REMARK    6  A    between atoms: S_13  and  C_14
REMARK    7  A    between atoms: C_15  and  C_35
REMARK    8  A    between atoms: C_16  and  C_26
REMARK    9  A    between atoms: C_29  and  O_34
REMARK   10  A    between atoms: C_30  and  O_32
REMARK   11  A    between atoms: O_32  and  C_33
REMARK                            x       y       z     vdW  Elec       q    Type
REMARK                         _______ _______ _______ _____ _____    ______ ____
ROOT
ATOM      1  C   UNL     1       4.293  -6.872  -6.560  0.00  0.00    +0.080 C 
ATOM      2  C   UNL     1       4.494  -8.210  -6.695  0.00  0.00    +0.069 C 
ATOM      3  C   UNL     1       5.268  -8.763  -7.855  0.00  0.00    +0.097 C 
ATOM      4  C   UNL     1       6.098  -7.692  -8.516  0.00  0.00    +0.024 C 
ATOM      5  C   UNL     1       5.832  -6.384  -8.313  0.00  0.00    +0.016 C 
ATOM      6  N   UNL     1       4.803  -6.000  -7.493  0.00  0.00    -0.311 N 
ATOM      7  C   UNL     1       6.650  -5.311  -8.989  0.00  0.00    +0.051 C 
ATOM      8  C   UNL     1       8.083  -5.808  -9.192  0.00  0.00    +0.014 C 
ATOM      9  C   UNL     1       8.039  -7.087 -10.033  0.00  0.00    +0.080 C 
ATOM     10  C   UNL     1       7.158  -8.095  -9.347  0.00  0.00    +0.162 C 
ATOM     11  O   UNL     1       7.367  -9.280  -9.513  0.00  0.00    -0.292 OA
ATOM     12  H   UNL     1       4.435  -5.106  -7.568  0.00  0.00    +0.152 HD
ENDROOT
BRANCH   3  13
ATOM     13  C   UNL     1       4.306  -9.334  -8.864  0.00  0.00    -0.031 A 
ATOM     14  C   UNL     1       3.359  -8.517  -9.453  0.00  0.00    +0.008 A 
ATOM     15  C   UNL     1       2.474  -9.035 -10.380  0.00  0.00    +0.049 A 
ATOM     16  C   UNL     1       2.535 -10.377 -10.721  0.00  0.00    +0.158 A 
ATOM     17  C   UNL     1       3.489 -11.199 -10.129  0.00  0.00    +0.162 A 
ATOM     18  C   UNL     1       4.376 -10.672  -9.204  0.00  0.00    +0.054 A 
BRANCH  17  19
ATOM     19  O   UNL     1       3.553 -12.517 -10.460  0.00  0.00    -0.491 OA
ATOM     20  C   UNL     1       4.557 -13.300  -9.812  0.00  0.00    +0.277 C 
ENDBRANCH  17  19
BRANCH  16  21
ATOM     21  O   UNL     1       1.665 -10.889 -11.632  0.00  0.00    -0.503 OA
ATOM     22  H   UNL     1       1.981 -10.846 -12.545  0.00  0.00    +0.292 HD
ENDBRANCH  16  21
ENDBRANCH   3  13
BRANCH   2  23
ATOM     23  C   UNL     1       3.958  -9.105  -5.715  0.00  0.00    +0.098 C 
ATOM     24  N   UNL     1       3.533  -9.816  -4.937  0.00  0.00    -0.191 NA
ENDBRANCH   2  23
BRANCH   1  25
ATOM     25  S   UNL     1       3.370  -6.255  -5.192  0.00  0.00    -0.100 S 
BRANCH  25  26
ATOM     26  C   UNL     1       3.363  -4.458  -5.442  0.00  0.00    +0.171 C 
BRANCH  26  28
ATOM     27  N   UNL     1       2.458  -2.458  -4.302  0.00  0.00    -0.285 N 
ATOM     28  C   UNL     1       2.596  -3.798  -4.325  0.00  0.00    +0.227 C 
ATOM     29  O   UNL     1       2.102  -4.474  -3.447  0.00  0.00    -0.275 OA
ATOM     30  H   UNL     1       2.786  -1.924  -5.042  0.00  0.00    +0.155 HD
BRANCH  27  34
ATOM     31  C   UNL     1       0.623  -0.606  -1.048  0.00  0.00    +0.120 A 
ATOM     32  C   UNL     1       1.376  -1.755  -0.857  0.00  0.00    +0.047 A 
ATOM     33  C   UNL     1       1.984  -2.369  -1.935  0.00  0.00    +0.027 A 
ATOM     34  C   UNL     1       1.841  -1.835  -3.208  0.00  0.00    +0.034 A 
ATOM     35  C   UNL     1       1.087  -0.685  -3.398  0.00  0.00    +0.027 A 
ATOM     36  C   UNL     1       0.475  -0.075  -2.321  0.00  0.00    +0.047 A 
BRANCH  31  38
ATOM     37  C   UNL     1       0.219  -0.601   1.296  0.00  0.00    +0.277 C 
ATOM     38  O   UNL     1       0.025  -0.001   0.013  0.00  0.00    -0.495 OA
ENDBRANCH  31  38
ENDBRANCH  27  34
ENDBRANCH  26  28
ENDBRANCH  25  26
ENDBRANCH   1  25
TORSDOF 9
