REMARK  Name = ZINC54641286
REMARK  12 active torsions:
REMARK  status: ('A' for Active; 'I' for Inactive)
REMARK    1  A    between atoms: C_1  and  C_2
REMARK    2  A    between atoms: C_2  and  C_3
REMARK    3  A    between atoms: C_3  and  O_4
REMARK    4  A    between atoms: O_4  and  C_5
REMARK    5  A    between atoms: C_6  and  O_32
REMARK    6  A    between atoms: C_8  and  C_12
REMARK    7  A    between atoms: C_14  and  C_23
REMARK    8  A    between atoms: C_15  and  C_22
REMARK    9  A    between atoms: C_23  and  O_25
REMARK   10  A    between atoms: O_25  and  C_26
REMARK   11  A    between atoms: O_32  and  C_33
REMARK   12  A    between atoms: C_33  and  C_34
REMARK                            x       y       z     vdW  Elec       q    Type
REMARK                         _______ _______ _______ _____ _____    ______ ____
ROOT
ATOM      1  C   UNL     1       3.255  -4.358  -5.566  0.00  0.00    +0.179 C 
ATOM      2  C   UNL     1       4.380  -3.445  -5.975  0.00  0.00    +0.082 C 
ATOM      3  C   UNL     1       5.673  -3.790  -5.880  0.00  0.00    +0.020 C 
ATOM      4  N   UNL     1       6.072  -5.015  -5.408  0.00  0.00    -0.287 N 
ATOM      5  C   UNL     1       5.098  -5.996  -5.275  0.00  0.00    +0.218 A 
ATOM      6  N   UNL     1       3.775  -5.705  -5.351  0.00  0.00    -0.221 N 
ATOM      7  N   UNL     1       3.094  -6.910  -5.185  0.00  0.00    -0.156 NA
ATOM      8  C   UNL     1       4.004  -7.838  -5.017  0.00  0.00    +0.247 A 
ATOM      9  N   UNL     1       5.217  -7.279  -5.070  0.00  0.00    -0.201 NA
ATOM     10  C   UNL     1       6.724  -2.797  -6.306  0.00  0.00    +0.061 C 
ATOM     11  H   UNL     1       6.997  -5.190  -5.177  0.00  0.00    +0.155 HD
ENDROOT
BRANCH   1  15
ATOM     12  C   UNL     1       1.498  -2.917  -1.942  0.00  0.00    +0.176 A 
ATOM     13  C   UNL     1       0.724  -3.034  -3.092  0.00  0.00    +0.163 A 
ATOM     14  C   UNL     1       1.296  -3.501  -4.264  0.00  0.00    +0.055 A 
ATOM     15  C   UNL     1       2.634  -3.850  -4.290  0.00  0.00    -0.014 A 
ATOM     16  C   UNL     1       3.404  -3.735  -3.147  0.00  0.00    +0.025 A 
ATOM     17  C   UNL     1       2.840  -3.263  -1.975  0.00  0.00    +0.063 A 
ATOM     18 BR   UNL     1       3.898  -3.098  -0.416  0.00  0.00    -0.046 Br
BRANCH  12  19
ATOM     19  O   UNL     1       0.941  -2.458  -0.789  0.00  0.00    -0.487 OA
BRANCH  19  20
ATOM     20  C   UNL     1       0.975  -1.047  -0.568  0.00  0.00    +0.229 C 
BRANCH  20  22
ATOM     21  C   UNL     1       0.342   0.787   1.006  0.00  0.00    +0.007 C 
ATOM     22  C   UNL     1       0.306  -0.724   0.769  0.00  0.00    +0.038 C 
ENDBRANCH  20  22
ENDBRANCH  19  20
ENDBRANCH  12  19
BRANCH  13  23
ATOM     23  O   UNL     1      -0.592  -2.691  -3.066  0.00  0.00    -0.489 OA
BRANCH  23  24
ATOM     24  C   UNL     1      -1.325  -2.837  -4.284  0.00  0.00    +0.226 C 
ATOM     25  C   UNL     1      -2.775  -2.405  -4.061  0.00  0.00    +0.048 C 
ENDBRANCH  23  24
ENDBRANCH  13  23
ENDBRANCH   1  15
BRANCH   2  26
ATOM     26  C   UNL     1       4.059  -2.167  -6.483  0.00  0.00    +0.339 C 
ATOM     27  O   UNL     1       3.618  -2.054  -7.612  0.00  0.00    -0.245 OA
BRANCH  26  28
ATOM     28  O   UNL     1       4.240  -1.071  -5.716  0.00  0.00    -0.458 OA
BRANCH  28  29
ATOM     29  C   UNL     1       3.895   0.189  -6.294  0.00  0.00    +0.177 C 
ATOM     30  C   UNL     1       5.114   0.773  -7.011  0.00  0.00    +0.044 C 
ATOM     31  C   UNL     1       4.744   2.123  -7.629  0.00  0.00    +0.004 C 
ATOM     32  C   UNL     1       4.292   3.083  -6.527  0.00  0.00    +0.000 C 
ATOM     33  C   UNL     1       3.073   2.498  -5.810  0.00  0.00    +0.004 C 
ATOM     34  C   UNL     1       3.443   1.149  -5.192  0.00  0.00    +0.044 C 
ENDBRANCH  28  29
ENDBRANCH  26  28
ENDBRANCH   2  26
TORSDOF 9
