REMARK  Name = ZINC64797583
REMARK  3 active torsions:
REMARK  status: ('A' for Active; 'I' for Inactive)
REMARK    1  A    between atoms: C_3  and  C_8
REMARK    2  A    between atoms: C_12  and  C_13
REMARK    3  A    between atoms: C_16  and  C_22
REMARK                            x       y       z     vdW  Elec       q    Type
REMARK                         _______ _______ _______ _____ _____    ______ ____
ROOT
ATOM      1  C   UNL     1       3.658   2.166  -0.022  0.00  0.00    +0.025 A 
ATOM      2  C   UNL     1       4.535   2.123  -1.104  0.00  0.00    +0.053 A 
ATOM      3  C   UNL     1       5.677   2.872  -1.003  0.00  0.00    +0.020 A 
ATOM      4  S   UNL     1       5.616   3.609   0.489  0.00  0.00    -0.084 S 
ATOM      5  C   UNL     1       4.049   2.971   1.055  0.00  0.00    +0.110 A 
ATOM      6  C   UNL     1       6.731   2.975  -2.064  0.00  0.00    +0.066 C 
ATOM      7  C   UNL     1       6.727   1.673  -2.874  0.00  0.00    +0.109 C 
ATOM      8  C   UNL     1       5.319   1.242  -3.175  0.00  0.00    +0.218 C 
ATOM      9  O   UNL     1       5.081   0.755  -4.260  0.00  0.00    -0.275 OA
ATOM     10  N   UNL     1       4.313   1.372  -2.294  0.00  0.00    -0.284 N 
ATOM     11  H   UNL     1       3.451   0.962  -2.465  0.00  0.00    +0.155 HD
ENDROOT
BRANCH   1  14
ATOM     12  C   UNL     1      -0.017   1.379   0.010  0.00  0.00    +0.003 A 
ATOM     13  C   UNL     1       1.167   2.088   0.002  0.00  0.00    +0.009 A 
ATOM     14  C   UNL     1       2.385   1.409  -0.013  0.00  0.00    -0.012 A 
ATOM     15  C   UNL     1       2.400   0.014  -0.021  0.00  0.00    +0.047 A 
ATOM     16  C   UNL     1       1.209  -0.686  -0.013  0.00  0.00    +0.124 A 
ATOM     17  C   UNL     1       0.002  -0.004   0.002  0.00  0.00    +0.038 A 
ATOM     18  F   UNL     1       1.220  -2.037  -0.021  0.00  0.00    -0.205 F 
ENDBRANCH   1  14
BRANCH   6  19
ATOM     19  C   UNL     1       6.428   4.140  -2.972  0.00  0.00    -0.039 A 
ATOM     20  C   UNL     1       5.239   4.175  -3.676  0.00  0.00    +0.005 A 
ATOM     21  C   UNL     1       4.959   5.243  -4.507  0.00  0.00    +0.015 A 
ATOM     22  C   UNL     1       5.870   6.277  -4.635  0.00  0.00    +0.018 A 
ATOM     23  C   UNL     1       7.060   6.241  -3.930  0.00  0.00    +0.015 A 
ATOM     24  C   UNL     1       7.336   5.175  -3.095  0.00  0.00    +0.005 A 
ATOM     25 BR   UNL     1       5.489   7.738  -5.773  0.00  0.00    -0.050 Br
ENDBRANCH   6  19
BRANCH   5  26
ATOM     26  C   UNL     1       3.378   3.214   2.275  0.00  0.00    +0.394 C 
ATOM     27  O   UNL     1       2.296   2.682   2.496  0.00  0.00    -0.240 OA
ATOM     28  O   UNL     1       3.877   3.958   3.111  0.00  0.00    -0.240 OA
ENDBRANCH   5  26
TORSDOF 3
