REMARK  Name = ZINC36153831
REMARK  6 active torsions:
REMARK  status: ('A' for Active; 'I' for Inactive)
REMARK    1  A    between atoms: C_1  and  C_2
REMARK    2  A    between atoms: C_2  and  C_3
REMARK    3  A    between atoms: C_2  and  C_4
REMARK    4  A    between atoms: C_4  and  C_5
REMARK    5  A    between atoms: C_11  and  C_13
REMARK    6  A    between atoms: C_17  and  N_19
REMARK                            x       y       z     vdW  Elec       q    Type
REMARK                         _______ _______ _______ _____ _____    ______ ____
ROOT
ATOM      1  C   UNL     1      -1.416  -2.035  -0.119  0.00  0.00    +0.156 A 
ATOM      2  N   UNL     1      -1.443  -2.706  -1.236  0.00  0.00    -0.132 NA
ATOM      3  N   UNL     1      -1.417  -3.970  -0.993  0.00  0.00    -0.120 NA
ATOM      4  C   UNL     1      -1.371  -4.160   0.291  0.00  0.00    +0.218 A 
ATOM      5  N   UNL     1      -1.362  -2.940   0.921  0.00  0.00    -0.190 N 
ATOM      6  N   UNL     1      -1.308  -2.958   2.309  0.00  0.00    -0.156 NA
ATOM      7  C   UNL     1      -1.266  -4.087   2.970  0.00  0.00    +0.132 A 
ATOM      8  S   UNL     1      -1.310  -5.295   1.655  0.00  0.00    -0.026 S 
ENDROOT
BRANCH   7   9
ATOM      9  C   UNL     1      -1.206  -4.306   4.432  0.00  0.00    +0.011 A 
ATOM     10  C   UNL     1      -1.195  -3.216   5.303  0.00  0.00    +0.012 A 
ATOM     11  C   UNL     1      -1.140  -3.421   6.666  0.00  0.00    +0.022 A 
ATOM     12  C   UNL     1      -1.095  -4.707   7.175  0.00  0.00    +0.062 A 
ATOM     13  C   UNL     1      -1.106  -5.800   6.315  0.00  0.00    +0.044 A 
ATOM     14  C   UNL     1      -1.167  -5.602   4.944  0.00  0.00    +0.034 A 
ATOM     15 CL   UNL     1      -1.025  -4.957   8.891  0.00  0.00    -0.082 Cl
BRANCH  13  16
ATOM     16  N   UNL     1      -1.060  -7.097   6.832  0.00  0.00    -0.357 N 
ATOM     17  H   UNL     1      -1.020  -7.236   7.791  0.00  0.00    +0.142 HD
ATOM     18  H   UNL     1      -1.067  -7.859   6.232  0.00  0.00    +0.142 HD
ENDBRANCH  13  16
ENDBRANCH   7   9
BRANCH   1  19
ATOM     19  C   UNL     1      -1.433  -0.534   0.013  0.00  0.00    +0.081 C 
BRANCH  19  21
ATOM     20  C   UNL     1      -0.019   1.526   0.010  0.00  0.00    +0.007 C 
ATOM     21  C   UNL     1       0.002  -0.004   0.002  0.00  0.00    -0.010 C 
ATOM     22  C   UNL     1       0.742  -0.511   1.242  0.00  0.00    +0.007 C 
ENDBRANCH  19  21
ENDBRANCH   1  19
TORSDOF 4
