REMARK  Name = ZINC00725447
REMARK  7 active torsions:
REMARK  status: ('A' for Active; 'I' for Inactive)
REMARK    1  A    between atoms: C_1  and  C_2
REMARK    2  A    between atoms: C_3  and  C_20
REMARK    3  A    between atoms: C_4  and  C_10
REMARK    4  A    between atoms: C_20  and  O_22
REMARK    5  A    between atoms: O_22  and  C_23
REMARK    6  A    between atoms: C_23  and  C_24
REMARK    7  A    between atoms: C_24  and  C_25
REMARK                            x       y       z     vdW  Elec       q    Type
REMARK                         _______ _______ _______ _____ _____    ______ ____
ROOT
ATOM      1  C   UNL     1       0.640   1.226  -0.046  0.00  0.00    +0.061 C 
ATOM      2  C   UNL     1       0.388  -0.259  -0.022  0.00  0.00    +0.021 C 
ATOM      3  C   UNL     1      -0.872  -0.721  -0.170  0.00  0.00    +0.078 C 
ATOM      4  C   UNL     1      -1.081  -2.222  -0.140  0.00  0.00    +0.145 C 
ATOM      5  N   UNL     1       0.116  -3.058   0.051  0.00  0.00    -0.288 N 
ATOM      6  C   UNL     1       1.310  -2.448   0.185  0.00  0.00    +0.304 C 
ATOM      7  O   UNL     1       2.304  -3.130   0.342  0.00  0.00    -0.252 OA
ATOM      8  N   UNL     1       1.438  -1.116   0.144  0.00  0.00    -0.273 N 
ATOM      9  H   UNL     1       0.046  -4.026   0.079  0.00  0.00    +0.151 HD
ATOM     10  H   UNL     1       2.326  -0.738   0.243  0.00  0.00    +0.156 HD
ENDROOT
BRANCH   4  11
ATOM     11  C   UNL     1      -1.729  -2.627  -1.439  0.00  0.00    -0.005 A 
ATOM     12  C   UNL     1      -0.944  -3.005  -2.513  0.00  0.00    +0.056 A 
ATOM     13  C   UNL     1      -1.536  -3.378  -3.708  0.00  0.00    +0.167 A 
ATOM     14  C   UNL     1      -2.924  -3.372  -3.825  0.00  0.00    +0.167 A 
ATOM     15  C   UNL     1      -3.705  -2.992  -2.745  0.00  0.00    +0.065 A 
ATOM     16  C   UNL     1      -3.107  -2.626  -1.553  0.00  0.00    +0.027 A 
ATOM     17 BR   UNL     1      -4.175  -2.116  -0.078  0.00  0.00    -0.050 Br
ATOM     18  O   UNL     1      -3.258  -3.774  -5.086  0.00  0.00    -0.453 OA
ATOM     19  C   UNL     1      -2.055  -3.634  -5.864  0.00  0.00    +0.466 C 
ATOM     20  O   UNL     1      -1.000  -3.785  -4.896  0.00  0.00    -0.453 OA
ENDBRANCH   4  11
BRANCH   3  21
ATOM     21  C   UNL     1      -1.960   0.165  -0.348  0.00  0.00    +0.339 C 
ATOM     22  O   UNL     1      -2.669   0.456   0.598  0.00  0.00    -0.245 OA
BRANCH  21  23
ATOM     23  O   UNL     1      -2.213   0.688  -1.566  0.00  0.00    -0.461 OA
BRANCH  23  24
ATOM     24  C   UNL     1      -3.255   1.662  -1.650  0.00  0.00    +0.237 C 
BRANCH  24  25
ATOM     25  C   UNL     1      -3.313   2.225  -3.072  0.00  0.00    +0.076 C 
BRANCH  25  26
ATOM     26  C   UNL     1      -4.330   3.336  -3.131  0.00  0.00    -0.044 A 
ATOM     27  C   UNL     1      -5.648   3.051  -3.432  0.00  0.00    +0.004 A 
ATOM     28  C   UNL     1      -6.581   4.070  -3.487  0.00  0.00    +0.000 A 
ATOM     29  C   UNL     1      -6.194   5.374  -3.240  0.00  0.00    +0.000 A 
ATOM     30  C   UNL     1      -4.876   5.659  -2.938  0.00  0.00    +0.000 A 
ATOM     31  C   UNL     1      -3.944   4.639  -2.879  0.00  0.00    +0.004 A 
ENDBRANCH  25  26
ENDBRANCH  24  25
ENDBRANCH  23  24
ENDBRANCH  21  23
ENDBRANCH   3  21
TORSDOF 6
