REMARK  Name = ZINC01942866
REMARK  6 active torsions:
REMARK  status: ('A' for Active; 'I' for Inactive)
REMARK    1  A    between atoms: C_1  and  C_2
REMARK    2  A    between atoms: C_9  and  N_13
REMARK    3  A    between atoms: C_10  and  C_11
REMARK    4  A    between atoms: C_14  and  C_16
REMARK    5  A    between atoms: C_16  and  O_17
REMARK    6  A    between atoms: O_17  and  C_18
REMARK                            x       y       z     vdW  Elec       q    Type
REMARK                         _______ _______ _______ _____ _____    ______ ____
ROOT
ATOM      1  N   UNL     1       1.258  -4.991  -2.183  0.00  0.00    -0.276 N 
ATOM      2  C   UNL     1       1.256  -4.176  -1.109  0.00  0.00    +0.255 C 
ATOM      3  O   UNL     1       1.273  -4.646   0.009  0.00  0.00    -0.272 OA
ATOM      4  H   UNL     1       1.242  -4.565  -3.197  0.00  0.00    +0.155 HD
ENDROOT
BRANCH   1  12
ATOM      5  C   UNL     1       1.290 -12.687  -0.777  0.00  0.00    +0.008 C 
ATOM      6  C   UNL     1       0.979 -11.332  -1.416  0.00  0.00    -0.009 C 
ATOM      7  C   UNL     1       1.802 -11.167  -2.697  0.00  0.00    +0.008 C 
ATOM      8  C   UNL     1       1.321  -9.938  -3.471  0.00  0.00    +0.037 C 
ATOM      9  C   UNL     1       1.311  -8.740  -2.530  0.00  0.00    -0.018 A 
ATOM     10  C   UNL     1       1.325  -8.908  -1.189  0.00  0.00    -0.004 A 
ATOM     11  S   UNL     1       1.315  -7.266  -0.527  0.00  0.00    -0.077 S 
ATOM     12  C   UNL     1       1.280  -6.368  -2.009  0.00  0.00    +0.090 A 
ATOM     13  C   UNL     1       1.286  -7.359  -2.979  0.00  0.00    +0.084 A 
ATOM     14  C   UNL     1       1.350 -10.206  -0.441  0.00  0.00    +0.046 C 
BRANCH  13  15
ATOM     15  C   UNL     1       1.268  -7.033  -4.374  0.00  0.00    +0.102 C 
ATOM     16  N   UNL     1       1.255  -6.774  -5.480  0.00  0.00    -0.191 NA
ENDBRANCH  13  15
ENDBRANCH   1  12
BRANCH   2  17
ATOM     17  C   UNL     1       1.232  -2.682  -1.298  0.00  0.00    +0.325 C 
BRANCH  17  18
ATOM     18  O   UNL     1       1.234  -2.040  -0.021  0.00  0.00    -0.480 OA
BRANCH  18  19
ATOM     19  C   UNL     1       1.214  -0.681  -0.013  0.00  0.00    +0.161 A 
ATOM     20  C   UNL     1       0.002  -0.004   0.002  0.00  0.00    +0.104 A 
ATOM     21  C   UNL     1      -0.017   1.379   0.010  0.00  0.00    +0.083 A 
ATOM     22  C   UNL     1       1.172   2.089   0.002  0.00  0.00    +0.081 A 
ATOM     23  C   UNL     1       2.382   1.415  -0.013  0.00  0.00    +0.083 A 
ATOM     24  C   UNL     1       2.404   0.032  -0.021  0.00  0.00    +0.104 A 
ATOM     25 CL   UNL     1       3.921  -0.812  -0.039  0.00  0.00    -0.078 Cl
ATOM     26 CL   UNL     1       3.871   2.307  -0.023  0.00  0.00    -0.080 Cl
ATOM     27 CL   UNL     1       1.146   3.825   0.011  0.00  0.00    -0.080 Cl
ATOM     28 CL   UNL     1      -1.532   2.226   0.021  0.00  0.00    -0.080 Cl
ATOM     29 CL   UNL     1      -1.489  -0.893   0.012  0.00  0.00    -0.078 Cl
ENDBRANCH  18  19
ENDBRANCH  17  18
ENDBRANCH   2  17
TORSDOF 5
