REMARK  Name = ZINC12347861
REMARK  4 active torsions:
REMARK  status: ('A' for Active; 'I' for Inactive)
REMARK    1  A    between atoms: C_1  and  C_2
REMARK    2  A    between atoms: C_2  and  C_26
REMARK    3  A    between atoms: C_6  and  C_16
REMARK    4  A    between atoms: C_13  and  O_14
REMARK                            x       y       z     vdW  Elec       q    Type
REMARK                         _______ _______ _______ _____ _____    ______ ____
ROOT
ATOM      1  C   UNL     1      -0.868   3.125   2.210  0.00  0.00    +0.011 C 
ATOM      2  C   UNL     1      -1.292   3.367   0.760  0.00  0.00    -0.023 C 
ATOM      3  C   UNL     1      -1.375   2.033   0.017  0.00  0.00    +0.058 C 
ATOM      4  C   UNL     1      -0.017   1.368   0.010  0.00  0.00    +0.017 C 
ATOM      5  C   UNL     1       1.114   2.107   0.003  0.00  0.00    +0.024 C 
ATOM      6  C   UNL     1       2.493   1.481  -0.017  0.00  0.00    +0.092 C 
ATOM      7  C   UNL     1       2.381   0.022  -0.358  0.00  0.00    +0.067 A 
ATOM      8  C   UNL     1       1.187  -0.648  -0.335  0.00  0.00    +0.126 A 
ATOM      9  N   UNL     1       1.426  -1.927  -0.679  0.00  0.00    -0.260 N 
ATOM     10  H   UNL     1       0.746  -2.657  -0.747  0.00  0.00    +0.190 HD
ATOM     11  N   UNL     1       2.803  -2.053  -0.927  0.00  0.00    -0.134 NA
ATOM     12  C   UNL     1       3.370  -0.883  -0.733  0.00  0.00    +0.237 A 
ATOM     13  N   UNL     1       0.002  -0.004   0.002  0.00  0.00    -0.303 N 
ATOM     14  C   UNL     1       1.059   3.512   0.019  0.00  0.00    +0.162 C 
ATOM     15  O   UNL     1       2.095   4.147   0.003  0.00  0.00    -0.292 OA
ATOM     16  C   UNL     1      -0.252   4.246   0.057  0.00  0.00    +0.086 C 
ATOM     17  C   UNL     1      -2.657   4.059   0.730  0.00  0.00    +0.011 C 
ATOM     18  H   UNL     1      -0.793  -0.512   0.227  0.00  0.00    +0.153 HD
ENDROOT
BRANCH   6  19
ATOM     19  C   UNL     1       3.129   1.631   1.341  0.00  0.00    -0.035 A 
ATOM     20  C   UNL     1       2.523   1.077   2.453  0.00  0.00    +0.005 A 
ATOM     21  C   UNL     1       3.109   1.210   3.698  0.00  0.00    +0.015 A 
ATOM     22  C   UNL     1       4.297   1.907   3.832  0.00  0.00    +0.018 A 
ATOM     23  C   UNL     1       4.900   2.466   2.720  0.00  0.00    +0.015 A 
ATOM     24  C   UNL     1       4.316   2.327   1.475  0.00  0.00    +0.005 A 
ATOM     25 BR   UNL     1       5.096   2.095   5.536  0.00  0.00    -0.050 Br
ENDBRANCH   6  19
BRANCH  12  26
ATOM     26  O   UNL     1       4.694  -0.605  -0.874  0.00  0.00    -0.491 OA
ATOM     27  H   UNL     1       5.181  -1.433  -1.151  0.00  0.00    +0.294 HD
ENDBRANCH  12  26
TORSDOF 2
