REMARK  Name = ZINC41086102
REMARK  5 active torsions:
REMARK  status: ('A' for Active; 'I' for Inactive)
REMARK    1  A    between atoms: C_4  and  N_11
REMARK    2  A    between atoms: C_5  and  C_7
REMARK    3  A    between atoms: C_18  and  S_20
REMARK    4  A    between atoms: S_20  and  C_21
REMARK    5  A    between atoms: C_21  and  C_22
REMARK                            x       y       z     vdW  Elec       q    Type
REMARK                         _______ _______ _______ _____ _____    ______ ____
ROOT
ATOM      1  N   UNL     1       3.622  -0.651  -0.036  0.00  0.00    -0.269 N 
ATOM      2  C   UNL     1       4.776   0.037  -0.146  0.00  0.00    +0.310 C 
ATOM      3  O   UNL     1       4.761   1.253  -0.139  0.00  0.00    -0.252 OA
ATOM      4  N   UNL     1       5.945  -0.623  -0.263  0.00  0.00    -0.247 N 
ATOM      5  C   UNL     1       7.137   0.088  -0.376  0.00  0.00    +0.190 A 
ATOM      6  N   UNL     1       7.335   1.391  -0.384  0.00  0.00    -0.125 NA
ATOM      7  N   UNL     1       8.612   1.890  -0.507  0.00  0.00    -0.133 NA
ATOM      8  C   UNL     1       9.632   1.060  -0.617  0.00  0.00    +0.160 A 
ATOM      9  S   UNL     1       8.808  -0.523  -0.541  0.00  0.00    -0.024 S 
ATOM     10  H   UNL     1       3.639  -1.618   0.041  0.00  0.00    +0.156 HD
ATOM     11  H   UNL     1       5.956  -1.593  -0.268  0.00  0.00    +0.158 HD
ENDROOT
BRANCH   1  15
ATOM     12  C   UNL     1      -0.019   1.375  -0.029  0.00  0.00    +0.001 A 
ATOM     13  C   UNL     1       1.087   1.946  -0.632  0.00  0.00    +0.002 A 
ATOM     14  C   UNL     1       2.296   1.277  -0.636  0.00  0.00    +0.024 A 
ATOM     15  C   UNL     1       2.399   0.030  -0.034  0.00  0.00    +0.046 A 
ATOM     16  C   UNL     1       1.286  -0.541   0.570  0.00  0.00    +0.076 A 
ATOM     17  C   UNL     1       0.081   0.133   0.571  0.00  0.00    +0.014 A 
BRANCH  16  18
ATOM     18  C   UNL     1       1.394  -1.894   1.225  0.00  0.00    +0.419 C 
ATOM     19  F   UNL     1       0.152  -2.254   1.759  0.00  0.00    -0.166 F 
ATOM     20  F   UNL     1       1.785  -2.842   0.273  0.00  0.00    -0.166 F 
ATOM     21  F   UNL     1       2.345  -1.842   2.249  0.00  0.00    -0.166 F 
ENDBRANCH  16  18
ENDBRANCH   1  15
BRANCH   8  22
ATOM     22  S   UNL     1      11.349   1.418  -0.786  0.00  0.00    -0.091 S 
BRANCH  22  23
ATOM     23  C   UNL     1      11.423   3.230  -0.776  0.00  0.00    +0.132 C 
BRANCH  23  24
ATOM     24  C   UNL     1      12.856   3.675  -0.916  0.00  0.00    +0.059 A 
ATOM     25  C   UNL     1      13.304   4.191  -2.116  0.00  0.00    +0.094 A 
ATOM     26  C   UNL     1      14.639   4.598  -2.222  0.00  0.00    +0.259 A 
ATOM     27  O   UNL     1      15.066   5.059  -3.269  0.00  0.00    -0.267 OA
ATOM     28  N   UNL     1      15.447   4.474  -1.147  0.00  0.00    -0.268 N 
ATOM     29  C   UNL     1      16.749   4.866  -1.234  0.00  0.00    +0.096 A 
ATOM     30  C   UNL     1      17.577   4.751  -0.172  0.00  0.00    +0.018 A 
ATOM     31  C   UNL     1      17.103   4.224   1.038  0.00  0.00    +0.005 A 
ATOM     32  C   UNL     1      15.802   3.829   1.135  0.00  0.00    +0.047 A 
ATOM     33  C   UNL     1      14.955   3.957   0.019  0.00  0.00    +0.140 A 
ATOM     34  N   UNL     1      13.682   3.577   0.113  0.00  0.00    -0.233 NA
ENDBRANCH  23  24
ENDBRANCH  22  23
ENDBRANCH   8  22
TORSDOF 5
