REMARK  Name = ZINC33122290
REMARK  8 active torsions:
REMARK  status: ('A' for Active; 'I' for Inactive)
REMARK    1  A    between atoms: C_1  and  C_2
REMARK    2  A    between atoms: C_2  and  C_3
REMARK    3  A    between atoms: C_4  and  C_33
REMARK    4  A    between atoms: C_11  and  S_12
REMARK    5  A    between atoms: S_12  and  C_13
REMARK    6  A    between atoms: C_16  and  N_19
REMARK    7  A    between atoms: N_19  and  S_20
REMARK    8  A    between atoms: S_20  and  C_23
REMARK                            x       y       z     vdW  Elec       q    Type
REMARK                         _______ _______ _______ _____ _____    ______ ____
ROOT
ATOM      1  C   UNL     1       1.705   2.010   0.011  0.00  0.00    +0.014 A 
ATOM      2  C   UNL     1       0.436   1.446   0.061  0.00  0.00    +0.017 A 
ATOM      3  C   UNL     1       0.291   0.073   0.057  0.00  0.00    +0.025 A 
ATOM      4  C   UNL     1       1.413  -0.744   0.004  0.00  0.00    +0.048 A 
ATOM      5  C   UNL     1       2.681  -0.180  -0.045  0.00  0.00    +0.025 A 
ATOM      6  C   UNL     1       2.827   1.193  -0.042  0.00  0.00    +0.017 A 
ENDROOT
BRANCH   4   7
ATOM      7  N   UNL     1       1.265  -2.135   0.000  0.00  0.00    -0.216 N 
ATOM      8  H   UNL     1       1.497  -2.716   0.905  0.00  0.00    +0.174 HD
BRANCH   7   9
ATOM      9  S   UNL     1       0.741  -2.909  -1.367  0.00  0.00    +0.072 S 
ATOM     10  O   UNL     1       0.750  -4.300  -1.076  0.00  0.00    -0.150 OA
ATOM     11  O   UNL     1      -0.430  -2.228  -1.796  0.00  0.00    -0.150 OA
BRANCH   9  12
ATOM     12  C   UNL     1       1.960  -2.648  -2.613  0.00  0.00    +0.109 A 
ATOM     13  C   UNL     1       1.900  -1.525  -3.417  0.00  0.00    +0.029 A 
ATOM     14  C   UNL     1       2.860  -1.326  -4.388  0.00  0.00    +0.006 A 
ATOM     15  C   UNL     1       3.880  -2.251  -4.572  0.00  0.00    -0.044 A 
ATOM     16  C   UNL     1       3.938  -3.370  -3.773  0.00  0.00    -0.042 A 
ATOM     17  C   UNL     1       2.973  -3.566  -2.792  0.00  0.00    +0.032 A 
ATOM     18  C   UNL     1       5.020  -4.409  -3.909  0.00  0.00    +0.035 C 
ATOM     19  C   UNL     1       5.718  -4.282  -5.262  0.00  0.00    +0.005 C 
ATOM     20  C   UNL     1       6.143  -2.821  -5.452  0.00  0.00    +0.005 C 
ATOM     21  C   UNL     1       4.886  -1.978  -5.660  0.00  0.00    +0.035 C 
ENDBRANCH   9  12
ENDBRANCH   7   9
ENDBRANCH   4   7
BRANCH   1  22
ATOM     22  S   UNL     1       1.891   3.762   0.015  0.00  0.00    -0.069 S 
BRANCH  22  31
ATOM     23  C   UNL     1       4.293   4.044  -1.270  0.00  0.00    +0.006 A 
ATOM     24  C   UNL     1       5.681   4.136  -1.288  0.00  0.00    +0.048 A 
ATOM     25  N   UNL     1       6.369   4.072  -0.167  0.00  0.00    -0.216 NA
ATOM     26  C   UNL     1       5.759   3.917   1.014  0.00  0.00    +0.254 A 
ATOM     27  N   UNL     1       6.221   3.826   2.256  0.00  0.00    -0.197 NA
ATOM     28  C   UNL     1       5.209   3.677   3.102  0.00  0.00    +0.247 A 
ATOM     29  N   UNL     1       4.079   3.668   2.437  0.00  0.00    -0.151 NA
ATOM     30  N   UNL     1       4.397   3.827   1.083  0.00  0.00    -0.190 N 
ATOM     31  C   UNL     1       3.647   3.884  -0.058  0.00  0.00    +0.112 A 
ATOM     32  C   UNL     1       6.403   4.312  -2.599  0.00  0.00    +0.066 C 
BRANCH  23  34
ATOM     33  C   UNL     1       3.144   5.575  -2.847  0.00  0.00    +0.009 C 
ATOM     34  C   UNL     1       3.505   4.118  -2.552  0.00  0.00    +0.036 C 
ENDBRANCH  23  34
ENDBRANCH  22  31
ENDBRANCH   1  22
TORSDOF 6
