REMARK  Name = ZINC08965644
REMARK  9 active torsions:
REMARK  status: ('A' for Active; 'I' for Inactive)
REMARK    1  A    between atoms: C_1  and  C_2
REMARK    2  A    between atoms: C_2  and  C_4
REMARK    3  A    between atoms: C_4  and  C_6
REMARK    4  A    between atoms: C_4  and  N_13
REMARK    5  A    between atoms: C_6  and  C_7
REMARK    6  A    between atoms: C_14  and  C_16
REMARK    7  A    between atoms: C_16  and  N_63
REMARK    8  A    between atoms: N_19  and  C_22
REMARK    9  A    between atoms: N_25  and  C_30
REMARK                            x       y       z     vdW  Elec       q    Type
REMARK                         _______ _______ _______ _____ _____    ______ ____
ROOT
ATOM      1  C   UNL     1       0.591  -1.982   0.837  0.00  0.00    -0.059 C 
ATOM      2  C   UNL     1       0.566  -0.454   0.741  0.00  0.00    +0.086 C 
ATOM      3  N   UNL     1       0.428  -0.056  -0.666  0.00  0.00    -0.331 N 
ATOM      4  C   UNL     1      -0.807  -0.601  -1.246  0.00  0.00    +0.086 C 
ATOM      5  C   UNL     1      -0.782  -2.128  -1.151  0.00  0.00    -0.059 C 
ATOM      6  N   UNL     1      -0.666  -2.515   0.270  0.00  0.00    +0.387 N 
ATOM      7  H   UNL     1      -1.459  -2.121   0.789  0.00  0.00    -0.081 HD
ENDROOT
BRANCH   3   8
ATOM      8  C   UNL     1       0.474   1.322  -0.799  0.00  0.00    +0.074 A 
ATOM      9  C   UNL     1      -0.485   2.131  -0.154  0.00  0.00    +0.158 A 
ATOM     10  N   UNL     1      -0.442   3.429  -0.274  0.00  0.00    -0.170 NA
ATOM     11  N   UNL     1       0.544   4.049  -1.048  0.00  0.00    -0.195 N 
ATOM     12  C   UNL     1       1.477   3.314  -1.686  0.00  0.00    +0.292 A 
ATOM     13  O   UNL     1       2.334   3.862  -2.362  0.00  0.00    -0.264 OA
ATOM     14  C   UNL     1       1.456   1.917  -1.570  0.00  0.00    +0.129 A 
ATOM     15 CL   UNL     1       2.646   0.949  -2.382  0.00  0.00    -0.076 Cl
BRANCH  11  16
ATOM     16  C   UNL     1       0.562   5.443  -1.162  0.00  0.00    +0.069 A 
ATOM     17  C   UNL     1       1.747   6.142  -0.969  0.00  0.00    +0.028 A 
ATOM     18  C   UNL     1       1.762   7.518  -1.089  0.00  0.00    +0.002 A 
ATOM     19  C   UNL     1       0.598   8.201  -1.388  0.00  0.00    +0.000 A 
ATOM     20  C   UNL     1      -0.585   7.509  -1.575  0.00  0.00    +0.002 A 
ATOM     21  C   UNL     1      -0.606   6.132  -1.463  0.00  0.00    +0.028 A 
ENDBRANCH  11  16
ENDBRANCH   3   8
BRANCH   6  22
ATOM     22  C   UNL     1      -0.692  -3.988   0.397  0.00  0.00    +0.019 C 
BRANCH  22  24
ATOM     23  N   UNL     1      -0.744  -5.640   2.238  0.00  0.00    -0.307 N 
ATOM     24  C   UNL     1      -0.806  -4.349   1.856  0.00  0.00    +0.197 C 
ATOM     25  O   UNL     1      -0.953  -3.477   2.686  0.00  0.00    -0.278 OA
ATOM     26  H   UNL     1      -0.626  -6.337   1.573  0.00  0.00    +0.149 HD
BRANCH  23  27
ATOM     27  C   UNL     1      -0.855  -5.990   3.656  0.00  0.00    +0.143 C 
BRANCH  27  29
ATOM     28  C   UNL     1       0.614  -5.858   5.809  0.00  0.00    +0.088 C 
ATOM     29  C   UNL     1       0.500  -5.883   4.307  0.00  0.00    +0.151 C 
ATOM     30  O   UNL     1       1.495  -5.817   3.625  0.00  0.00    -0.296 OA
ENDBRANCH  27  29
BRANCH  27  31
ATOM     31  C   UNL     1      -1.372  -7.424   3.788  0.00  0.00    +0.065 C 
BRANCH  31  32
ATOM     32  C   UNL     1      -2.776  -7.504   3.247  0.00  0.00    -0.045 A 
ATOM     33  C   UNL     1      -3.853  -7.290   4.086  0.00  0.00    +0.004 A 
ATOM     34  C   UNL     1      -5.141  -7.358   3.588  0.00  0.00    +0.000 A 
ATOM     35  C   UNL     1      -5.352  -7.650   2.254  0.00  0.00    +0.000 A 
ATOM     36  C   UNL     1      -4.275  -7.870   1.416  0.00  0.00    +0.000 A 
ATOM     37  C   UNL     1      -2.987  -7.796   1.912  0.00  0.00    +0.004 A 
ENDBRANCH  31  32
ENDBRANCH  27  31
ENDBRANCH  23  27
ENDBRANCH  22  24
ENDBRANCH   6  22
TORSDOF 8
