REMARK  Name = ZINC63375206
REMARK  10 active torsions:
REMARK  status: ('A' for Active; 'I' for Inactive)
REMARK    1  A    between atoms: CB_1  and  CA_2
REMARK    2  A    between atoms: CA_2  and  C_4
REMARK    3  A    between atoms: CA_2  and  N_7
REMARK    4  A    between atoms: C_8  and  CA_10
REMARK    5  A    between atoms: CA_10  and  CB_12
REMARK    6  A    between atoms: CA_10  and  N_16
REMARK    7  A    between atoms: CB_12  and  CG_13
REMARK    8  A    between atoms: CG_13  and  SD_14
REMARK    9  A    between atoms: SD_14  and  CE_15
REMARK   10  A    between atoms: C_17  and  C_19
REMARK                            x       y       z     vdW  Elec       q    Type
REMARK                         _______ _______ _______ _____ _____    ______ ____
ROOT
ATOM      1  C   UNK A   0       6.501  -1.997   2.539  0.00  0.00    +0.167 C 
ATOM      2  C   UNK A   0       6.752  -2.511   1.108  0.00  0.00    +0.065 C 
ATOM      3  C   UNK A   0       8.201  -2.925   1.034  0.00  0.00    -0.034 C 
ATOM      4  C   UNK A   0       9.160  -2.579   0.181  0.00  0.00    -0.001 A 
ATOM      5  C   UNK A   0       9.132  -1.758  -1.040  0.00  0.00    +0.010 A 
ATOM      6  C   UNK A   0      10.322  -1.588  -1.675  0.00  0.00    +0.001 A 
ATOM      7  C   UNK A   0      11.522  -2.146  -1.222  0.00  0.00    +0.002 A 
ATOM      8  C   UNK A   0      11.638  -2.921  -0.115  0.00  0.00    +0.026 A 
ATOM      9  C   UNK A   0      10.452  -3.178   0.633  0.00  0.00    +0.043 A 
ATOM     10  N   UNK A   0      10.271  -3.893   1.704  0.00  0.00    -0.375 N 
ATOM     11  C   UNK A   0       8.844  -3.881   2.033  0.00  0.00    +0.131 C 
ATOM     12  C   UNK A   0       8.590  -3.291   3.425  0.00  0.00    +0.134 C 
ATOM     13  N   UNK A   0       7.162  -2.907   3.483  0.00  0.00    -0.276 N 
ATOM     14  C   UNK A   0       6.589  -3.536   4.525  0.00  0.00    +0.248 C 
ATOM     15  O   UNK A   0       5.443  -3.368   4.894  0.00  0.00    -0.270 OA
ATOM     16  C   UNK A   0       7.545  -4.453   5.148  0.00  0.00    +0.042 A 
ATOM     17  C   UNK A   0       8.807  -4.318   4.488  0.00  0.00    -0.013 A 
ATOM     18  C   UNK A   0       9.919  -5.046   4.847  0.00  0.00    +0.006 A 
ATOM     19  C   UNK A   0       9.776  -5.934   5.910  0.00  0.00    +0.000 A 
ATOM     20  C   UNK A   0       8.577  -6.082   6.578  0.00  0.00    +0.001 A 
ATOM     21  C   UNK A   0       7.393  -5.344   6.213  0.00  0.00    +0.013 A 
ATOM     22  H   UNK A   0      10.963  -4.356   2.200  0.00  0.00    +0.160 HD
ENDROOT
BRANCH   1  24
ATOM     23  N   MET A   1       4.327  -3.121   2.898  0.00  0.00    -0.302 N 
ATOM     24  C   UNK A   0       5.020  -1.968   2.815  0.00  0.00    +0.235 C 
ATOM     25  O   UNK A   0       4.451  -0.907   2.962  0.00  0.00    -0.274 OA
ATOM     26  H   MET A   1       4.782  -3.970   2.780  0.00  0.00    +0.150 HD
BRANCH  23  27
ATOM     27  CA  MET A   1       2.887  -3.093   3.166  0.00  0.00    +0.160 C 
BRANCH  27  29
ATOM     28  N   MET A   1       1.180  -4.594   4.141  0.00  0.00    -0.301 N 
ATOM     29  C   MET A   1       2.470  -4.393   3.804  0.00  0.00    +0.234 C 
ATOM     30  O   MET A   1       3.294  -5.258   4.014  0.00  0.00    -0.274 OA
ATOM     31  H   MET A   1       0.521  -3.902   3.974  0.00  0.00    +0.150 HD
BRANCH  28  33
ATOM     32  CB  MET A   1       0.498  -6.895   3.671  0.00  0.00    +0.040 C 
ATOM     33  CA  MET A   1       0.774  -5.858   4.761  0.00  0.00    +0.183 C 
BRANCH  33  34
ATOM     34  C   MET A   1      -0.475  -5.639   5.575  0.00  0.00    +0.376 C 
ATOM     35  O   MET A   1      -0.686  -6.322   6.563  0.00  0.00    -0.244 OA
ATOM     36  OXT MET A   1      -1.275  -4.780   5.245  0.00  0.00    -0.244 OA
ENDBRANCH  33  34
ENDBRANCH  28  33
ENDBRANCH  27  29
BRANCH  27  37
ATOM     37  CB  MET A   1       2.127  -2.902   1.852  0.00  0.00    +0.042 C 
BRANCH  37  38
ATOM     38  CG  MET A   1       2.457  -1.527   1.268  0.00  0.00    +0.071 C 
BRANCH  38  39
ATOM     39  SD  MET A   1       1.556  -1.300  -0.290  0.00  0.00    -0.164 S 
ATOM     40  CE  MET A   1       2.050   0.354  -0.846  0.00  0.00    +0.084 C 
ENDBRANCH  38  39
ENDBRANCH  37  38
ENDBRANCH  27  37
ENDBRANCH  23  27
ENDBRANCH   1  24
TORSDOF 8
