REMARK  Name = ZINC37492326
REMARK  4 active torsions:
REMARK  status: ('A' for Active; 'I' for Inactive)
REMARK    1  A    between atoms: C_3  and  N_18
REMARK    2  A    between atoms: C_4  and  O_8
REMARK    3  A    between atoms: O_8  and  C_9
REMARK    4  A    between atoms: C_15  and  O_17
REMARK                            x       y       z     vdW  Elec       q    Type
REMARK                         _______ _______ _______ _____ _____    ______ ____
ROOT
ATOM      1  C   UNL     1      -0.017   1.380   0.009  0.00  0.00    +0.041 A 
ATOM      2  C   UNL     1       1.158   2.073  -0.217  0.00  0.00    +0.039 A 
ATOM      3  C   UNL     1       2.365   1.403  -0.232  0.00  0.00    +0.168 A 
ATOM      4  C   UNL     1       2.400   0.032  -0.021  0.00  0.00    +0.154 A 
ATOM      5  C   UNL     1       1.222  -0.663   0.206  0.00  0.00    +0.086 A 
ATOM      6  C   UNL     1       0.014   0.012   0.220  0.00  0.00    +0.127 A 
ATOM      7  F   UNL     1      -1.135  -0.663   0.441  0.00  0.00    -0.205 F 
ENDROOT
BRANCH   3   8
ATOM      8  N   UNL     1       3.622   2.146  -0.474  0.00  0.00    +0.060 N 
ATOM      9  O   UNL     1       3.592   3.340  -0.659  0.00  0.00    -0.126 OA
ATOM     10  O   UNL     1       4.679   1.559  -0.488  0.00  0.00    -0.126 OA
ENDBRANCH   3   8
BRANCH   4  11
ATOM     11  O   UNL     1       3.587  -0.629  -0.036  0.00  0.00    -0.484 OA
BRANCH  11  12
ATOM     12  C   UNL     1       3.538  -2.054   0.068  0.00  0.00    +0.202 C 
ATOM     13  C   UNL     1       3.470  -2.456   1.543  0.00  0.00    +0.047 C 
ATOM     14  C   UNL     1       3.418  -3.981   1.654  0.00  0.00    +0.004 C 
ATOM     15  C   UNL     1       4.673  -4.582   1.019  0.00  0.00    +0.003 C 
ATOM     16  C   UNL     1       4.741  -4.180  -0.456  0.00  0.00    +0.035 C 
ATOM     17  C   UNL     1       4.794  -2.655  -0.567  0.00  0.00    +0.155 C 
BRANCH  17  18
ATOM     18  O   UNL     1       4.857  -2.280  -1.944  0.00  0.00    -0.388 OA
ATOM     19  H   UNL     1       5.630  -2.627  -2.412  0.00  0.00    +0.210 HD
ENDBRANCH  17  18
ENDBRANCH  11  12
ENDBRANCH   4  11
TORSDOF 4
