REMARK  Name = ZINC14161136
REMARK  5 active torsions:
REMARK  status: ('A' for Active; 'I' for Inactive)
REMARK    1  A    between atoms: C_1  and  C_2
REMARK    2  A    between atoms: C_4  and  C_33
REMARK    3  A    between atoms: N_10  and  C_11
REMARK    4  A    between atoms: N_13  and  C_14
REMARK    5  A    between atoms: C_27  and  C_30
REMARK                            x       y       z     vdW  Elec       q    Type
REMARK                         _______ _______ _______ _____ _____    ______ ____
ROOT
ATOM      1  C   UNL     1      -7.584  -1.045  -2.307  0.00  0.00    +0.066 C 
ATOM      2  C   UNL     1      -8.464  -0.949  -1.087  0.00  0.00    +0.044 A 
ATOM      3  C   UNL     1      -9.709  -1.559  -1.070  0.00  0.00    +0.046 A 
ATOM      4  C   UNL     1     -10.486  -1.446   0.071  0.00  0.00    +0.044 A 
ATOM      5  N   UNL     1     -10.021  -0.764   1.104  0.00  0.00    -0.219 NA
ATOM      6  C   UNL     1      -8.827  -0.192   1.055  0.00  0.00    +0.222 A 
ATOM      7  N   UNL     1      -8.061  -0.277  -0.022  0.00  0.00    -0.219 NA
ATOM      8  N   UNL     1      -8.370   0.517   2.158  0.00  0.00    -0.258 N 
ATOM      9  C   UNL     1      -7.139   1.114   2.125  0.00  0.00    +0.183 C 
ATOM     10  N   UNL     1      -6.342   0.930   1.086  0.00  0.00    -0.134 NA
ATOM     11  N   UNL     1      -6.734   1.899   3.164  0.00  0.00    -0.305 N 
ATOM     12  C   UNL     1      -5.940   1.333   4.264  0.00  0.00    +0.108 C 
ATOM     13  C   UNL     1      -6.627   1.655   5.590  0.00  0.00    +0.032 C 
ATOM     14  C   UNL     1      -6.855   3.165   5.691  0.00  0.00    +0.078 C 
ATOM     15  C   UNL     1      -7.766   3.622   4.550  0.00  0.00    +0.032 C 
ATOM     16  C   UNL     1      -7.088   3.324   3.209  0.00  0.00    +0.108 C 
ATOM     17  C   UNL     1     -11.846  -2.094   0.136  0.00  0.00    +0.066 C 
ATOM     18  H   UNL     1      -8.923   0.590   2.951  0.00  0.00    +0.157 HD
ENDROOT
BRANCH  14  19
ATOM     19  C   UNL     1      -7.505   3.487   7.012  0.00  0.00    +0.214 C 
ATOM     20  O   UNL     1      -8.589   4.029   7.038  0.00  0.00    -0.276 OA
ATOM     21  N   UNL     1      -6.880   3.173   8.164  0.00  0.00    -0.329 N 
ATOM     22  H   UNL     1      -6.013   2.740   8.143  0.00  0.00    +0.145 HD
ATOM     23  H   UNL     1      -7.298   3.381   9.015  0.00  0.00    +0.145 HD
ENDBRANCH  14  19
BRANCH  10  24
ATOM     24  C   UNL     1      -5.105   1.445   1.090  0.00  0.00    +0.326 C 
ATOM     25  O   UNL     1      -4.750   2.169   2.003  0.00  0.00    -0.251 OA
ATOM     26  N   UNL     1      -4.253   1.162   0.084  0.00  0.00    -0.292 N 
ATOM     27  H   UNL     1      -4.536   0.586  -0.643  0.00  0.00    +0.151 HD
BRANCH  26  28
ATOM     28  C   UNL     1      -2.901   1.725   0.089  0.00  0.00    +0.037 C 
ATOM     29  C   UNL     1      -2.147   1.251  -1.155  0.00  0.00    +0.029 C 
ATOM     30  C   UNL     1      -0.734   1.839  -1.150  0.00  0.00    -0.008 C 
ATOM     31  C   UNL     1       0.008   1.373   0.105  0.00  0.00    +0.007 C 
ATOM     32  C   UNL     1      -0.746   1.847   1.349  0.00  0.00    -0.008 C 
ATOM     33  C   UNL     1      -2.159   1.259   1.344  0.00  0.00    +0.029 C 
ATOM     34  C   UNL     1      -0.830   3.375   1.343  0.00  0.00    +0.007 C 
ATOM     35  C   UNL     1      -1.572   3.841   0.089  0.00  0.00    -0.008 C 
ATOM     36  C   UNL     1      -0.818   3.367  -1.155  0.00  0.00    +0.007 C 
ATOM     37  C   UNL     1      -2.984   3.253   0.084  0.00  0.00    +0.029 C 
ENDBRANCH  26  28
ENDBRANCH  10  24
TORSDOF 3
