REMARK  Name = ZINC56913594
REMARK  4 active torsions:
REMARK  status: ('A' for Active; 'I' for Inactive)
REMARK    1  A    between atoms: C_1  and  C_2
REMARK    2  A    between atoms: C_3  and  C_24
REMARK    3  A    between atoms: C_4  and  C_17
REMARK    4  A    between atoms: C_9  and  C_11
REMARK                            x       y       z     vdW  Elec       q    Type
REMARK                         _______ _______ _______ _____ _____    ______ ____
ROOT
ATOM      1  C   UNL     1      -0.723   0.594  -1.215  0.00  0.00    +0.062 C 
ATOM      2  C   UNL     1      -1.033   1.849  -1.990  0.00  0.00    +0.034 C 
ATOM      3  C   UNL     1      -0.656   3.173  -1.391  0.00  0.00    +0.148 C 
ATOM      4  C   UNL     1      -0.280   4.189  -2.475  0.00  0.00    +0.158 C 
ATOM      5  N   UNL     1      -1.238   4.053  -3.573  0.00  0.00    -0.220 N 
ATOM      6  C   UNL     1      -1.848   2.866  -3.872  0.00  0.00    +0.250 A 
ATOM      7  N   UNL     1      -2.627   3.066  -4.902  0.00  0.00    -0.187 NA
ATOM      8  C   UNL     1      -2.552   4.352  -5.281  0.00  0.00    +0.218 A 
ATOM      9  N   UNL     1      -1.710   4.990  -4.486  0.00  0.00    -0.144 NA
ATOM     10  N   UNL     1      -1.608   1.736  -3.142  0.00  0.00    -0.220 NA
ENDROOT
BRANCH   4  11
ATOM     11  C   UNL     1      -0.345   5.585  -1.911  0.00  0.00    -0.022 A 
ATOM     12  C   UNL     1      -0.158   5.791  -0.557  0.00  0.00    +0.007 A 
ATOM     13  C   UNL     1      -0.217   7.071  -0.038  0.00  0.00    +0.015 A 
ATOM     14  C   UNL     1      -0.463   8.145  -0.875  0.00  0.00    +0.018 A 
ATOM     15  C   UNL     1      -0.651   7.938  -2.229  0.00  0.00    +0.015 A 
ATOM     16  C   UNL     1      -0.586   6.658  -2.748  0.00  0.00    +0.007 A 
ATOM     17 BR   UNL     1      -0.545   9.897  -0.166  0.00  0.00    -0.050 Br
ENDBRANCH   4  11
BRANCH   8  18
ATOM     18  C   UNL     1      -3.292   4.958  -6.408  0.00  0.00    +0.173 A 
ATOM     19  C   UNL     1      -4.164   4.313  -7.228  0.00  0.00    +0.053 A 
ATOM     20  C   UNL     1      -4.632   5.267  -8.154  0.00  0.00    +0.042 A 
ATOM     21  C   UNL     1      -4.029   6.435  -7.856  0.00  0.00    +0.196 A 
ATOM     22  O   UNL     1      -3.225   6.245  -6.797  0.00  0.00    -0.460 OA
ENDBRANCH   8  18
BRANCH   3  23
ATOM     23  C   UNL     1      -1.821   3.706  -0.598  0.00  0.00    +0.221 C 
ATOM     24  O   UNL     1      -2.712   4.308  -1.159  0.00  0.00    -0.275 OA
ATOM     25  N   UNL     1      -1.873   3.514   0.735  0.00  0.00    -0.329 N 
ATOM     26  H   UNL     1      -1.161   3.032   1.184  0.00  0.00    +0.145 HD
ATOM     27  H   UNL     1      -2.624   3.857   1.246  0.00  0.00    +0.145 HD
ENDBRANCH   3  23
TORSDOF 3
