REMARK  Name = ZINC35486164
REMARK  17 active torsions:
REMARK  status: ('A' for Active; 'I' for Inactive)
REMARK    1  A    between atoms: C_1  and  C_2
REMARK    2  A    between atoms: C_2  and  N_3
REMARK    3  A    between atoms: N_3  and  C_4
REMARK    4  A    between atoms: N_3  and  C_6
REMARK    5  A    between atoms: C_4  and  C_5
REMARK    6  A    between atoms: C_6  and  C_7
REMARK    7  A    between atoms: C_7  and  N_8
REMARK    8  A    between atoms: C_9  and  C_25
REMARK    9  A    between atoms: C_16  and  C_24
REMARK   10  A    between atoms: C_28  and  O_33
REMARK   11  A    between atoms: C_29  and  O_31
REMARK   12  A    between atoms: O_31  and  C_32
REMARK   13  A    between atoms: O_33  and  C_34
REMARK   14  A    between atoms: C_34  and  C_35
REMARK   15  A    between atoms: C_35  and  C_36
REMARK   16  A    between atoms: C_36  and  C_37
REMARK   17  A    between atoms: C_36  and  C_38
REMARK                            x       y       z     vdW  Elec       q    Type
REMARK                         _______ _______ _______ _____ _____    ______ ____
ROOT
ATOM      1  N   UNL     1       1.352  -4.018  -2.683  0.00  0.00    -0.285 N 
ATOM      2  C   UNL     1       2.206  -5.017  -2.019  0.00  0.00    +0.145 C 
ATOM      3  C   UNL     1       1.678  -6.349  -2.442  0.00  0.00    +0.072 A 
ATOM      4  C   UNL     1       2.118  -7.710  -2.117  0.00  0.00    +0.199 A 
ATOM      5  O   UNL     1       2.946  -7.956  -1.258  0.00  0.00    -0.287 OA
ATOM      6  C   UNL     1       1.458  -8.758  -2.935  0.00  0.00    +0.065 A 
ATOM      7  C   UNL     1       1.908 -10.078  -2.888  0.00  0.00    +0.018 A 
ATOM      8  C   UNL     1       1.294 -11.031  -3.651  0.00  0.00    -0.050 A 
ATOM      9  C   UNL     1       0.226 -10.689  -4.470  0.00  0.00    +0.007 A 
ATOM     10  C   UNL     1      -0.232  -9.392  -4.527  0.00  0.00    +0.047 A 
ATOM     11  C   UNL     1       0.377  -8.402  -3.756  0.00  0.00    +0.139 A 
ATOM     12  O   UNL     1      -0.096  -7.136  -3.821  0.00  0.00    -0.450 OA
ATOM     13  C   UNL     1       0.613  -6.131  -3.269  0.00  0.00    +0.199 A 
ATOM     14  C   UNL     1       0.423  -4.677  -3.405  0.00  0.00    +0.283 C 
ATOM     15  O   UNL     1      -0.443  -4.148  -4.073  0.00  0.00    -0.267 OA
ATOM     16  C   UNL     1       1.777 -12.458  -3.603  0.00  0.00    +0.044 C 
ENDROOT
BRANCH   2  17
ATOM     17  C   UNL     1       3.636  -4.857  -2.466  0.00  0.00    -0.019 A 
ATOM     18  C   UNL     1       3.917  -4.571  -3.789  0.00  0.00    +0.009 A 
ATOM     19  C   UNL     1       5.228  -4.424  -4.204  0.00  0.00    +0.050 A 
ATOM     20  C   UNL     1       6.263  -4.562  -3.293  0.00  0.00    +0.162 A 
ATOM     21  C   UNL     1       5.979  -4.849  -1.962  0.00  0.00    +0.162 A 
ATOM     22  C   UNL     1       4.663  -4.991  -1.551  0.00  0.00    +0.055 A 
BRANCH  21  23
ATOM     23  O   UNL     1       6.992  -4.986  -1.064  0.00  0.00    -0.491 OA
ATOM     24  C   UNL     1       6.626  -5.281   0.286  0.00  0.00    +0.277 C 
ENDBRANCH  21  23
BRANCH  20  25
ATOM     25  O   UNL     1       7.552  -4.418  -3.700  0.00  0.00    -0.488 OA
BRANCH  25  26
ATOM     26  C   UNL     1       7.768  -4.124  -5.082  0.00  0.00    +0.229 C 
BRANCH  26  27
ATOM     27  C   UNL     1       9.269  -3.998  -5.349  0.00  0.00    +0.044 C 
BRANCH  27  28
ATOM     28  C   UNL     1       9.499  -3.684  -6.828  0.00  0.00    -0.014 C 
ATOM     29  C   UNL     1       8.914  -2.308  -7.154  0.00  0.00    +0.007 C 
ATOM     30  C   UNL     1      11.001  -3.681  -7.121  0.00  0.00    +0.007 C 
ENDBRANCH  27  28
ENDBRANCH  26  27
ENDBRANCH  25  26
ENDBRANCH  20  25
ENDBRANCH   2  17
BRANCH   1  31
ATOM     31  C   UNL     1       1.484  -2.563  -2.572  0.00  0.00    +0.090 C 
BRANCH  31  32
ATOM     32  C   UNL     1       0.646  -2.063  -1.393  0.00  0.00    -0.060 C 
BRANCH  32  33
ATOM     33  N   UNL     1       0.874  -0.624  -1.207  0.00  0.00    +0.380 N 
ATOM     34  H   UNL     1       1.863  -0.451  -1.102  0.00  0.00    -0.082 HD
BRANCH  33  36
ATOM     35  C   UNL     1       0.718   1.591  -2.240  0.00  0.00    -0.017 C 
ATOM     36  C   UNL     1       0.370   0.108  -2.377  0.00  0.00    -0.082 C 
ENDBRANCH  33  36
BRANCH  33  37
ATOM     37  C   UNL     1       0.167  -0.168  -0.002  0.00  0.00    -0.082 C 
ATOM     38  C   UNL     1       0.798  -0.812   1.234  0.00  0.00    -0.017 C 
ENDBRANCH  33  37
ENDBRANCH  32  33
ENDBRANCH  31  32
ENDBRANCH   1  31
TORSDOF 11
