REMARK  Name = ZINC09066520
REMARK  5 active torsions:
REMARK  status: ('A' for Active; 'I' for Inactive)
REMARK    1  A    between atoms: C_4  and  C_7
REMARK    2  A    between atoms: C_8  and  C_9
REMARK    3  A    between atoms: N_10  and  N_11
REMARK    4  A    between atoms: C_12  and  C_14
REMARK    5  A    between atoms: C_16  and  C_20
REMARK                            x       y       z     vdW  Elec       q    Type
REMARK                         _______ _______ _______ _____ _____    ______ ____
ROOT
ATOM      1  C   UNL     1       7.513  -6.760  -0.026  0.00  0.00    +0.122 A 
ATOM      2  C   UNL     1       7.702  -8.128   0.021  0.00  0.00    +0.062 A 
ATOM      3  C   UNL     1       9.089  -8.316  -0.135  0.00  0.00    +0.094 A 
ATOM      4  N   UNL     1       9.640  -7.127  -0.262  0.00  0.00    -0.173 NA
ATOM      5  N   UNL     1       8.748  -6.204  -0.208  0.00  0.00    -0.272 N 
ATOM      6  H   UNL     1       8.926  -5.253  -0.283  0.00  0.00    +0.189 HD
ENDROOT
BRANCH   3   7
ATOM      7  C   UNL     1       9.799  -9.617  -0.153  0.00  0.00    +0.010 A 
ATOM      8  C   UNL     1       9.329 -10.659  -0.932  0.00  0.00    +0.011 A 
ATOM      9  C   UNL     1       9.989 -11.883  -0.954  0.00  0.00    +0.001 A 
ATOM     10  C   UNL     1      11.114 -12.089  -0.214  0.00  0.00    +0.008 A 
ATOM     11  C   UNL     1      11.627 -11.057   0.590  0.00  0.00    -0.017 A 
ATOM     12  C   UNL     1      10.969  -9.803   0.620  0.00  0.00    -0.009 A 
ATOM     13  C   UNL     1      11.485  -8.773   1.419  0.00  0.00    +0.009 A 
ATOM     14  C   UNL     1      12.613  -8.987   2.151  0.00  0.00    +0.001 A 
ATOM     15  C   UNL     1      13.265 -10.218   2.118  0.00  0.00    +0.001 A 
ATOM     16  C   UNL     1      12.786 -11.245   1.363  0.00  0.00    +0.008 A 
ENDBRANCH   3   7
BRANCH   1  18
ATOM     17  N   UNL     1       6.205  -4.698   0.018  0.00  0.00    -0.202 N 
ATOM     18  C   UNL     1       6.233  -6.043   0.089  0.00  0.00    +0.281 C 
ATOM     19  O   UNL     1       5.200  -6.666   0.249  0.00  0.00    -0.267 OA
ATOM     20  H   UNL     1       7.029  -4.202  -0.110  0.00  0.00    +0.178 HD
BRANCH  17  22
ATOM     21  C   UNL     1       4.959  -2.715   0.059  0.00  0.00    +0.130 C 
ATOM     22  N   UNL     1       4.986  -4.016   0.128  0.00  0.00    -0.188 NA
BRANCH  21  24
ATOM     23  C   UNL     1       3.698  -0.678   0.099  0.00  0.00    +0.009 C 
ATOM     24  C   UNL     1       3.726  -2.025   0.170  0.00  0.00    +0.022 C 
BRANCH  23  28
ATOM     25  C   UNL     1       0.008   1.387   0.431  0.00  0.00    +0.000 A 
ATOM     26  C   UNL     1       1.181   2.099   0.249  0.00  0.00    +0.001 A 
ATOM     27  C   UNL     1       2.384   1.435   0.141  0.00  0.00    +0.008 A 
ATOM     28  C   UNL     1       2.417   0.038   0.214  0.00  0.00    -0.025 A 
ATOM     29  C   UNL     1       1.228  -0.673   0.398  0.00  0.00    +0.008 A 
ATOM     30  C   UNL     1       0.032   0.005   0.505  0.00  0.00    +0.001 A 
ENDBRANCH  23  28
ENDBRANCH  21  24
ENDBRANCH  17  22
ENDBRANCH   1  18
TORSDOF 5
