REMARK  Name = ZINC49286685
REMARK  12 active torsions:
REMARK  status: ('A' for Active; 'I' for Inactive)
REMARK    1  A    between atoms: C_1  and  C_2
REMARK    2  A    between atoms: C_2  and  C_3
REMARK    3  A    between atoms: C_3  and  C_4
REMARK    4  A    between atoms: C_3  and  N_6
REMARK    5  A    between atoms: C_4  and  C_5
REMARK    6  A    between atoms: C_7  and  C_9
REMARK    7  A    between atoms: C_9  and  O_10
REMARK    8  A    between atoms: O_10  and  C_11
REMARK    9  A    between atoms: C_12  and  C_18
REMARK   10  A    between atoms: C_18  and  C_19
REMARK   11  A    between atoms: C_19  and  C_21
REMARK   12  A    between atoms: C_19  and  N_22
REMARK                            x       y       z     vdW  Elec       q    Type
REMARK                         _______ _______ _______ _____ _____    ______ ____
ROOT
ATOM      1  C   UNL     1      -4.723   3.175   3.860  0.00  0.00    +0.138 A 
ATOM      2  C   UNL     1      -6.082   2.913   3.778  0.00  0.00    -0.006 A 
ATOM      3  C   UNL     1      -6.946   3.448   4.715  0.00  0.00    +0.007 A 
ATOM      4  C   UNL     1      -6.455   4.244   5.734  0.00  0.00    +0.002 A 
ATOM      5  C   UNL     1      -5.101   4.506   5.819  0.00  0.00    +0.019 A 
ATOM      6  C   UNL     1      -4.232   3.969   4.887  0.00  0.00    +0.060 A 
ATOM      7 BR   UNL     1      -2.378   4.322   5.009  0.00  0.00    -0.047 Br
ENDROOT
BRANCH   1   8
ATOM      8  O   UNL     1      -3.871   2.650   2.940  0.00  0.00    -0.481 OA
BRANCH   8   9
ATOM      9  C   UNL     1      -3.276   1.388   3.252  0.00  0.00    +0.324 C 
BRANCH   9  11
ATOM     10  N   UNL     1      -1.795  -0.256   2.147  0.00  0.00    -0.310 N 
ATOM     11  C   UNL     1      -2.453   0.918   2.080  0.00  0.00    +0.251 C 
ATOM     12  O   UNL     1      -2.383   1.596   1.077  0.00  0.00    -0.272 OA
ATOM     13  H   UNL     1      -1.851  -0.799   2.950  0.00  0.00    +0.149 HD
BRANCH  10  14
ATOM     14  C   UNL     1      -0.995  -0.713   1.008  0.00  0.00    +0.073 C 
BRANCH  14  16
ATOM     15  C   UNL     1       0.297   1.424   0.922  0.00  0.00    +0.006 C 
ATOM     16  C   UNL     1       0.402  -0.094   1.085  0.00  0.00    +0.019 C 
ENDBRANCH  14  16
BRANCH  14  17
ATOM     17  C   UNL     1      -0.879  -2.239   1.046  0.00  0.00    +0.019 C 
ATOM     18  C   UNL     1      -2.262  -2.860   0.844  0.00  0.00    +0.006 C 
ENDBRANCH  14  17
ENDBRANCH  10  14
ENDBRANCH   9  11
ENDBRANCH   8   9
ENDBRANCH   1   8
BRANCH   2  19
ATOM     19  C   UNL     1      -6.617   2.046   2.667  0.00  0.00    +0.022 C 
BRANCH  19  20
ATOM     20  C   UNL     1      -6.818   2.895   1.410  0.00  0.00    -0.074 C 
ATOM     21  C   UNL     1      -7.246   1.994   0.250  0.00  0.00    -0.014 C 
BRANCH  20  22
ATOM     22  N   UNL     1      -7.860   3.901   1.659  0.00  0.00    +0.380 N 
ATOM     23  H   UNL     1      -7.539   4.551   2.361  0.00  0.00    -0.090 HD
ATOM     24  H   UNL     1      -8.058   4.399   0.804  0.00  0.00    -0.090 HD
ATOM     25  H   UNL     1      -8.698   3.443   1.984  0.00  0.00    -0.090 HD
ENDBRANCH  20  22
ENDBRANCH  19  20
ENDBRANCH   2  19
TORSDOF 9
