REMARK  Name = ZINC37538272
REMARK  18 active torsions:
REMARK  status: ('A' for Active; 'I' for Inactive)
REMARK    1  A    between atoms: C_1  and  C_2
REMARK    2  A    between atoms: C_2  and  C_40
REMARK    3  A    between atoms: C_3  and  C_4
REMARK    4  A    between atoms: C_4  and  C_5
REMARK    5  A    between atoms: C_5  and  C_6
REMARK    6  A    between atoms: C_6  and  C_38
REMARK    7  A    between atoms: C_7  and  C_8
REMARK    8  A    between atoms: C_8  and  C_9
REMARK    9  A    between atoms: C_9  and  C_10
REMARK   10  A    between atoms: C_10  and  C_37
REMARK   11  A    between atoms: C_11  and  O_36
REMARK   12  A    between atoms: C_15  and  O_35
REMARK   13  A    between atoms: N_22  and  C_25
REMARK   14  A    between atoms: C_25  and  C_27
REMARK   15  A    between atoms: C_25  and  C_32
REMARK   16  A    between atoms: C_27  and  C_28
REMARK   17  A    between atoms: C_28  and  C_29
REMARK   18  A    between atoms: C_38  and  O_39
REMARK                            x       y       z     vdW  Elec       q    Type
REMARK                         _______ _______ _______ _____ _____    ______ ____
ROOT
ATOM      1  C   UNL     1      -1.587   3.849   7.725  0.00  0.00    +0.134 C 
ATOM      2  C   UNL     1      -1.553   5.380   7.632  0.00  0.00    +0.162 C 
ATOM      3  C   UNL     1      -1.407   5.943   9.048  0.00  0.00    +0.077 C 
ATOM      4  C   UNL     1      -2.405   5.282   9.964  0.00  0.00    +0.039 A 
ATOM      5  C   UNL     1      -2.705   5.892  11.178  0.00  0.00    +0.124 A 
ATOM      6  C   UNL     1      -3.612   5.317  12.050  0.00  0.00    +0.059 A 
ATOM      7  C   UNL     1      -4.232   4.114  11.710  0.00  0.00    +0.049 A 
ATOM      8  C   UNL     1      -3.927   3.508  10.491  0.00  0.00    +0.024 A 
ATOM      9  C   UNL     1      -3.019   4.089   9.620  0.00  0.00    +0.134 A 
ATOM     10  O   UNL     1      -2.763   3.467   8.439  0.00  0.00    -0.483 OA
ATOM     11  C   UNL     1      -4.749   2.245  10.424  0.00  0.00    +0.148 C 
ATOM     12  N   UNL     1      -5.520   2.191  11.671  0.00  0.00    -0.279 N 
ATOM     13  C   UNL     1      -5.220   3.271  12.412  0.00  0.00    +0.248 C 
ATOM     14  O   UNL     1      -5.693   3.519  13.504  0.00  0.00    -0.270 OA
ATOM     15  C   UNL     1      -0.347   3.349   8.469  0.00  0.00    +0.058 C 
ENDROOT
BRANCH   5  16
ATOM     16  O   UNL     1      -2.100   7.063  11.510  0.00  0.00    -0.506 OA
ATOM     17  H   UNL     1      -2.581   7.850  11.219  0.00  0.00    +0.292 HD
ENDBRANCH   5  16
BRANCH   2  18
ATOM     18  O   UNL     1      -0.441   5.790   6.833  0.00  0.00    -0.388 OA
ATOM     19  H   UNL     1      -0.361   6.748   6.733  0.00  0.00    +0.210 HD
ENDBRANCH   2  18
BRANCH   1  20
ATOM     20  C   UNL     1      -1.620   3.248   6.318  0.00  0.00    +0.054 C 
BRANCH  20  21
ATOM     21  C   UNL     1      -1.682   1.722   6.416  0.00  0.00    +0.031 C 
BRANCH  21  23
ATOM     22  C   UNL     1      -0.806   0.260   4.668  0.00  0.00    -0.048 C 
ATOM     23  C   UNL     1      -1.715   1.131   5.031  0.00  0.00    -0.025 C 
BRANCH  22  24
ATOM     24  C   UNL     1      -0.739  -0.209   3.238  0.00  0.00    +0.037 C 
BRANCH  24  25
ATOM     25  C   UNL     1       0.286   0.631   2.473  0.00  0.00    +0.031 C 
BRANCH  25  28
ATOM     26  C   UNL     1      -0.084   2.468   0.366  0.00  0.00    +0.038 C 
ATOM     27  C   UNL     1       0.122   1.005   0.066  0.00  0.00    -0.080 C 
ATOM     28  C   UNL     1       0.353   0.163   1.043  0.00  0.00    -0.028 C 
ATOM     29  C   UNL     1       0.063   0.512  -1.357  0.00  0.00    +0.038 C 
ENDBRANCH  25  28
ENDBRANCH  24  25
ENDBRANCH  22  24
BRANCH  22  30
ATOM     30  C   UNL     1       0.172  -0.274   5.683  0.00  0.00    +0.186 C 
BRANCH  30  31
ATOM     31  O   UNL     1       0.190  -1.702   5.622  0.00  0.00    -0.391 OA
ATOM     32  H   UNL     1       0.799  -2.115   6.250  0.00  0.00    +0.210 HD
ENDBRANCH  30  31
ENDBRANCH  22  30
ENDBRANCH  21  23
ENDBRANCH  20  21
ENDBRANCH   1  20
BRANCH  12  33
ATOM     33  C   UNL     1      -6.462   1.133  12.047  0.00  0.00    +0.190 C 
BRANCH  33  34
ATOM     34  C   UNL     1      -7.831   1.729  12.250  0.00  0.00    +0.376 C 
ATOM     35  O   UNL     1      -8.004   2.926  12.095  0.00  0.00    -0.244 OA
ATOM     36  O   UNL     1      -8.766   1.014  12.569  0.00  0.00    -0.244 OA
ENDBRANCH  33  34
BRANCH  33  37
ATOM     37  C   UNL     1      -5.995   0.473  13.346  0.00  0.00    +0.045 C 
BRANCH  37  38
ATOM     38  C   UNL     1      -4.662  -0.239  13.106  0.00  0.00    +0.127 C 
BRANCH  38  39
ATOM     39  C   UNL     1      -4.203  -0.889  14.385  0.00  0.00    +0.356 C 
ATOM     40  O   UNL     1      -4.879  -0.793  15.395  0.00  0.00    -0.246 OA
ATOM     41  O   UNL     1      -3.155  -1.512  14.410  0.00  0.00    -0.246 OA
ENDBRANCH  38  39
ENDBRANCH  37  38
ENDBRANCH  33  37
ENDBRANCH  12  33
TORSDOF 15
