REMARK  Name = ZINC06028931
REMARK  5 active torsions:
REMARK  status: ('A' for Active; 'I' for Inactive)
REMARK    1  A    between atoms: C_1  and  C_2
REMARK    2  A    between atoms: C_7  and  C_8
REMARK    3  A    between atoms: C_8  and  S_9
REMARK    4  A    between atoms: S_9  and  C_10
REMARK    5  A    between atoms: C_13  and  C_15
REMARK                            x       y       z     vdW  Elec       q    Type
REMARK                         _______ _______ _______ _____ _____    ______ ____
ROOT
ATOM      1  C   UNL     1      -1.513   1.192   4.568  0.00  0.00    +0.278 A 
ATOM      2  N   UNL     1      -0.386   1.545   5.138  0.00  0.00    -0.101 NA
ATOM      3  N   UNL     1      -0.636   2.165   6.237  0.00  0.00    -0.106 NA
ATOM      4  C   UNL     1      -1.935   2.234   6.413  0.00  0.00    +0.251 A 
ATOM      5  O   UNL     1      -2.517   1.623   5.357  0.00  0.00    -0.411 OA
ENDROOT
BRANCH   4   6
ATOM      6  C   UNL     1      -2.630   2.865   7.551  0.00  0.00    +0.063 A 
ATOM      7  C   UNL     1      -3.973   2.934   7.744  0.00  0.00    +0.097 A 
ATOM      8  N   UNL     1      -4.237   3.594   8.909  0.00  0.00    -0.360 N 
ATOM      9  H   UNL     1      -5.125   3.767   9.259  0.00  0.00    +0.165 HD
ATOM     10  C   UNL     1      -3.061   3.978   9.516  0.00  0.00    +0.047 A 
ATOM     11  C   UNL     1      -2.003   3.537   8.702  0.00  0.00    +0.012 A 
ATOM     12  C   UNL     1      -0.684   3.784   9.077  0.00  0.00    +0.011 A 
ATOM     13  C   UNL     1      -0.424   4.458  10.249  0.00  0.00    +0.001 A 
ATOM     14  C   UNL     1      -1.467   4.891  11.055  0.00  0.00    +0.002 A 
ATOM     15  C   UNL     1      -2.776   4.662  10.693  0.00  0.00    +0.026 A 
ENDBRANCH   4   6
BRANCH   1  16
ATOM     16  S   UNL     1      -1.684   0.321   3.046  0.00  0.00    -0.061 S 
BRANCH  16  17
ATOM     17  C   UNL     1       0.025   0.045   2.504  0.00  0.00    +0.114 C 
BRANCH  17  24
ATOM     18  C   UNL     1      -0.018   1.503   0.010  0.00  0.00    +0.044 C 
ATOM     19  C   UNL     1       0.002  -0.004   0.002  0.00  0.00    -0.046 A 
ATOM     20  C   UNL     1       0.006  -0.689  -1.199  0.00  0.00    +0.003 A 
ATOM     21  C   UNL     1       0.025  -2.071  -1.207  0.00  0.00    +0.000 A 
ATOM     22  C   UNL     1       0.040  -2.768  -0.013  0.00  0.00    +0.000 A 
ATOM     23  C   UNL     1       0.037  -2.084   1.188  0.00  0.00    +0.005 A 
ATOM     24  C   UNL     1       0.023  -0.702   1.195  0.00  0.00    -0.034 A 
ENDBRANCH  17  24
ENDBRANCH  16  17
ENDBRANCH   1  16
TORSDOF 4
