REMARK  Name = ZINC39464167
REMARK  7 active torsions:
REMARK  status: ('A' for Active; 'I' for Inactive)
REMARK    1  A    between atoms: C_1  and  C_2
REMARK    2  A    between atoms: C_2  and  O_3
REMARK    3  A    between atoms: O_3  and  C_4
REMARK    4  A    between atoms: C_9  and  C_10
REMARK    5  A    between atoms: C_15  and  O_16
REMARK    6  A    between atoms: P_21  and  C_27
REMARK    7  A    between atoms: C_27  and  C_28
REMARK                            x       y       z     vdW  Elec       q    Type
REMARK                         _______ _______ _______ _____ _____    ______ ____
ROOT
ATOM      1  C   UNL     1       0.802  -1.824   1.306  0.00  0.00    +0.129 A 
ATOM      2  C   UNL     1       0.263  -2.673   0.356  0.00  0.00    +0.050 A 
ATOM      3  C   UNL     1       0.371  -4.048   0.500  0.00  0.00    -0.038 A 
ATOM      4  C   UNL     1       1.020  -4.582   1.595  0.00  0.00    -0.023 A 
ATOM      5  C   UNL     1       1.563  -3.741   2.552  0.00  0.00    +0.017 A 
ATOM      6  C   UNL     1       1.465  -2.361   2.413  0.00  0.00    +0.028 A 
ATOM      7  C   UNL     1       1.163  -6.069   1.793  0.00  0.00    +0.129 C 
ATOM      8  C   UNL     1       0.896  -6.405   3.263  0.00  0.00    +0.194 C 
ATOM      9  O   UNL     1       1.149  -7.809   3.469  0.00  0.00    -0.314 OA
ATOM     10  P   UNL     1       0.462  -8.874   2.450  0.00  0.00    +0.289 P 
ATOM     11  O   UNL     1      -0.942  -9.126   2.845  0.00  0.00    -0.271 OA
ATOM     12  N   UNL     1       0.516  -8.162   0.959  0.00  0.00    -0.179 NA
ATOM     13  N   UNL     1       0.245  -6.809   0.926  0.00  0.00    -0.226 NA
ATOM     14  C   UNL     1       0.335  -6.332  -0.462  0.00  0.00    +0.108 C 
ATOM     15  C   UNL     1      -0.236  -4.930  -0.561  0.00  0.00    +0.052 C 
ATOM     16  H   UNL     1       0.719  -8.671   0.158  0.00  0.00    +0.151 HD
ENDROOT
BRANCH   6  17
ATOM     17  C   UNL     1       2.054  -1.464   3.437  0.00  0.00    +0.027 A 
ATOM     18  C   UNL     1       3.434  -1.427   3.623  0.00  0.00    +0.012 A 
ATOM     19  C   UNL     1       3.978  -0.590   4.577  0.00  0.00    +0.001 A 
ATOM     20  C   UNL     1       3.157   0.213   5.349  0.00  0.00    +0.004 A 
ATOM     21  C   UNL     1       1.786   0.183   5.173  0.00  0.00    +0.046 A 
ATOM     22  C   UNL     1       1.228  -0.648   4.215  0.00  0.00    +0.125 A 
BRANCH  22  23
ATOM     23  O   UNL     1      -0.119  -0.674   4.037  0.00  0.00    -0.506 OA
ATOM     24  H   UNL     1      -0.576  -1.324   4.588  0.00  0.00    +0.292 HD
ENDBRANCH  22  23
ENDBRANCH   6  17
BRANCH   1  25
ATOM     25  O   UNL     1       0.693  -0.477   1.160  0.00  0.00    -0.492 OA
BRANCH  25  27
ATOM     26  C   UNL     1      -0.019   1.526   0.010  0.00  0.00    +0.048 C 
ATOM     27  C   UNL     1       0.002  -0.004   0.002  0.00  0.00    +0.226 C 
ENDBRANCH  25  27
ENDBRANCH   1  25
BRANCH  10  28
ATOM     28  C   UNL     1       1.403 -10.435   2.441  0.00  0.00    +0.150 C 
BRANCH  28  29
ATOM     29  C   UNL     1       1.419 -11.020   3.830  0.00  0.00    -0.037 A 
ATOM     30  C   UNL     1       2.427 -10.680   4.713  0.00  0.00    +0.004 A 
ATOM     31  C   UNL     1       2.441 -11.217   5.986  0.00  0.00    +0.000 A 
ATOM     32  C   UNL     1       1.446 -12.093   6.378  0.00  0.00    +0.000 A 
ATOM     33  C   UNL     1       0.437 -12.433   5.496  0.00  0.00    +0.000 A 
ATOM     34  C   UNL     1       0.421 -11.893   4.223  0.00  0.00    +0.004 A 
ENDBRANCH  28  29
ENDBRANCH  10  28
TORSDOF 6
