REMARK  Name = ZINC39840998
REMARK  10 active torsions:
REMARK  status: ('A' for Active; 'I' for Inactive)
REMARK    1  A    between atoms: C_1  and  C_2
REMARK    2  A    between atoms: C_2  and  C_3
REMARK    3  A    between atoms: C_3  and  C_4
REMARK    4  A    between atoms: C_4  and  N_5
REMARK    5  A    between atoms: C_6  and  N_7
REMARK    6  A    between atoms: C_8  and  C_21
REMARK    7  A    between atoms: N_23  and  C_24
REMARK    8  A    between atoms: C_25  and  C_33
REMARK    9  A    between atoms: C_33  and  O_35
REMARK   10  A    between atoms: O_35  and  C_36
REMARK                            x       y       z     vdW  Elec       q    Type
REMARK                         _______ _______ _______ _____ _____    ______ ____
ROOT
ATOM      1  N   UNL     1       1.385  -2.542   2.465  0.00  0.00    -0.313 N 
ATOM      2  C   UNL     1       2.684  -2.712   2.312  0.00  0.00    +0.110 A 
ATOM      3  C   UNL     1       3.497  -3.160   3.377  0.00  0.00    +0.076 A 
ATOM      4  C   UNL     1       2.911  -3.429   4.616  0.00  0.00    +0.033 A 
ATOM      5  C   UNL     1       1.537  -3.239   4.744  0.00  0.00    +0.083 A 
ATOM      6  C   UNL     1       0.781  -2.781   3.631  0.00  0.00    +0.150 A 
ATOM      7  N   UNL     1      -0.536  -2.601   3.776  0.00  0.00    -0.211 NA
ATOM      8  C   UNL     1      -1.160  -2.832   4.925  0.00  0.00    +0.143 A 
ATOM      9  C   UNL     1      -2.553  -2.616   4.990  0.00  0.00    +0.047 A 
ATOM     10  C   UNL     1      -3.216  -2.845   6.156  0.00  0.00    +0.005 A 
ATOM     11  C   UNL     1      -2.507  -3.294   7.281  0.00  0.00    +0.018 A 
ATOM     12  C   UNL     1      -1.174  -3.496   7.205  0.00  0.00    +0.096 A 
ATOM     13  N   UNL     1      -0.498  -3.270   6.041  0.00  0.00    -0.268 N 
ATOM     14  C   UNL     1       0.836  -3.495   6.003  0.00  0.00    +0.268 A 
ATOM     15  O   UNL     1       1.436  -3.885   6.988  0.00  0.00    -0.267 OA
ENDROOT
BRANCH   3  16
ATOM     16  C   UNL     1       4.944  -3.342   3.183  0.00  0.00    +0.252 C 
ATOM     17  O   UNL     1       5.465  -3.005   2.137  0.00  0.00    -0.270 OA
ATOM     18  N   UNL     1       5.693  -3.883   4.165  0.00  0.00    -0.275 N 
ATOM     19  H   UNL     1       5.277  -4.152   4.999  0.00  0.00    +0.156 HD
BRANCH  18  20
ATOM     20  C   UNL     1       7.055  -4.054   3.982  0.00  0.00    +0.087 A 
ATOM     21  C   UNL     1       7.973  -4.594   4.871  0.00  0.00    +0.091 A 
ATOM     22  C   UNL     1       9.357  -4.663   4.434  0.00  0.00    -0.021 A 
ATOM     23  C   UNL     1       9.569  -4.181   3.191  0.00  0.00    -0.004 A 
ATOM     24  S   UNL     1       7.973  -3.664   2.631  0.00  0.00    -0.077 S 
ATOM     25  C   UNL     1      10.876  -4.113   2.463  0.00  0.00    +0.043 C 
ATOM     26  C   UNL     1      12.006  -4.325   3.480  0.00  0.00    +0.005 C 
ATOM     27  C   UNL     1      11.673  -5.545   4.344  0.00  0.00    +0.005 C 
ATOM     28  C   UNL     1      10.499  -5.223   5.270  0.00  0.00    +0.037 C 
BRANCH  21  29
ATOM     29  C   UNL     1       7.566  -5.072   6.193  0.00  0.00    +0.342 C 
ATOM     30  O   UNL     1       7.221  -6.230   6.342  0.00  0.00    -0.245 OA
BRANCH  29  31
ATOM     31  O   UNL     1       7.571  -4.230   7.247  0.00  0.00    -0.464 OA
ATOM     32  C   UNL     1       7.162  -4.764   8.507  0.00  0.00    +0.280 C 
ENDBRANCH  29  31
ENDBRANCH  21  29
ENDBRANCH  18  20
ENDBRANCH   3  16
BRANCH   2  33
ATOM     33  N   UNL     1       3.260  -2.446   1.087  0.00  0.00    -0.344 N 
ATOM     34  H   UNL     1       2.702  -2.213   0.329  0.00  0.00    +0.144 HD
ATOM     35  H   UNL     1       4.224  -2.491   0.985  0.00  0.00    +0.144 HD
ENDBRANCH   2  33
BRANCH   1  36
ATOM     36  C   UNL     1       0.586  -2.074   1.329  0.00  0.00    +0.125 C 
BRANCH  36  37
ATOM     37  C   UNL     1       0.540  -0.545   1.334  0.00  0.00    +0.021 C 
BRANCH  37  39
ATOM     38  C   UNL     1      -0.341   1.473   0.152  0.00  0.00    +0.004 C 
ATOM     39  C   UNL     1      -0.294  -0.057   0.148  0.00  0.00    -0.002 C 
ENDBRANCH  37  39
ENDBRANCH  36  37
ENDBRANCH   1  36
TORSDOF 8
