REMARK  Name = ZINC03635845
REMARK  16 active torsions:
REMARK  status: ('A' for Active; 'I' for Inactive)
REMARK    1  A    between atoms: C_1  and  C_2
REMARK    2  A    between atoms: C_2  and  O_3
REMARK    3  A    between atoms: O_3  and  C_4
REMARK    4  A    between atoms: C_4  and  C_6
REMARK    5  A    between atoms: C_7  and  C_36
REMARK    6  A    between atoms: N_8  and  C_29
REMARK    7  A    between atoms: C_12  and  O_15
REMARK    8  A    between atoms: O_15  and  C_16
REMARK    9  A    between atoms: C_16  and  C_17
REMARK   10  A    between atoms: C_17  and  C_19
REMARK   11  A    between atoms: C_17  and  O_28
REMARK   12  A    between atoms: C_19  and  N_69
REMARK   13  A    between atoms: C_20  and  C_21
REMARK   14  A    between atoms: C_20  and  N_69
REMARK   15  A    between atoms: C_21  and  C_22
REMARK   16  A    between atoms: C_32  and  C_35
REMARK                            x       y       z     vdW  Elec       q    Type
REMARK                         _______ _______ _______ _____ _____    ______ ____
ROOT
ATOM      1  C   UNL     1      -0.725   2.002 -11.039  0.00  0.00    +0.088 A 
ATOM      2  C   UNL     1       0.152   1.349 -11.856  0.00  0.00    +0.036 A 
ATOM      3  N   UNL     1       1.013   0.615 -11.110  0.00  0.00    -0.312 N 
ATOM      4  C   UNL     1       0.730   0.761  -9.764  0.00  0.00    +0.055 A 
ATOM      5  C   UNL     1      -0.366   1.632  -9.657  0.00  0.00    +0.018 A 
ATOM      6  C   UNL     1      -0.875   1.964  -8.404  0.00  0.00    +0.056 A 
ATOM      7  C   UNL     1      -0.295   1.432  -7.268  0.00  0.00    +0.121 A 
ATOM      8  C   UNL     1       0.795   0.574  -7.375  0.00  0.00    +0.048 A 
ATOM      9  C   UNL     1       1.301   0.234  -8.610  0.00  0.00    +0.030 A 
ATOM     10  C   UNL     1       0.161   1.432 -13.361  0.00  0.00    +0.065 C 
ENDROOT
BRANCH   3  11
ATOM     11  C   UNL     1       2.043  -0.180 -11.629  0.00  0.00    +0.047 A 
ATOM     12  C   UNL     1       2.011  -1.558 -11.461  0.00  0.00    +0.026 A 
ATOM     13  C   UNL     1       3.026  -2.339 -11.978  0.00  0.00    +0.005 A 
ATOM     14  C   UNL     1       4.079  -1.749 -12.653  0.00  0.00    -0.050 A 
ATOM     15  C   UNL     1       4.117  -0.377 -12.817  0.00  0.00    +0.005 A 
ATOM     16  C   UNL     1       3.102   0.410 -12.307  0.00  0.00    +0.026 A 
ATOM     17  C   UNL     1       5.187  -2.604 -13.211  0.00  0.00    +0.044 C 
ENDBRANCH   3  11
BRANCH   1  18
ATOM     18  C   UNL     1      -1.812   2.896 -11.453  0.00  0.00    +0.342 C 
ATOM     19  O   UNL     1      -1.605   4.088 -11.576  0.00  0.00    -0.245 OA
BRANCH  18  20
ATOM     20  O   UNL     1      -3.040   2.397 -11.698  0.00  0.00    -0.461 OA
BRANCH  20  22
ATOM     21  C   UNL     1      -5.382   2.593 -12.335  0.00  0.00    +0.048 C 
ATOM     22  C   UNL     1      -4.067   3.340 -12.104  0.00  0.00    +0.229 C 
ENDBRANCH  20  22
ENDBRANCH  18  20
ENDBRANCH   1  18
BRANCH   7  23
ATOM     23  O   UNL     1      -0.787   1.753  -6.042  0.00  0.00    -0.489 OA
BRANCH  23  24
ATOM     24  C   UNL     1      -0.141   1.168  -4.909  0.00  0.00    +0.258 C 
BRANCH  24  25
ATOM     25  C   UNL     1      -0.829   1.643  -3.628  0.00  0.00    +0.135 C 
BRANCH  25  26
ATOM     26  O   UNL     1      -2.170   1.148  -3.596  0.00  0.00    -0.390 OA
ATOM     27  H   UNL     1      -2.233   0.183  -3.613  0.00  0.00    +0.210 HD
ENDBRANCH  25  26
BRANCH  25  28
ATOM     28  C   UNL     1      -0.062   1.117  -2.413  0.00  0.00    -0.048 C 
BRANCH  28  29
ATOM     29  N   UNL     1      -0.732   1.579  -1.182  0.00  0.00    +0.381 N 
ATOM     30  H   UNL     1      -1.695   1.223  -1.167  0.00  0.00    -0.086 HD
ATOM     31  H   UNL     1      -0.746   2.605  -1.168  0.00  0.00    -0.086 HD
BRANCH  29  32
ATOM     32  C   UNL     1      -0.013   1.086   0.008  0.00  0.00    -0.078 C 
BRANCH  32  33
ATOM     33  C   UNL     1      -0.729   1.579   1.267  0.00  0.00    +0.016 C 
BRANCH  33  34
ATOM     34  C   UNL     1       0.000   1.080   2.488  0.00  0.00    -0.049 A 
ATOM     35  C   UNL     1      -0.347  -0.133   3.052  0.00  0.00    +0.003 A 
ATOM     36  C   UNL     1       0.325  -0.593   4.169  0.00  0.00    +0.000 A 
ATOM     37  C   UNL     1       1.337   0.164   4.728  0.00  0.00    +0.000 A 
ATOM     38  C   UNL     1       1.680   1.380   4.167  0.00  0.00    +0.000 A 
ATOM     39  C   UNL     1       1.012   1.838   3.046  0.00  0.00    +0.003 A 
ENDBRANCH  33  34
ENDBRANCH  32  33
ENDBRANCH  29  32
ENDBRANCH  28  29
ENDBRANCH  25  28
ENDBRANCH  24  25
ENDBRANCH  23  24
ENDBRANCH   7  23
TORSDOF 13
