REMARK  Name = ZINC60062242
REMARK  11 active torsions:
REMARK  status: ('A' for Active; 'I' for Inactive)
REMARK    1  A    between atoms: C_1  and  O_2
REMARK    2  A    between atoms: O_2  and  C_3
REMARK    3  A    between atoms: C_8  and  N_9
REMARK    4  A    between atoms: N_9  and  S_10
REMARK    5  A    between atoms: S_10  and  C_13
REMARK    6  A    between atoms: C_16  and  C_19
REMARK    7  A    between atoms: C_20  and  C_21
REMARK    8  A    between atoms: N_23  and  C_24
REMARK    9  A    between atoms: C_27  and  C_30
REMARK   10  A    between atoms: C_30  and  C_31
REMARK   11  A    between atoms: C_31  and  O_32
REMARK                            x       y       z     vdW  Elec       q    Type
REMARK                         _______ _______ _______ _____ _____    ______ ____
ROOT
ATOM      1  C   UNL     1       2.392  -4.300   0.987  0.00  0.00    +0.109 A 
ATOM      2  C   UNL     1       3.554  -4.392   0.241  0.00  0.00    +0.029 A 
ATOM      3  C   UNL     1       4.779  -4.183   0.838  0.00  0.00    +0.010 A 
ATOM      4  C   UNL     1       4.845  -3.877   2.201  0.00  0.00    -0.025 A 
ATOM      5  C   UNL     1       3.666  -3.786   2.948  0.00  0.00    +0.010 A 
ATOM      6  C   UNL     1       2.448  -3.993   2.335  0.00  0.00    +0.029 A 
ENDROOT
BRANCH   1   7
ATOM      7  S   UNL     1       0.831  -4.569   0.214  0.00  0.00    +0.072 S 
ATOM      8  O   UNL     1      -0.070  -4.958   1.242  0.00  0.00    -0.150 OA
ATOM      9  O   UNL     1       1.077  -5.378  -0.928  0.00  0.00    -0.150 OA
BRANCH   7  10
ATOM     10  N   UNL     1       0.304  -3.104  -0.348  0.00  0.00    -0.213 N 
ATOM     11  H   UNL     1      -0.529  -2.730  -0.022  0.00  0.00    +0.174 HD
BRANCH  10  17
ATOM     12  C   UNL     1       1.115  -1.012  -1.256  0.00  0.00    +0.142 A 
ATOM     13  C   UNL     1       1.871  -0.325  -2.192  0.00  0.00    +0.047 A 
ATOM     14  C   UNL     1       2.565  -1.020  -3.165  0.00  0.00    +0.004 A 
ATOM     15  C   UNL     1       2.507  -2.401  -3.208  0.00  0.00    +0.002 A 
ATOM     16  C   UNL     1       1.756  -3.094  -2.278  0.00  0.00    +0.028 A 
ATOM     17  C   UNL     1       1.061  -2.404  -1.295  0.00  0.00    +0.090 A 
BRANCH  12  19
ATOM     18  C   UNL     1       0.532   1.095  -0.320  0.00  0.00    +0.277 C 
ATOM     19  O   UNL     1       0.431  -0.330  -0.298  0.00  0.00    -0.493 OA
ENDBRANCH  12  19
ENDBRANCH  10  17
ENDBRANCH   7  10
ENDBRANCH   1   7
BRANCH   4  20
ATOM     20  C   UNL     1       6.149  -3.653   2.847  0.00  0.00    +0.013 C 
ATOM     21  C   UNL     1       6.208  -3.358   4.161  0.00  0.00    +0.068 C 
BRANCH  21  22
ATOM     22  C   UNL     1       7.505  -3.135   4.803  0.00  0.00    +0.241 C 
ATOM     23  O   UNL     1       8.529  -3.216   4.151  0.00  0.00    -0.270 OA
ATOM     24  N   UNL     1       7.564  -2.841   6.117  0.00  0.00    -0.282 N 
ATOM     25  H   UNL     1       6.756  -2.851   6.654  0.00  0.00    +0.155 HD
BRANCH  24  26
ATOM     26  C   UNL     1       8.791  -2.520   6.707  0.00  0.00    +0.034 A 
ATOM     27  C   UNL     1       9.046  -2.882   8.024  0.00  0.00    +0.023 A 
ATOM     28  C   UNL     1      10.258  -2.564   8.603  0.00  0.00    +0.005 A 
ATOM     29  C   UNL     1      11.218  -1.886   7.874  0.00  0.00    -0.045 A 
ATOM     30  C   UNL     1      10.968  -1.525   6.563  0.00  0.00    +0.005 A 
ATOM     31  C   UNL     1       9.759  -1.845   5.976  0.00  0.00    +0.023 A 
BRANCH  29  32
ATOM     32  C   UNL     1      12.540  -1.540   8.510  0.00  0.00    +0.063 C 
BRANCH  32  33
ATOM     33  C   UNL     1      13.533  -2.681   8.275  0.00  0.00    +0.160 C 
BRANCH  33  34
ATOM     34  O   UNL     1      14.786  -2.353   8.878  0.00  0.00    -0.395 OA
ATOM     35  H   UNL     1      15.465  -3.033   8.768  0.00  0.00    +0.209 HD
ENDBRANCH  33  34
ENDBRANCH  32  33
ENDBRANCH  29  32
ENDBRANCH  24  26
ENDBRANCH  21  22
ENDBRANCH   4  20
TORSDOF 10
