REMARK  Name = ZINC09550152
REMARK  4 active torsions:
REMARK  status: ('A' for Active; 'I' for Inactive)
REMARK    1  A    between atoms: C_1  and  C_2
REMARK    2  A    between atoms: C_11  and  C_12
REMARK    3  A    between atoms: C_11  and  N_45
REMARK    4  A    between atoms: N_17  and  C_18
REMARK                            x       y       z     vdW  Elec       q    Type
REMARK                         _______ _______ _______ _____ _____    ______ ____
ROOT
ATOM      1  C   UNL     1      -0.739   1.588  -1.213  0.00  0.00    +0.204 C 
ATOM      2  O   UNL     1      -1.738   2.264  -1.088  0.00  0.00    -0.277 OA
ATOM      3  N   UNL     1      -0.285   1.277  -2.443  0.00  0.00    -0.241 N 
ATOM      4  C   UNL     1      -0.941   1.717  -3.535  0.00  0.00    +0.310 C 
ATOM      5  O   UNL     1      -1.943   2.394  -3.410  0.00  0.00    -0.252 OA
ATOM      6  N   UNL     1      -0.487   1.406  -4.765  0.00  0.00    -0.269 N 
ATOM      7  H   UNL     1       0.514   0.736  -2.543  0.00  0.00    +0.159 HD
ATOM      8  H   UNL     1       0.348   0.923  -4.866  0.00  0.00    +0.156 HD
ENDROOT
BRANCH   6   9
ATOM      9  C   UNL     1      -1.221   1.781  -5.898  0.00  0.00    +0.038 A 
ATOM     10  C   UNL     1      -1.244   0.956  -7.015  0.00  0.00    +0.027 A 
ATOM     11  C   UNL     1      -1.971   1.321  -8.131  0.00  0.00    +0.051 A 
ATOM     12  C   UNL     1      -2.671   2.517  -8.144  0.00  0.00    +0.166 A 
ATOM     13  C   UNL     1      -2.646   3.349  -7.027  0.00  0.00    +0.168 A 
ATOM     14  C   UNL     1      -1.921   2.979  -5.907  0.00  0.00    +0.073 A 
ATOM     15  O   UNL     1      -3.406   4.453  -7.288  0.00  0.00    -0.453 OA
ATOM     16  C   UNL     1      -4.226   4.097  -8.417  0.00  0.00    +0.466 C 
ATOM     17  O   UNL     1      -3.447   3.100  -9.105  0.00  0.00    -0.453 OA
ENDBRANCH   6   9
BRANCH   1  18
ATOM     18  C   UNL     1      -0.005   1.096   0.008  0.00  0.00    +0.020 C 
BRANCH  18  28
ATOM     19  C   UNL     1       1.436   2.124   2.291  0.00  0.00    -0.008 C 
ATOM     20  C   UNL     1       0.127   1.341   2.413  0.00  0.00    -0.039 C 
ATOM     21  C   UNL     1      -0.648   1.826   3.635  0.00  0.00    -0.051 A 
ATOM     22  C   UNL     1      -0.059   2.112   4.864  0.00  0.00    +0.010 A 
ATOM     23  C   UNL     1      -0.823   2.540   5.897  0.00  0.00    +0.045 A 
ATOM     24  S   UNL     1      -2.454   2.560   5.166  0.00  0.00    -0.101 S 
ATOM     25  C   UNL     1      -1.997   1.999   3.550  0.00  0.00    -0.010 A 
ATOM     26  C   UNL     1      -2.854   1.759   2.350  0.00  0.00    +0.024 C 
ATOM     27  C   UNL     1      -2.025   0.952   1.337  0.00  0.00    -0.072 C 
ATOM     28  N   UNL     1      -0.698   1.601   1.209  0.00  0.00    +0.390 N 
ATOM     29  H   UNL     1      -0.834   2.615   1.114  0.00  0.00    -0.080 HD
ENDBRANCH  18  28
ENDBRANCH   1  18
TORSDOF 3
