REMARK  Name = ZINC06567124
REMARK  5 active torsions:
REMARK  status: ('A' for Active; 'I' for Inactive)
REMARK    1  A    between atoms: C_1  and  C_2
REMARK    2  A    between atoms: C_5  and  N_8
REMARK    3  A    between atoms: C_12  and  S_14
REMARK    4  A    between atoms: S_14  and  C_15
REMARK    5  A    between atoms: C_15  and  C_16
REMARK                            x       y       z     vdW  Elec       q    Type
REMARK                         _______ _______ _______ _____ _____    ______ ____
ROOT
ATOM      1  N   UNL     1       0.057  -4.168  -0.021  0.00  0.00    -0.292 N 
ATOM      2  C   UNL     1       0.177  -4.868   1.174  0.00  0.00    +0.187 A 
ATOM      3  N   UNL     1       0.191  -4.413   2.412  0.00  0.00    -0.125 NA
ATOM      4  N   UNL     1       0.321  -5.291   3.463  0.00  0.00    -0.133 NA
ATOM      5  C   UNL     1       0.431  -6.584   3.228  0.00  0.00    +0.160 A 
ATOM      6  S   UNL     1       0.347  -6.626   1.444  0.00  0.00    -0.024 S 
ATOM      7  H   UNL     1      -0.021  -4.649  -0.859  0.00  0.00    +0.154 HD
ENDROOT
BRANCH   1  12
ATOM      8  C   UNL     1       0.029   1.503   0.005  0.00  0.00    +0.044 C 
ATOM      9  C   UNL     1       0.036  -0.004  -0.002  0.00  0.00    -0.050 A 
ATOM     10  C   UNL     1       0.647  -0.695   1.028  0.00  0.00    +0.005 A 
ATOM     11  C   UNL     1       0.656  -2.076   1.025  0.00  0.00    +0.023 A 
ATOM     12  C   UNL     1       0.050  -2.771  -0.014  0.00  0.00    +0.033 A 
ATOM     13  C   UNL     1      -0.564  -2.073  -1.047  0.00  0.00    +0.023 A 
ATOM     14  C   UNL     1      -0.573  -0.692  -1.035  0.00  0.00    +0.005 A 
ENDBRANCH   1  12
BRANCH   5  15
ATOM     15  S   UNL     1       0.607  -7.915   4.369  0.00  0.00    -0.089 S 
BRANCH  15  16
ATOM     16  C   UNL     1       0.604  -7.106   5.992  0.00  0.00    +0.150 C 
BRANCH  16  17
ATOM     17  C   UNL     1       0.750  -8.146   7.072  0.00  0.00    +0.121 A 
ATOM     18  N   UNL     1       0.764  -7.733   8.367  0.00  0.00    -0.310 N 
ATOM     19  H   UNL     1       0.681  -6.788   8.571  0.00  0.00    +0.170 HD
ATOM     20  C   UNL     1       0.893  -8.628   9.374  0.00  0.00    +0.259 A 
ATOM     21  O   UNL     1       0.906  -8.272  10.538  0.00  0.00    -0.267 OA
ATOM     22  C   UNL     1       1.016 -10.047   9.008  0.00  0.00    +0.065 A 
ATOM     23  C   UNL     1       1.153 -11.047   9.968  0.00  0.00    +0.015 A 
ATOM     24  C   UNL     1       1.265 -12.361   9.569  0.00  0.00    +0.001 A 
ATOM     25  C   UNL     1       1.242 -12.693   8.220  0.00  0.00    +0.002 A 
ATOM     26  C   UNL     1       1.107 -11.720   7.256  0.00  0.00    +0.028 A 
ATOM     27  C   UNL     1       0.992 -10.382   7.636  0.00  0.00    +0.078 A 
ATOM     28  N   UNL     1       0.852  -9.391   6.719  0.00  0.00    -0.233 NA
ENDBRANCH  16  17
ENDBRANCH  15  16
ENDBRANCH   5  15
TORSDOF 4
