REMARK  Name = ZINC14162971
REMARK  10 active torsions:
REMARK  status: ('A' for Active; 'I' for Inactive)
REMARK    1  A    between atoms: C_1  and  C_2
REMARK    2  A    between atoms: C_5  and  S_8
REMARK    3  A    between atoms: S_8  and  N_11
REMARK    4  A    between atoms: C_17  and  C_18
REMARK    5  A    between atoms: C_17  and  N_63
REMARK    6  A    between atoms: N_20  and  C_21
REMARK    7  A    between atoms: C_21  and  C_23
REMARK    8  A    between atoms: C_21  and  C_24
REMARK    9  A    between atoms: C_27  and  S_30
REMARK   10  A    between atoms: S_30  and  N_33
REMARK                            x       y       z     vdW  Elec       q    Type
REMARK                         _______ _______ _______ _____ _____    ______ ____
ROOT
ATOM      1  C   UNL     1      -5.001   6.386   5.322  0.00  0.00    +0.019 C 
ENDROOT
BRANCH   1   8
ATOM      2  N   UNL     1      -8.677   7.411   6.997  0.00  0.00    -0.178 NA
ATOM      3  C   UNL     1      -8.208   6.999   8.302  0.00  0.00    +0.107 C 
ATOM      4  C   UNL     1      -6.705   7.346   8.446  0.00  0.00    -0.001 C 
ATOM      5  C   UNL     1      -5.906   6.477   7.560  0.00  0.00    -0.077 C 
ATOM      6  C   UNL     1      -7.286   5.765   5.739  0.00  0.00    -0.061 C 
ATOM      7  C   UNL     1      -8.618   6.535   5.809  0.00  0.00    +0.091 C 
ATOM      8  N   UNL     1      -6.207   6.659   6.133  0.00  0.00    +0.386 N 
ATOM      9  H   UNL     1      -6.503   7.630   5.975  0.00  0.00    -0.081 HD
BRANCH   2  10
ATOM     10  S   UNL     1      -9.307   8.934   6.827  0.00  0.00    +0.061 S 
ATOM     11  O   UNL     1     -10.164   8.894   5.694  0.00  0.00    -0.153 OA
ATOM     12  O   UNL     1      -9.761   9.331   8.113  0.00  0.00    -0.153 OA
BRANCH  10  17
ATOM     13  C   UNL     1      -4.737  12.606   5.401  0.00  0.00    +0.044 C 
ATOM     14  C   UNL     1      -5.878  11.689   5.757  0.00  0.00    -0.050 A 
ATOM     15  C   UNL     1      -6.595  11.058   4.758  0.00  0.00    +0.005 A 
ATOM     16  C   UNL     1      -7.642  10.216   5.084  0.00  0.00    +0.029 A 
ATOM     17  C   UNL     1      -7.972  10.006   6.410  0.00  0.00    +0.105 A 
ATOM     18  C   UNL     1      -7.258  10.641   7.409  0.00  0.00    +0.029 A 
ATOM     19  C   UNL     1      -6.208  11.479   7.082  0.00  0.00    +0.005 A 
ENDBRANCH  10  17
ENDBRANCH   2  10
ENDBRANCH   1   8
BRANCH   1  20
ATOM     20  C   UNL     1      -4.600   4.939   5.448  0.00  0.00    +0.197 C 
ATOM     21  O   UNL     1      -5.248   4.189   6.146  0.00  0.00    -0.278 OA
ATOM     22  N   UNL     1      -3.521   4.479   4.784  0.00  0.00    -0.310 N 
ATOM     23  H   UNL     1      -3.003   5.079   4.225  0.00  0.00    +0.149 HD
BRANCH  22  24
ATOM     24  C   UNL     1      -3.131   3.072   4.906  0.00  0.00    +0.100 C 
ATOM     25  C   UNL     1      -2.260   2.890   6.150  0.00  0.00    +0.033 C 
BRANCH  24  26
ATOM     26  C   UNL     1      -2.353   2.659   3.683  0.00  0.00    -0.027 A 
ATOM     27  C   UNL     1      -2.559   1.412   3.121  0.00  0.00    +0.007 A 
ATOM     28  C   UNL     1      -1.846   1.033   2.000  0.00  0.00    +0.029 A 
ATOM     29  C   UNL     1      -0.927   1.900   1.439  0.00  0.00    +0.105 A 
ATOM     30  C   UNL     1      -0.717   3.145   2.004  0.00  0.00    +0.029 A 
ATOM     31  C   UNL     1      -1.434   3.526   3.123  0.00  0.00    +0.007 A 
BRANCH  29  32
ATOM     32  S   UNL     1      -0.017   1.417   0.010  0.00  0.00    +0.056 S 
ATOM     33  O   UNL     1       0.002  -0.004   0.002  0.00  0.00    -0.153 OA
ATOM     34  O   UNL     1       1.172   2.195   0.003  0.00  0.00    -0.153 OA
BRANCH  32  35
ATOM     35  N   UNL     1      -0.897   1.885  -1.312  0.00  0.00    -0.204 NA
ATOM     36  H   UNL     1      -1.201   1.223  -1.952  0.00  0.00    +0.144 HD
ATOM     37  H   UNL     1      -1.110   2.822  -1.446  0.00  0.00    +0.144 HD
ENDBRANCH  32  35
ENDBRANCH  29  32
ENDBRANCH  24  26
ENDBRANCH  22  24
ENDBRANCH   1  20
TORSDOF 8
