REMARK  Name = ZINC12531658
REMARK  6 active torsions:
REMARK  status: ('A' for Active; 'I' for Inactive)
REMARK    1  A    between atoms: C_1  and  C_2
REMARK    2  A    between atoms: C_2  and  C_4
REMARK    3  A    between atoms: C_2  and  N_36
REMARK    4  A    between atoms: C_11  and  C_12
REMARK    5  A    between atoms: C_11  and  N_36
REMARK    6  A    between atoms: C_17  and  C_18
REMARK                            x       y       z     vdW  Elec       q    Type
REMARK                         _______ _______ _______ _____ _____    ______ ____
ROOT
ATOM      1  C   UNL     1      -4.703   1.860   1.081  0.00  0.00    -0.042 C 
ENDROOT
BRANCH   1   2
ATOM      2  C   UNL     1      -5.794   2.780   1.565  0.00  0.00    -0.019 A 
ATOM      3  C   UNL     1      -6.000   3.166   2.842  0.00  0.00    +0.107 A 
ATOM      4  N   UNL     1      -7.072   3.988   2.863  0.00  0.00    -0.284 N 
ATOM      5  H   UNL     1      -7.458   4.427   3.674  0.00  0.00    +0.188 HD
ATOM      6  N   UNL     1      -7.548   4.117   1.552  0.00  0.00    -0.173 NA
ATOM      7  C   UNL     1      -6.777   3.396   0.763  0.00  0.00    +0.100 A 
BRANCH   7   8
ATOM      8  C   UNL     1      -6.921   3.254  -0.702  0.00  0.00    +0.039 A 
ATOM      9  C   UNL     1      -8.062   3.217  -1.457  0.00  0.00    +0.018 A 
ATOM     10  C   UNL     1      -7.947   3.079  -2.824  0.00  0.00    +0.008 A 
ATOM     11  C   UNL     1      -6.712   2.974  -3.377  0.00  0.00    +0.046 A 
ATOM     12  S   UNL     1      -5.651   3.077  -1.945  0.00  0.00    -0.095 S 
ENDBRANCH   7   8
ENDBRANCH   1   2
BRANCH   1  13
ATOM     13  N   UNL     1      -3.610   2.667   0.507  0.00  0.00    +0.386 N 
ATOM     14  H   UNL     1      -3.973   3.220  -0.278  0.00  0.00    -0.085 HD
ATOM     15  H   UNL     1      -3.240   3.298   1.227  0.00  0.00    -0.085 HD
BRANCH  13  17
ATOM     16  C   UNL     1      -2.842   1.323  -1.398  0.00  0.00    -0.009 C 
ATOM     17  C   UNL     1      -2.525   1.791   0.024  0.00  0.00    -0.043 C 
BRANCH  17  18
ATOM     18  C   UNL     1      -1.230   2.562   0.022  0.00  0.00    -0.048 A 
ATOM     19  C   UNL     1      -1.249   3.944   0.034  0.00  0.00    +0.003 A 
ATOM     20  C   UNL     1      -0.061   4.652   0.026  0.00  0.00    +0.000 A 
ATOM     21  C   UNL     1       1.146   3.977   0.012  0.00  0.00    +0.001 A 
ATOM     22  C   UNL     1       1.165   2.595   0.005  0.00  0.00    +0.015 A 
ATOM     23  C   UNL     1      -0.024   1.887   0.012  0.00  0.00    +0.019 A 
ATOM     24 BR   UNL     1       0.002  -0.004   0.002  0.00  0.00    -0.050 Br
ENDBRANCH  17  18
ENDBRANCH  13  17
ENDBRANCH   1  13
TORSDOF 5
