REMARK  Name = ZINC45571781
REMARK  8 active torsions:
REMARK  status: ('A' for Active; 'I' for Inactive)
REMARK    1  A    between atoms: C_1  and  C_2
REMARK    2  A    between atoms: C_2  and  C_3
REMARK    3  A    between atoms: N_15  and  C_16
REMARK    4  A    between atoms: C_16  and  C_17
REMARK    5  A    between atoms: C_21  and  N_23
REMARK    6  A    between atoms: C_24  and  C_26
REMARK    7  A    between atoms: C_26  and  C_27
REMARK    8  A    between atoms: C_26  and  C_28
REMARK                            x       y       z     vdW  Elec       q    Type
REMARK                         _______ _______ _______ _____ _____    ______ ____
ROOT
ATOM      1  C   UNL     1      -1.296  -0.875  -2.763  0.00  0.00    +0.108 C 
ATOM      2  C   UNL     1      -2.097  -0.954  -1.464  0.00  0.00    -0.017 A 
ATOM      3  C   UNL     1      -3.438  -1.331  -1.416  0.00  0.00    +0.013 A 
ATOM      4  C   UNL     1      -4.084  -1.383  -0.228  0.00  0.00    +0.046 A 
ATOM      5  S   UNL     1      -2.800  -0.888   0.911  0.00  0.00    -0.101 S 
ATOM      6  C   UNL     1      -1.505  -0.648  -0.278  0.00  0.00    -0.004 A 
ATOM      7  C   UNL     1      -0.097  -0.210  -0.040  0.00  0.00    +0.062 C 
ATOM      8  C   UNL     1       0.737  -0.531  -1.290  0.00  0.00    +0.115 C 
ATOM      9  N   UNL     1      -0.047  -0.157  -2.478  0.00  0.00    -0.278 N 
ATOM     10  C   UNL     1       0.375   0.831  -3.292  0.00  0.00    +0.303 C 
ATOM     11  O   UNL     1       1.358   1.483  -2.998  0.00  0.00    -0.253 OA
ATOM     12  N   UNL     1      -0.293   1.095  -4.432  0.00  0.00    -0.295 N 
ATOM     13  H   UNL     1      -1.118   0.625  -4.632  0.00  0.00    +0.151 HD
ENDROOT
BRANCH   1  15
ATOM     14  C   UNL     1      -0.271  -2.200  -4.616  0.00  0.00    +0.006 C 
ATOM     15  C   UNL     1      -0.981  -2.286  -3.263  0.00  0.00    +0.024 C 
ENDBRANCH   1  15
BRANCH  12  16
ATOM     16  C   UNL     1       0.225   2.094  -5.370  0.00  0.00    +0.141 C 
BRANCH  16  17
ATOM     17  C   UNL     1      -0.701   2.199  -6.555  0.00  0.00    -0.029 A 
ATOM     18  C   UNL     1      -0.505   1.390  -7.659  0.00  0.00    +0.005 A 
ATOM     19  C   UNL     1      -1.353   1.483  -8.747  0.00  0.00    +0.002 A 
ATOM     20  C   UNL     1      -2.398   2.386  -8.735  0.00  0.00    +0.023 A 
ATOM     21  C   UNL     1      -2.597   3.200  -7.628  0.00  0.00    +0.034 A 
ATOM     22  C   UNL     1      -1.747   3.100  -6.534  0.00  0.00    +0.028 A 
BRANCH  21  23
ATOM     23  N   UNL     1      -3.655   4.116  -7.612  0.00  0.00    -0.285 N 
ATOM     24  C   UNL     1      -4.824   3.806  -8.207  0.00  0.00    +0.220 C 
ATOM     25  O   UNL     1      -4.932   2.770  -8.828  0.00  0.00    -0.275 OA
ATOM     26  H   UNL     1      -3.547   4.974  -7.172  0.00  0.00    +0.155 HD
BRANCH  24  27
ATOM     27  C   UNL     1      -5.997   4.747  -8.101  0.00  0.00    +0.069 C 
ATOM     28  C   UNL     1      -5.621   6.100  -8.707  0.00  0.00    +0.017 C 
ATOM     29  C   UNL     1      -7.190   4.162  -8.860  0.00  0.00    +0.017 C 
ENDBRANCH  24  27
ENDBRANCH  21  23
ENDBRANCH  16  17
ENDBRANCH  12  16
TORSDOF 5
