REMARK  Name = ZINC25180562
REMARK  8 active torsions:
REMARK  status: ('A' for Active; 'I' for Inactive)
REMARK    1  A    between atoms: C_1  and  C_2
REMARK    2  A    between atoms: C_5  and  C_8
REMARK    3  A    between atoms: C_8  and  N_28
REMARK    4  A    between atoms: N_15  and  C_18
REMARK    5  A    between atoms: C_23  and  C_24
REMARK    6  A    between atoms: N_28  and  C_29
REMARK    7  A    between atoms: C_29  and  C_30
REMARK    8  A    between atoms: C_30  and  C_31
REMARK                            x       y       z     vdW  Elec       q    Type
REMARK                         _______ _______ _______ _____ _____    ______ ____
ROOT
ATOM      1  C   UNL     1       0.058  -4.248  -0.020  0.00  0.00    +0.052 C 
ATOM      2  C   UNL     1       0.051  -4.944   1.192  0.00  0.00    +0.121 C 
ATOM      3  C   UNL     1       0.058  -6.414   1.232  0.00  0.00    +0.258 C 
ATOM      4  O   UNL     1       0.071  -7.066   0.205  0.00  0.00    -0.269 OA
ATOM      5  N   UNL     1       0.051  -7.019   2.437  0.00  0.00    -0.235 N 
ATOM      6  C   UNL     1       0.037  -6.312   3.576  0.00  0.00    +0.320 C 
ATOM      7  O   UNL     1       0.031  -6.917   4.630  0.00  0.00    -0.251 OA
ATOM      8  N   UNL     1       0.030  -4.972   3.612  0.00  0.00    -0.189 N 
ATOM      9  C   UNL     1       0.042  -4.237   2.481  0.00  0.00    +0.265 C 
ATOM     10  O   UNL     1       0.041  -3.021   2.527  0.00  0.00    -0.269 OA
ATOM     11  H   UNL     1       0.055  -7.988   2.481  0.00  0.00    +0.159 HD
ENDROOT
BRANCH   1  16
ATOM     12  C   UNL     1      -0.574   1.468  -0.057  0.00  0.00    +0.044 C 
ATOM     13  C   UNL     1      -0.408  -0.030  -0.047  0.00  0.00    -0.050 A 
ATOM     14  C   UNL     1      -1.401  -0.829   0.493  0.00  0.00    +0.004 A 
ATOM     15  C   UNL     1      -1.256  -2.200   0.505  0.00  0.00    +0.010 A 
ATOM     16  C   UNL     1      -0.104  -2.783  -0.030  0.00  0.00    -0.003 A 
ATOM     17  C   UNL     1       0.894  -1.969  -0.574  0.00  0.00    +0.010 A 
ATOM     18  C   UNL     1       0.733  -0.600  -0.584  0.00  0.00    +0.004 A 
ENDBRANCH   1  16
BRANCH   8  19
ATOM     19  C   UNL     1       0.016  -4.320   4.853  0.00  0.00    +0.057 A 
ATOM     20  C   UNL     1       1.210  -3.986   5.476  0.00  0.00    +0.024 A 
ATOM     21  C   UNL     1       1.193  -3.343   6.699  0.00  0.00    +0.002 A 
ATOM     22  C   UNL     1      -0.012  -3.033   7.301  0.00  0.00    +0.001 A 
ATOM     23  C   UNL     1      -1.203  -3.365   6.683  0.00  0.00    +0.014 A 
ATOM     24  C   UNL     1      -1.193  -4.003   5.458  0.00  0.00    +0.077 A 
BRANCH  24  25
ATOM     25  C   UNL     1      -2.491  -4.359   4.782  0.00  0.00    +0.419 C 
ATOM     26  F   UNL     1      -3.562  -3.941   5.579  0.00  0.00    -0.166 F 
ATOM     27  F   UNL     1      -2.559  -3.723   3.538  0.00  0.00    -0.166 F 
ATOM     28  F   UNL     1      -2.558  -5.745   4.601  0.00  0.00    -0.166 F 
ENDBRANCH  24  25
ENDBRANCH   8  19
BRANCH   1  29
ATOM     29  N   UNL     1       0.215  -4.925  -1.194  0.00  0.00    -0.342 N 
ATOM     30  H   UNL     1       0.986  -5.500  -1.323  0.00  0.00    +0.146 HD
BRANCH  29  31
ATOM     31  C   UNL     1      -0.779  -4.782  -2.260  0.00  0.00    +0.107 C 
BRANCH  31  32
ATOM     32  C   UNL     1      -0.308  -5.542  -3.502  0.00  0.00    +0.073 C 
BRANCH  32  33
ATOM     33  C   UNL     1      -1.331  -5.395  -4.599  0.00  0.00    +0.037 A 
ATOM     34  C   UNL     1      -2.435  -6.147  -4.772  0.00  0.00    +0.133 A 
ATOM     35  N   UNL     1      -3.078  -5.696  -5.860  0.00  0.00    -0.244 NA
ATOM     36  C   UNL     1      -2.413  -4.693  -6.367  0.00  0.00    +0.196 A 
ATOM     37  N   UNL     1      -1.320  -4.469  -5.607  0.00  0.00    -0.348 N 
ATOM     38  H   UNL     1      -0.650  -3.782  -5.750  0.00  0.00    +0.166 HD
ENDBRANCH  32  33
ENDBRANCH  31  32
ENDBRANCH  29  31
ENDBRANCH   1  29
TORSDOF 7
