REMARK  Name = ZINC24023306
REMARK  8 active torsions:
REMARK  status: ('A' for Active; 'I' for Inactive)
REMARK    1  A    between atoms: C_1  and  C_2
REMARK    2  A    between atoms: C_3  and  N_11
REMARK    3  A    between atoms: C_7  and  N_8
REMARK    4  A    between atoms: C_12  and  C_14
REMARK    5  A    between atoms: C_14  and  C_16
REMARK    6  A    between atoms: C_14  and  S_17
REMARK    7  A    between atoms: S_17  and  C_18
REMARK    8  A    between atoms: N_22  and  C_23
REMARK                            x       y       z     vdW  Elec       q    Type
REMARK                         _______ _______ _______ _____ _____    ______ ____
ROOT
ATOM      1  C   UNL     1       1.857   7.487  -2.401  0.00  0.00    +0.137 C 
ATOM      2  C   UNL     1       1.940   8.673  -1.439  0.00  0.00    +0.029 C 
ENDROOT
BRANCH   1   4
ATOM      3  N   UNL     1       2.514   8.411  -4.600  0.00  0.00    -0.284 N 
ATOM      4  C   UNL     1       1.528   7.985  -3.785  0.00  0.00    +0.230 C 
ATOM      5  O   UNL     1       0.377   8.002  -4.166  0.00  0.00    -0.274 OA
ATOM      6  H   UNL     1       3.546   8.475  -4.227  0.00  0.00    +0.155 HD
BRANCH   3   9
ATOM      7  C   UNL     1       4.361  10.084  -5.974  0.00  0.00    +0.048 C 
ATOM      8  C   UNL     1       3.097   9.587  -6.628  0.00  0.00    +0.001 A 
ATOM      9  C   UNL     1       2.223   8.772  -5.920  0.00  0.00    +0.039 A 
ATOM     10  C   UNL     1       1.056   8.321  -6.524  0.00  0.00    +0.024 A 
ATOM     11  C   UNL     1       0.772   8.680  -7.827  0.00  0.00    +0.004 A 
ATOM     12  C   UNL     1       1.647   9.486  -8.530  0.00  0.00    +0.033 A 
ATOM     13  C   UNL     1       2.809   9.937  -7.932  0.00  0.00    +0.131 A 
BRANCH  13  14
ATOM     14  N   UNL     1       3.744  10.800  -8.689  0.00  0.00    +0.057 N 
ATOM     15  O   UNL     1       3.428  11.225  -9.786  0.00  0.00    -0.126 OA
ATOM     16  O   UNL     1       4.829  11.085  -8.215  0.00  0.00    -0.126 OA
ENDBRANCH  13  14
ENDBRANCH   3   9
ENDBRANCH   1   4
BRANCH   1  17
ATOM     17  S   UNL     1       0.564   6.348  -1.847  0.00  0.00    -0.073 S 
BRANCH  17  18
ATOM     18  C   UNL     1       1.259   5.818  -0.317  0.00  0.00    +0.197 A 
ATOM     19  N   UNL     1       2.405   6.203   0.196  0.00  0.00    -0.122 NA
ATOM     20  N   UNL     1       2.602   5.613   1.320  0.00  0.00    -0.137 NA
ATOM     21  C   UNL     1       1.601   4.825   1.595  0.00  0.00    +0.230 A 
ATOM     22  N   UNL     1       0.706   4.929   0.564  0.00  0.00    -0.277 N 
BRANCH  22  23
ATOM     23  C   UNL     1      -0.520   4.260   0.435  0.00  0.00    +0.051 A 
ATOM     24  C   UNL     1      -0.583   2.884   0.610  0.00  0.00    +0.026 A 
ATOM     25  C   UNL     1      -1.791   2.227   0.482  0.00  0.00    +0.003 A 
ATOM     26  C   UNL     1      -2.937   2.937   0.174  0.00  0.00    +0.020 A 
ATOM     27  C   UNL     1      -2.879   4.309   0.004  0.00  0.00    +0.043 A 
ATOM     28  C   UNL     1      -1.672   4.971   0.131  0.00  0.00    +0.046 A 
ATOM     29 CL   UNL     1      -4.321   5.197  -0.377  0.00  0.00    -0.083 Cl
ENDBRANCH  22  23
ENDBRANCH  17  18
ENDBRANCH   1  17
TORSDOF 6
