REMARK  Name = ZINC14465892
REMARK  3 active torsions:
REMARK  status: ('A' for Active; 'I' for Inactive)
REMARK    1  A    between atoms: C_5  and  C_7
REMARK    2  A    between atoms: C_18  and  S_23
REMARK    3  A    between atoms: S_23  and  N_26
REMARK                            x       y       z     vdW  Elec       q    Type
REMARK                         _______ _______ _______ _____ _____    ______ ____
ROOT
ATOM      1  C   UNL     1      -6.357  -2.839   1.234  0.00  0.00    +0.106 C 
ATOM      2  C   UNL     1      -6.298  -1.707   2.244  0.00  0.00    +0.029 C 
ATOM      3  C   UNL     1      -6.663  -2.044   3.696  0.00  0.00    +0.033 C 
ATOM      4  C   UNL     1      -5.821  -1.027   4.469  0.00  0.00    -0.030 C 
ATOM      5  C   UNL     1      -4.763  -0.675   3.750  0.00  0.00    -0.023 C 
ATOM      6  C   UNL     1      -4.782  -1.433   2.473  0.00  0.00    +0.049 C 
ATOM      7  C   UNL     1      -4.229  -0.870   1.222  0.00  0.00    -0.018 A 
ATOM      8  C   UNL     1      -3.228   0.076   1.215  0.00  0.00    +0.034 A 
ATOM      9  C   UNL     1      -2.733   0.560   0.018  0.00  0.00    +0.105 A 
ATOM     10  C   UNL     1      -3.244   0.093  -1.180  0.00  0.00    +0.030 A 
ATOM     11  C   UNL     1      -4.243  -0.858  -1.184  0.00  0.00    +0.025 A 
ATOM     12  C   UNL     1      -4.754  -1.344   0.014  0.00  0.00    +0.031 A 
ATOM     13  N   UNL     1      -5.789  -2.287  -0.015  0.00  0.00    -0.336 N 
ATOM     14  H   UNL     1      -6.139  -2.583  -0.870  0.00  0.00    +0.147 HD
ENDROOT
BRANCH   1  19
ATOM     15  C   UNL     1      -3.467  -5.218   1.722  0.00  0.00    +0.000 A 
ATOM     16  C   UNL     1      -4.018  -6.149   2.584  0.00  0.00    +0.001 A 
ATOM     17  C   UNL     1      -5.325  -6.008   3.009  0.00  0.00    +0.020 A 
ATOM     18  C   UNL     1      -6.083  -4.937   2.572  0.00  0.00    +0.046 A 
ATOM     19  C   UNL     1      -5.532  -4.006   1.710  0.00  0.00    -0.009 A 
ATOM     20  C   UNL     1      -4.226  -4.150   1.281  0.00  0.00    +0.007 A 
ATOM     21 CL   UNL     1      -7.726  -4.760   3.106  0.00  0.00    -0.083 Cl
ENDBRANCH   1  19
BRANCH   9  22
ATOM     22  S   UNL     1      -1.456   1.774   0.019  0.00  0.00    +0.056 S 
ATOM     23  O   UNL     1      -1.536   2.446   1.268  0.00  0.00    -0.153 OA
ATOM     24  O   UNL     1      -1.548   2.460  -1.223  0.00  0.00    -0.153 OA
BRANCH  22  25
ATOM     25  N   UNL     1      -0.011   0.966   0.007  0.00  0.00    -0.204 NA
ATOM     26  H   UNL     1       0.002  -0.004   0.002  0.00  0.00    +0.144 HD
ATOM     27  H   UNL     1       0.822   1.462   0.002  0.00  0.00    +0.144 HD
ENDBRANCH  22  25
ENDBRANCH   9  22
TORSDOF 3
