REMARK  Name = ZINC14461021
REMARK  5 active torsions:
REMARK  status: ('A' for Active; 'I' for Inactive)
REMARK    1  A    between atoms: C_4  and  C_7
REMARK    2  A    between atoms: C_7  and  N_8
REMARK    3  A    between atoms: C_9  and  C_11
REMARK    4  A    between atoms: C_18  and  C_27
REMARK    5  A    between atoms: C_32  and  O_33
REMARK                            x       y       z     vdW  Elec       q    Type
REMARK                         _______ _______ _______ _____ _____    ______ ____
ROOT
ATOM      1  C   UNL     1      -1.330   2.122  -0.147  0.00  0.00    +0.058 A 
ATOM      2  C   UNL     1      -2.529   1.417  -0.256  0.00  0.00    +0.015 A 
ATOM      3  C   UNL     1      -3.725   2.094  -0.168  0.00  0.00    +0.001 A 
ATOM      4  C   UNL     1      -3.740   3.462   0.030  0.00  0.00    +0.006 A 
ATOM      5  C   UNL     1      -2.558   4.181   0.142  0.00  0.00    -0.019 A 
ATOM      6  C   UNL     1      -1.347   3.515   0.058  0.00  0.00    +0.044 A 
ATOM      7  N   UNL     1      -0.132   4.175   0.148  0.00  0.00    -0.336 N 
ATOM      8  C   UNL     1      -0.231   5.410   0.927  0.00  0.00    +0.108 C 
ATOM      9  C   UNL     1      -1.266   6.335   0.284  0.00  0.00    +0.029 C 
ATOM     10  C   UNL     1      -2.654   5.662   0.359  0.00  0.00    +0.049 C 
ATOM     11  C   UNL     1      -3.134   5.963   1.761  0.00  0.00    -0.023 C 
ATOM     12  C   UNL     1      -2.494   6.993   2.254  0.00  0.00    -0.030 C 
ATOM     13  C   UNL     1      -1.498   7.533   1.246  0.00  0.00    +0.033 C 
ATOM     14  H   UNL     1       0.581   3.567   0.523  0.00  0.00    +0.147 HD
ENDROOT
BRANCH   8  15
ATOM     15  C   UNL     1       1.110   6.097   0.953  0.00  0.00    +0.015 A 
ATOM     16  C   UNL     1       1.612   6.588   2.143  0.00  0.00    +0.024 A 
ATOM     17  C   UNL     1       2.845   7.215   2.168  0.00  0.00    +0.018 A 
ATOM     18  C   UNL     1       3.573   7.360   1.001  0.00  0.00    +0.019 A 
ATOM     19  C   UNL     1       3.072   6.876  -0.192  0.00  0.00    +0.047 A 
ATOM     20  C   UNL     1       1.838   6.242  -0.218  0.00  0.00    +0.122 A 
ATOM     21 BR   UNL     1       3.533   7.880   3.799  0.00  0.00    -0.050 Br
BRANCH  20  22
ATOM     22  O   UNL     1       1.343   5.765  -1.391  0.00  0.00    -0.506 OA
ATOM     23  H   UNL     1       0.805   6.403  -1.879  0.00  0.00    +0.292 HD
ENDBRANCH  20  22
ENDBRANCH   8  15
BRANCH   1  25
ATOM     24  N   UNL     1      -0.024   0.060  -0.301  0.00  0.00    -0.307 N 
ATOM     25  C   UNL     1      -0.044   1.407  -0.240  0.00  0.00    +0.246 C 
ATOM     26  O   UNL     1       0.999   2.032  -0.266  0.00  0.00    -0.270 OA
ATOM     27  H   UNL     1      -0.856  -0.438  -0.281  0.00  0.00    +0.149 HD
BRANCH  24  28
ATOM     28  C   UNL     1       1.253  -0.650  -0.400  0.00  0.00    +0.139 C 
BRANCH  28  32
ATOM     29  C   UNL     1       0.535  -4.858  -0.552  0.00  0.00    +0.000 A 
ATOM     30  C   UNL     1       0.589  -4.123  -1.722  0.00  0.00    +0.000 A 
ATOM     31  C   UNL     1       0.821  -2.762  -1.672  0.00  0.00    +0.005 A 
ATOM     32  C   UNL     1       1.000  -2.135  -0.454  0.00  0.00    -0.030 A 
ATOM     33  C   UNL     1       0.951  -2.870   0.716  0.00  0.00    +0.005 A 
ATOM     34  C   UNL     1       0.714  -4.231   0.667  0.00  0.00    +0.000 A 
ENDBRANCH  28  32
ENDBRANCH  24  28
ENDBRANCH   1  25
TORSDOF 5
