REMARK  Name = ZINC20464193
REMARK  7 active torsions:
REMARK  status: ('A' for Active; 'I' for Inactive)
REMARK    1  A    between atoms: C_1  and  C_2
REMARK    2  A    between atoms: C_2  and  O_3
REMARK    3  A    between atoms: O_3  and  C_4
REMARK    4  A    between atoms: C_7  and  C_12
REMARK    5  A    between atoms: C_9  and  O_10
REMARK    6  A    between atoms: O_10  and  C_11
REMARK    7  A    between atoms: C_20  and  C_32
REMARK                            x       y       z     vdW  Elec       q    Type
REMARK                         _______ _______ _______ _____ _____    ______ ____
ROOT
ATOM      1  C   UNL     1       2.229  -7.496  -0.084  0.00  0.00    +0.063 C 
ATOM      2  C   UNL     1       0.869  -7.413   0.616  0.00  0.00    +0.109 C 
ATOM      3  C   UNL     1       0.106  -6.194   0.179  0.00  0.00    +0.219 C 
ATOM      4  O   UNL     1      -1.093  -6.279   0.018  0.00  0.00    -0.275 OA
ATOM      5  N   UNL     1       0.714  -5.009  -0.039  0.00  0.00    -0.270 N 
ATOM      6  C   UNL     1       2.107  -4.978  -0.039  0.00  0.00    +0.135 A 
ATOM      7  C   UNL     1       2.856  -6.125  -0.066  0.00  0.00    +0.023 A 
ATOM      8  C   UNL     1       4.195  -5.762  -0.073  0.00  0.00    +0.066 A 
ATOM      9  N   UNL     1       4.268  -4.452  -0.061  0.00  0.00    -0.168 NA
ATOM     10  N   UNL     1       2.963  -3.933  -0.047  0.00  0.00    -0.193 N 
ATOM     11  C   UNL     1       2.615  -2.587  -0.037  0.00  0.00    +0.196 A 
ATOM     12  N   UNL     1       1.420  -2.046  -0.023  0.00  0.00    -0.221 NA
ATOM     13  C   UNL     1       1.228  -0.710  -0.014  0.00  0.00    +0.081 A 
ATOM     14  C   UNL     1       0.002  -0.004   0.002  0.00  0.00    +0.029 A 
ATOM     15  C   UNL     1      -0.017   1.366   0.010  0.00  0.00    +0.002 A 
ATOM     16  C   UNL     1       1.157   2.107   0.002  0.00  0.00    +0.001 A 
ATOM     17  C   UNL     1       2.373   1.450  -0.013  0.00  0.00    +0.017 A 
ATOM     18  C   UNL     1       2.402   0.078  -0.021  0.00  0.00    +0.041 A 
ATOM     19  S   UNL     1       3.682  -1.153  -0.040  0.00  0.00    -0.048 S 
ATOM     20  C   UNL     1       5.366  -6.711  -0.091  0.00  0.00    +0.068 C 
ATOM     21  H   UNL     1       0.111  -4.105  -0.210  0.00  0.00    +0.156 HD
ENDROOT
BRANCH   1  25
ATOM     22  C   UNL     1       4.750 -10.257   1.992  0.00  0.00    +0.162 A 
ATOM     23  C   UNL     1       4.236  -9.152   2.652  0.00  0.00    +0.050 A 
ATOM     24  C   UNL     1       3.421  -8.261   1.978  0.00  0.00    +0.008 A 
ATOM     25  C   UNL     1       3.118  -8.470   0.646  0.00  0.00    -0.036 A 
ATOM     26  C   UNL     1       3.623  -9.573  -0.017  0.00  0.00    +0.053 A 
ATOM     27  C   UNL     1       4.444 -10.467   0.651  0.00  0.00    +0.162 A 
BRANCH  27  28
ATOM     28  O   UNL     1       4.946 -11.549  -0.001  0.00  0.00    -0.491 OA
ATOM     29  C   UNL     1       4.590 -11.701  -1.376  0.00  0.00    +0.277 C 
ENDBRANCH  27  28
BRANCH  22  30
ATOM     30  O   UNL     1       5.551 -11.134   2.654  0.00  0.00    -0.489 OA
BRANCH  30  32
ATOM     31  C   UNL     1       6.733 -11.944   4.601  0.00  0.00    +0.048 C 
ATOM     32  C   UNL     1       5.822 -10.855   4.029  0.00  0.00    +0.226 C 
ENDBRANCH  30  32
ENDBRANCH  22  30
ENDBRANCH   1  25
TORSDOF 4
