REMARK  Name = ZINC02736018
REMARK  5 active torsions:
REMARK  status: ('A' for Active; 'I' for Inactive)
REMARK    1  A    between atoms: C_1  and  C_2
REMARK    2  A    between atoms: C_4  and  C_24
REMARK    3  A    between atoms: C_8  and  N_23
REMARK    4  A    between atoms: C_9  and  C_11
REMARK    5  A    between atoms: C_13  and  C_16
REMARK                            x       y       z     vdW  Elec       q    Type
REMARK                         _______ _______ _______ _____ _____    ______ ____
ROOT
ATOM      1  C   UNL     1       9.554  -2.376   0.386  0.00  0.00    +0.044 C 
ATOM      2  C   UNL     1       9.722  -0.878   0.349  0.00  0.00    -0.037 A 
ATOM      3  C   UNL     1      10.977  -0.318   0.298  0.00  0.00    +0.033 A 
ATOM      4  C   UNL     1      11.130   1.060   0.264  0.00  0.00    +0.108 A 
ATOM      5  N   UNL     1      10.073   1.849   0.278  0.00  0.00    -0.239 NA
ATOM      6  C   UNL     1       8.853   1.362   0.326  0.00  0.00    +0.111 A 
ATOM      7  C   UNL     1       8.590  -0.027   0.364  0.00  0.00    +0.032 A 
ATOM      8  C   UNL     1       7.182  -0.387   0.420  0.00  0.00    +0.054 A 
ATOM      9  C   UNL     1       6.248   0.622   0.421  0.00  0.00    +0.100 A 
ATOM     10  S   UNL     1       7.239   2.102   0.358  0.00  0.00    -0.062 S 
ENDROOT
BRANCH   9  11
ATOM     11  C   UNL     1       4.790   0.508   0.468  0.00  0.00    +0.267 A 
ATOM     12  N   UNL     1       3.918   1.507   0.473  0.00  0.00    -0.187 NA
ATOM     13  C   UNL     1       2.704   0.924   0.523  0.00  0.00    +0.202 A 
ATOM     14  N   UNL     1       2.890  -0.371   0.551  0.00  0.00    -0.056 NA
ATOM     15  O   UNL     1       4.075  -0.630   0.515  0.00  0.00    -0.332 OA
BRANCH  13  16
ATOM     16  C   UNL     1       1.395   1.623   0.548  0.00  0.00    +0.023 A 
ATOM     17  C   UNL     1       0.211   0.889   0.601  0.00  0.00    +0.014 A 
ATOM     18  C   UNL     1      -1.004   1.542   0.619  0.00  0.00    +0.039 A 
ATOM     19  C   UNL     1      -1.048   2.927   0.596  0.00  0.00    +0.123 A 
ATOM     20  C   UNL     1       0.126   3.661   0.544  0.00  0.00    +0.039 A 
ATOM     21  C   UNL     1       1.345   3.015   0.520  0.00  0.00    +0.014 A 
ATOM     22  F   UNL     1      -2.240   3.563   0.619  0.00  0.00    -0.205 F 
ENDBRANCH  13  16
ENDBRANCH   9  11
BRANCH   8  23
ATOM     23  N   UNL     1       6.789  -1.722   0.468  0.00  0.00    -0.356 N 
ATOM     24  H   UNL     1       5.908  -1.980   0.154  0.00  0.00    +0.142 HD
ATOM     25  H   UNL     1       7.396  -2.395   0.814  0.00  0.00    +0.142 HD
ENDBRANCH   8  23
BRANCH   4  26
ATOM     26  C   UNL     1      12.511   1.659   0.208  0.00  0.00    +0.390 C 
ATOM     27  F   UNL     1      13.236   1.264   1.338  0.00  0.00    -0.202 F 
ATOM     28  F   UNL     1      13.167   1.213  -0.945  0.00  0.00    -0.202 F 
ENDBRANCH   4  26
TORSDOF 4
