REMARK  Name = ZINC28117945
REMARK  5 active torsions:
REMARK  status: ('A' for Active; 'I' for Inactive)
REMARK    1  A    between atoms: C_3  and  N_33
REMARK    2  A    between atoms: C_5  and  S_7
REMARK    3  A    between atoms: S_7  and  N_10
REMARK    4  A    between atoms: N_10  and  C_11
REMARK    5  A    between atoms: C_24  and  C_26
REMARK                            x       y       z     vdW  Elec       q    Type
REMARK                         _______ _______ _______ _____ _____    ______ ____
ROOT
ATOM      1  N   UNL     1       2.259  -2.285  -0.073  0.00  0.00    -0.135 N 
ATOM      2  C   UNL     1       1.688  -1.301  -0.795  0.00  0.00    +0.270 C 
ATOM      3  O   UNL     1       2.159  -0.180  -0.774  0.00  0.00    -0.268 OA
ENDROOT
BRANCH   1   4
ATOM      4  C   UNL     1       1.798  -3.602  -0.196  0.00  0.00    +0.061 A 
ATOM      5  C   UNL     1       2.691  -4.625  -0.511  0.00  0.00    +0.029 A 
ATOM      6  C   UNL     1       2.252  -5.924  -0.635  0.00  0.00    +0.049 A 
ATOM      7  C   UNL     1       0.909  -6.227  -0.446  0.00  0.00    +0.136 A 
ATOM      8  C   UNL     1       0.006  -5.197  -0.128  0.00  0.00    +0.025 A 
ATOM      9  C   UNL     1       0.459  -3.885   0.001  0.00  0.00    +0.037 A 
ATOM     10  C   UNL     1      -1.295  -5.853  -0.002  0.00  0.00    +0.001 A 
ATOM     11  C   UNL     1      -1.094  -7.160  -0.239  0.00  0.00    +0.109 A 
ATOM     12  O   UNL     1       0.205  -7.378  -0.501  0.00  0.00    -0.459 OA
ATOM     13  C   UNL     1      -2.196  -8.194  -0.204  0.00  0.00    +0.075 C 
ATOM     14  C   UNL     1      -3.400  -7.598   0.534  0.00  0.00    +0.008 C 
ATOM     15  C   UNL     1      -3.732  -6.224  -0.053  0.00  0.00    +0.005 C 
ATOM     16  C   UNL     1      -2.626  -5.231   0.326  0.00  0.00    +0.039 C 
ENDBRANCH   1   4
BRANCH   2  17
ATOM     17  C   UNL     1       0.490  -1.584  -1.612  0.00  0.00    +0.039 A 
ATOM     18  C   UNL     1      -0.420  -0.565  -1.899  0.00  0.00    +0.014 A 
ATOM     19  C   UNL     1      -1.536  -0.835  -2.663  0.00  0.00    +0.021 A 
ATOM     20  C   UNL     1      -1.755  -2.115  -3.145  0.00  0.00    +0.041 A 
ATOM     21  C   UNL     1      -0.856  -3.130  -2.864  0.00  0.00    +0.021 A 
ATOM     22  C   UNL     1       0.264  -2.872  -2.102  0.00  0.00    +0.014 A 
ATOM     23 CL   UNL     1      -3.162  -2.447  -4.105  0.00  0.00    -0.084 Cl
ENDBRANCH   2  17
BRANCH   1  24
ATOM     24  S   UNL     1       3.506  -1.938   0.960  0.00  0.00    +0.081 S 
ATOM     25  O   UNL     1       3.253  -0.639   1.480  0.00  0.00    -0.149 OA
ATOM     26  O   UNL     1       3.669  -3.075   1.797  0.00  0.00    -0.149 OA
BRANCH  24  31
ATOM     27  C   UNL     1       6.329  -0.605  -1.570  0.00  0.00    +0.004 A 
ATOM     28  C   UNL     1       7.267  -1.621  -1.540  0.00  0.00    +0.033 A 
ATOM     29  C   UNL     1       7.056  -2.733  -0.746  0.00  0.00    +0.128 A 
ATOM     30  C   UNL     1       5.910  -2.827   0.021  0.00  0.00    +0.061 A 
ATOM     31  C   UNL     1       4.970  -1.814  -0.013  0.00  0.00    +0.111 A 
ATOM     32  C   UNL     1       5.181  -0.702  -0.807  0.00  0.00    +0.029 A 
BRANCH  29  33
ATOM     33  N   UNL     1       8.060  -3.820  -0.714  0.00  0.00    +0.056 N 
ATOM     34  O   UNL     1       9.073  -3.734  -1.386  0.00  0.00    -0.126 OA
ATOM     35  O   UNL     1       7.875  -4.800  -0.014  0.00  0.00    -0.126 OA
ENDBRANCH  29  33
ENDBRANCH  24  31
ENDBRANCH   1  24
TORSDOF 5
