REMARK  Name = ZINC27562646
REMARK  7 active torsions:
REMARK  status: ('A' for Active; 'I' for Inactive)
REMARK    1  A    between atoms: C_3  and  C_6
REMARK    2  A    between atoms: C_8  and  C_28
REMARK    3  A    between atoms: C_9  and  N_11
REMARK    4  A    between atoms: N_11  and  C_12
REMARK    5  A    between atoms: C_12  and  C_13
REMARK    6  A    between atoms: C_13  and  C_15
REMARK    7  A    between atoms: C_13  and  N_22
REMARK                            x       y       z     vdW  Elec       q    Type
REMARK                         _______ _______ _______ _____ _____    ______ ____
ROOT
ATOM      1  C   UNL     1      -3.601   2.936   0.117  0.00  0.00    +0.094 C 
ENDROOT
BRANCH   1   2
ATOM      2  N   UNL     1      -3.469   3.726  -1.109  0.00  0.00    -0.314 N 
ATOM      3  H   UNL     1      -4.222   3.635  -1.906  0.00  0.00    +0.149 HD
BRANCH   2   7
ATOM      4  C   UNL     1      -0.565   5.709  -0.907  0.00  0.00    +0.237 A 
ATOM      5  N   UNL     1      -0.996   6.072  -2.090  0.00  0.00    -0.196 NA
ATOM      6  C   UNL     1      -2.142   5.391  -2.361  0.00  0.00    +0.201 A 
ATOM      7  C   UNL     1      -2.401   4.583  -1.265  0.00  0.00    +0.225 A 
ATOM      8  O   UNL     1      -1.406   4.795  -0.383  0.00  0.00    -0.420 OA
BRANCH   4  11
ATOM      9  C   UNL     1       2.633   7.467   0.090  0.00  0.00    +0.008 A 
ATOM     10  C   UNL     1       1.566   7.144  -0.715  0.00  0.00    +0.021 A 
ATOM     11  C   UNL     1       0.649   6.218  -0.252  0.00  0.00    +0.074 A 
ATOM     12  S   UNL     1       1.327   5.798   1.345  0.00  0.00    -0.092 S 
ATOM     13  C   UNL     1       2.758   6.864   1.301  0.00  0.00    +0.046 A 
ENDBRANCH   4  11
BRANCH   6  14
ATOM     14  C   UNL     1      -2.934   5.494  -3.550  0.00  0.00    +0.124 C 
ATOM     15  N   UNL     1      -3.562   5.575  -4.493  0.00  0.00    -0.189 NA
ENDBRANCH   6  14
ENDBRANCH   2   7
ENDBRANCH   1   2
BRANCH   1  16
ATOM     16  C   UNL     1      -4.933   2.183   0.098  0.00  0.00    -0.020 C 
BRANCH  16  17
ATOM     17  C   UNL     1      -6.069   3.173   0.088  0.00  0.00    -0.059 A 
ATOM     18  C   UNL     1      -6.472   3.775   1.265  0.00  0.00    +0.003 A 
ATOM     19  C   UNL     1      -7.510   4.687   1.256  0.00  0.00    +0.020 A 
ATOM     20  C   UNL     1      -8.154   4.989   0.069  0.00  0.00    +0.041 A 
ATOM     21  C   UNL     1      -7.755   4.382  -1.108  0.00  0.00    +0.020 A 
ATOM     22  C   UNL     1      -6.712   3.475  -1.098  0.00  0.00    +0.003 A 
ATOM     23 CL   UNL     1      -9.463   6.129   0.058  0.00  0.00    -0.084 Cl
ENDBRANCH  16  17
BRANCH  16  24
ATOM     24  N   UNL     1      -5.033   1.335   1.293  0.00  0.00    +0.385 N 
ATOM     25  C   UNL     1      -3.906   0.397   1.368  0.00  0.00    -0.078 C 
ATOM     26  C   UNL     1      -3.964  -0.367   2.693  0.00  0.00    -0.019 C 
ATOM     27  C   UNL     1      -5.291  -1.127   2.781  0.00  0.00    -0.004 C 
ATOM     28  C   UNL     1      -6.449  -0.133   2.651  0.00  0.00    -0.019 C 
ATOM     29  C   UNL     1      -6.318   0.625   1.328  0.00  0.00    -0.078 C 
ATOM     30  H   UNL     1      -4.987   1.987   2.177  0.00  0.00    -0.081 HD
ENDBRANCH  16  24
ENDBRANCH   1  16
TORSDOF 7
