REMARK  Name = ZINC39914700
REMARK  10 active torsions:
REMARK  status: ('A' for Active; 'I' for Inactive)
REMARK    1  A    between atoms: C_1  and  C_2
REMARK    2  A    between atoms: C_2  and  C_3
REMARK    3  A    between atoms: C_3  and  O_4
REMARK    4  A    between atoms: O_4  and  C_5
REMARK    5  A    between atoms: C_9  and  C_11
REMARK    6  A    between atoms: C_14  and  C_29
REMARK    7  A    between atoms: N_21  and  C_22
REMARK    8  A    between atoms: C_22  and  C_23
REMARK    9  A    between atoms: C_32  and  C_36
REMARK   10  A    between atoms: C_34  and  O_35
REMARK                            x       y       z     vdW  Elec       q    Type
REMARK                         _______ _______ _______ _____ _____    ______ ____
ROOT
ATOM      1  C   UNL     1       2.152  -6.035   3.462  0.00  0.00    +0.142 C 
ATOM      2  C   UNL     1       1.197  -6.573   4.492  0.00  0.00    +0.035 A 
ATOM      3  C   UNL     1      -0.128  -6.689   4.925  0.00  0.00    +0.102 A 
ATOM      4  N   UNL     1      -0.118  -7.394   6.040  0.00  0.00    -0.173 NA
ATOM      5  N   UNL     1       1.081  -7.734   6.353  0.00  0.00    -0.272 N 
ATOM      6  H   UNL     1       1.327  -8.256   7.133  0.00  0.00    +0.189 HD
ATOM      7  C   UNL     1       1.959  -7.252   5.424  0.00  0.00    +0.126 A 
ATOM      8  C   UNL     1       3.368  -7.167   5.025  0.00  0.00    +0.266 C 
ATOM      9  O   UNL     1       4.294  -7.663   5.638  0.00  0.00    -0.268 OA
ATOM     10  N   UNL     1       3.492  -6.462   3.885  0.00  0.00    -0.281 N 
ENDROOT
BRANCH   3  11
ATOM     11  C   UNL     1      -1.325  -6.123   4.255  0.00  0.00    +0.045 A 
ATOM     12  C   UNL     1      -1.203  -5.504   3.013  0.00  0.00    +0.034 A 
ATOM     13  C   UNL     1      -2.320  -4.978   2.393  0.00  0.00    +0.045 A 
ATOM     14  C   UNL     1      -3.560  -5.065   3.002  0.00  0.00    -0.029 A 
ATOM     15  C   UNL     1      -3.691  -5.677   4.234  0.00  0.00    +0.050 A 
ATOM     16  C   UNL     1      -2.579  -6.214   4.863  0.00  0.00    +0.126 A 
ATOM     17  C   UNL     1      -4.773  -4.489   2.318  0.00  0.00    +0.045 C 
ATOM     18 CL   UNL     1      -2.167  -4.206   0.846  0.00  0.00    -0.083 Cl
BRANCH  16  19
ATOM     19  O   UNL     1      -2.708  -6.822   6.072  0.00  0.00    -0.506 OA
ATOM     20  H   UNL     1      -2.605  -6.224   6.825  0.00  0.00    +0.292 HD
ENDBRANCH  16  19
ENDBRANCH   3  11
BRANCH   1  25
ATOM     21  C   UNL     1       1.558  -2.509   2.240  0.00  0.00    +0.121 A 
ATOM     22  C   UNL     1       1.939  -1.766   3.349  0.00  0.00    +0.045 A 
ATOM     23  C   UNL     1       2.386  -2.408   4.488  0.00  0.00    +0.004 A 
ATOM     24  C   UNL     1       2.454  -3.788   4.523  0.00  0.00    +0.006 A 
ATOM     25  C   UNL     1       2.075  -4.530   3.420  0.00  0.00    -0.019 A 
ATOM     26  C   UNL     1       1.622  -3.894   2.280  0.00  0.00    +0.051 A 
BRANCH  21  27
ATOM     27  O   UNL     1       1.117  -1.880   1.119  0.00  0.00    -0.492 OA
BRANCH  27  28
ATOM     28  C   UNL     1       1.077  -0.452   1.149  0.00  0.00    +0.229 C 
BRANCH  28  30
ATOM     29  C   UNL     1       0.515   1.601  -0.159  0.00  0.00    +0.007 C 
ATOM     30  C   UNL     1       0.558   0.072  -0.191  0.00  0.00    +0.038 C 
ENDBRANCH  28  30
ENDBRANCH  27  28
ENDBRANCH  21  27
ENDBRANCH   1  25
BRANCH  10  31
ATOM     31  C   UNL     1       4.746  -6.170   3.186  0.00  0.00    +0.144 C 
BRANCH  31  32
ATOM     32  C   UNL     1       5.318  -4.874   3.700  0.00  0.00    -0.030 A 
ATOM     33  C   UNL     1       4.969  -3.678   3.102  0.00  0.00    +0.005 A 
ATOM     34  C   UNL     1       5.495  -2.490   3.574  0.00  0.00    +0.000 A 
ATOM     35  C   UNL     1       6.368  -2.498   4.645  0.00  0.00    +0.000 A 
ATOM     36  C   UNL     1       6.717  -3.694   5.244  0.00  0.00    +0.000 A 
ATOM     37  C   UNL     1       6.188  -4.882   4.775  0.00  0.00    +0.005 A 
ENDBRANCH  31  32
ENDBRANCH  10  31
TORSDOF 8
