REMARK  Name = ZINC36598991
REMARK  15 active torsions:
REMARK  status: ('A' for Active; 'I' for Inactive)
REMARK    1  A    between atoms: C_1  and  C_2
REMARK    2  A    between atoms: C_2  and  C_3
REMARK    3  A    between atoms: C_3  and  C_4
REMARK    4  A    between atoms: C_4  and  N_5
REMARK    5  A    between atoms: C_6  and  C_8
REMARK    6  A    between atoms: C_8  and  C_10
REMARK    7  A    between atoms: C_8  and  N_19
REMARK    8  A    between atoms: C_13  and  O_18
REMARK    9  A    between atoms: C_14  and  O_16
REMARK   10  A    between atoms: O_16  and  C_17
REMARK   11  A    between atoms: N_19  and  C_20
REMARK   12  A    between atoms: C_20  and  C_21
REMARK   13  A    between atoms: C_24  and  C_26
REMARK   14  A    between atoms: C_27  and  C_29
REMARK   15  A    between atoms: C_29  and  C_30
REMARK                            x       y       z     vdW  Elec       q    Type
REMARK                         _______ _______ _______ _____ _____    ______ ____
ROOT
ATOM      1  N   UNL     1       2.470  -5.475  -3.936  0.00  0.00    -0.278 N 
ATOM      2  C   UNL     1       3.007  -6.044  -5.034  0.00  0.00    +0.221 C 
ATOM      3  O   UNL     1       3.699  -5.385  -5.781  0.00  0.00    -0.275 OA
ENDROOT
BRANCH   1   4
ATOM      4  C   UNL     1       2.722  -4.062  -3.645  0.00  0.00    +0.193 C 
BRANCH   4   5
ATOM      5  C   UNL     1       2.336  -3.227  -4.839  0.00  0.00    -0.015 A 
ATOM      6  C   UNL     1       1.165  -3.499  -5.521  0.00  0.00    +0.010 A 
ATOM      7  C   UNL     1       0.806  -2.736  -6.617  0.00  0.00    +0.049 A 
ATOM      8  C   UNL     1       1.621  -1.696  -7.033  0.00  0.00    +0.158 A 
ATOM      9  C   UNL     1       2.800  -1.422  -6.346  0.00  0.00    +0.162 A 
ATOM     10  C   UNL     1       3.151  -2.187  -5.246  0.00  0.00    +0.055 A 
BRANCH   9  11
ATOM     11  O   UNL     1       3.603  -0.402  -6.751  0.00  0.00    -0.491 OA
ATOM     12  C   UNL     1       4.797  -0.178  -5.998  0.00  0.00    +0.277 C 
ENDBRANCH   9  11
BRANCH   8  13
ATOM     13  O   UNL     1       1.271  -0.945  -8.111  0.00  0.00    -0.503 OA
ATOM     14  H   UNL     1       0.731  -0.172  -7.894  0.00  0.00    +0.292 HD
ENDBRANCH   8  13
ENDBRANCH   4   5
BRANCH   4  16
ATOM     15  N   UNL     1       2.488  -2.980  -1.433  0.00  0.00    -0.313 N 
ATOM     16  C   UNL     1       1.903  -3.641  -2.452  0.00  0.00    +0.238 C 
ATOM     17  O   UNL     1       0.718  -3.896  -2.409  0.00  0.00    -0.273 OA
ATOM     18  H   UNL     1       3.435  -2.776  -1.468  0.00  0.00    +0.149 HD
BRANCH  15  19
ATOM     19  C   UNL     1       1.692  -2.571  -0.273  0.00  0.00    +0.104 C 
BRANCH  19  20
ATOM     20  C   UNL     1       2.590  -1.844   0.731  0.00  0.00    +0.018 C 
BRANCH  20  22
ATOM     21  C   UNL     1       2.657  -0.690   2.946  0.00  0.00    +0.004 C 
ATOM     22  C   UNL     1       1.759  -1.417   1.942  0.00  0.00    -0.002 C 
ENDBRANCH  20  22
ENDBRANCH  19  20
ENDBRANCH  15  19
ENDBRANCH   4  16
ENDBRANCH   1   4
BRANCH   1  23
ATOM     23  C   UNL     1       1.634  -6.271  -3.033  0.00  0.00    +0.183 C 
BRANCH  23  24
ATOM     24  C   UNL     1       0.238  -6.364  -3.592  0.00  0.00    +0.122 A 
ATOM     25  C   UNL     1      -0.257  -7.391  -4.306  0.00  0.00    +0.046 A 
ATOM     26  C   UNL     1      -1.595  -7.061  -4.625  0.00  0.00    +0.045 A 
ATOM     27  C   UNL     1      -1.837  -5.853  -4.086  0.00  0.00    +0.102 A 
ATOM     28  O   UNL     1      -0.725  -5.438  -3.457  0.00  0.00    -0.463 OA
ATOM     29  C   UNL     1      -3.137  -5.095  -4.169  0.00  0.00    +0.086 C 
ENDBRANCH  23  24
ENDBRANCH   1  23
BRANCH   2  30
ATOM     30  C   UNL     1       2.748  -7.498  -5.332  0.00  0.00    +0.131 C 
BRANCH  30  31
ATOM     31  C   UNL     1       3.456  -7.883  -6.606  0.00  0.00    -0.035 A 
ATOM     32  C   UNL     1       2.811  -7.751  -7.821  0.00  0.00    +0.008 A 
ATOM     33  C   UNL     1       3.456  -8.102  -8.992  0.00  0.00    +0.050 A 
ATOM     34  C   UNL     1       4.753  -8.589  -8.949  0.00  0.00    +0.166 A 
ATOM     35  C   UNL     1       5.403  -8.722  -7.725  0.00  0.00    +0.166 A 
ATOM     36  C   UNL     1       4.752  -8.362  -6.556  0.00  0.00    +0.053 A 
ATOM     37  O   UNL     1       6.656  -9.216  -7.948  0.00  0.00    -0.453 OA
ATOM     38  C   UNL     1       6.621  -9.768  -9.277  0.00  0.00    +0.466 C 
ATOM     39  O   UNL     1       5.598  -8.999  -9.939  0.00  0.00    -0.453 OA
ENDBRANCH  30  31
ENDBRANCH   2  30
TORSDOF 12
