REMARK  Name = ZINC35729438
REMARK  8 active torsions:
REMARK  status: ('A' for Active; 'I' for Inactive)
REMARK    1  A    between atoms: C_1  and  C_2
REMARK    2  A    between atoms: C_2  and  C_3
REMARK    3  A    between atoms: C_3  and  C_5
REMARK    4  A    between atoms: C_3  and  C_6
REMARK    5  A    between atoms: C_6  and  C_8
REMARK    6  A    between atoms: C_6  and  N_25
REMARK    7  A    between atoms: C_14  and  C_16
REMARK    8  A    between atoms: N_28  and  C_29
REMARK                            x       y       z     vdW  Elec       q    Type
REMARK                         _______ _______ _______ _____ _____    ______ ____
ROOT
ATOM      1  C   UNL     1      -2.222  -0.123   1.342  0.00  0.00    +0.163 C 
ENDROOT
BRANCH   1   2
ATOM      2  C   UNL     1      -3.553  -0.768   1.629  0.00  0.00    +0.239 C 
ATOM      3  O   UNL     1      -4.500  -0.084   1.956  0.00  0.00    -0.273 OA
ATOM      4  N   UNL     1      -3.691  -2.104   1.524  0.00  0.00    -0.262 N 
ATOM      5  C   UNL     1      -4.942  -2.688   1.686  0.00  0.00    +0.188 A 
ATOM      6  N   UNL     1      -6.117  -2.129   1.941  0.00  0.00    -0.125 NA
ATOM      7  N   UNL     1      -7.170  -2.813   2.059  0.00  0.00    -0.140 NA
ATOM      8  C   UNL     1      -7.164  -4.135   1.936  0.00  0.00    +0.134 A 
ATOM      9  S   UNL     1      -5.427  -4.410   1.604  0.00  0.00    -0.030 S 
ATOM     10  H   UNL     1      -2.918  -2.658   1.334  0.00  0.00    +0.157 HD
BRANCH   8  11
ATOM     11  C   UNL     1      -8.277  -5.104   2.039  0.00  0.00    +0.013 A 
ATOM     12  C   UNL     1      -8.033  -6.468   1.877  0.00  0.00    +0.014 A 
ATOM     13  C   UNL     1      -9.072  -7.370   1.974  0.00  0.00    +0.050 A 
ATOM     14  C   UNL     1     -10.360  -6.926   2.232  0.00  0.00    +0.166 A 
ATOM     15  C   UNL     1     -10.610  -5.564   2.394  0.00  0.00    +0.167 A 
ATOM     16  C   UNL     1      -9.572  -4.656   2.304  0.00  0.00    +0.060 A 
ATOM     17  O   UNL     1     -11.943  -5.391   2.635  0.00  0.00    -0.453 OA
ATOM     18  C   UNL     1     -12.572  -6.616   2.214  0.00  0.00    +0.466 C 
ATOM     19  O   UNL     1     -11.537  -7.604   2.372  0.00  0.00    -0.453 OA
ENDBRANCH   8  11
ENDBRANCH   1   2
BRANCH   1  20
ATOM     20  N   UNL     1      -2.325   1.324   1.549  0.00  0.00    -0.288 N 
ATOM     21  C   UNL     1      -1.281   2.008   2.056  0.00  0.00    +0.305 C 
ATOM     22  O   UNL     1      -0.224   1.443   2.258  0.00  0.00    -0.252 OA
ATOM     23  N   UNL     1      -1.408   3.320   2.338  0.00  0.00    -0.267 N 
ATOM     24  H   UNL     1      -3.145   1.789   1.321  0.00  0.00    +0.151 HD
ATOM     25  H   UNL     1      -2.269   3.755   2.243  0.00  0.00    +0.156 HD
BRANCH  23  26
ATOM     26  C   UNL     1      -0.295   4.055   2.770  0.00  0.00    +0.070 A 
ATOM     27  C   UNL     1       0.744   3.418   3.433  0.00  0.00    +0.029 A 
ATOM     28  C   UNL     1       1.840   4.144   3.858  0.00  0.00    +0.040 A 
ATOM     29  C   UNL     1       1.903   5.507   3.623  0.00  0.00    +0.126 A 
ATOM     30  C   UNL     1       0.868   6.146   2.962  0.00  0.00    +0.078 A 
ATOM     31  C   UNL     1      -0.228   5.423   2.530  0.00  0.00    +0.147 A 
ATOM     32  F   UNL     1      -1.236   6.045   1.879  0.00  0.00    -0.203 F 
ATOM     33  F   UNL     1       2.976   6.214   4.040  0.00  0.00    -0.205 F 
ENDBRANCH  23  26
ENDBRANCH   1  20
BRANCH   1  34
ATOM     34  C   UNL     1      -1.821  -0.404  -0.107  0.00  0.00    +0.015 C 
ATOM     35  C   UNL     1      -0.391   0.086  -0.345  0.00  0.00    +0.010 C 
BRANCH  34  37
ATOM     36  C   UNL     1      -4.174  -0.278  -0.937  0.00  0.00    +0.004 C 
ATOM     37  C   UNL     1      -2.775   0.330  -1.051  0.00  0.00    +0.002 C 
ENDBRANCH  34  37
ENDBRANCH   1  34
TORSDOF 6
