REMARK  Name = ZINC58843512
REMARK  5 active torsions:
REMARK  status: ('A' for Active; 'I' for Inactive)
REMARK    1  A    between atoms: C_5  and  C_7
REMARK    2  A    between atoms: C_7  and  C_9
REMARK    3  A    between atoms: C_7  and  O_21
REMARK    4  A    between atoms: C_9  and  N_10
REMARK    5  A    between atoms: N_13  and  C_14
REMARK                            x       y       z     vdW  Elec       q    Type
REMARK                         _______ _______ _______ _____ _____    ______ ____
ROOT
ATOM      1  N   UNL     1       1.508  -4.162   1.393  0.00  0.00    -0.296 N 
ATOM      2  C   UNL     1       1.659  -4.839   2.548  0.00  0.00    +0.304 C 
ATOM      3  O   UNL     1       1.681  -4.239   3.606  0.00  0.00    -0.253 OA
ATOM      4  N   UNL     1       1.786  -6.180   2.531  0.00  0.00    -0.269 N 
ATOM      5  H   UNL     1       1.490  -4.640   0.549  0.00  0.00    +0.150 HD
ATOM      6  H   UNL     1       1.701  -6.665   1.695  0.00  0.00    +0.156 HD
ENDROOT
BRANCH   4   7
ATOM      7  C   UNL     1       2.039  -6.874   3.720  0.00  0.00    +0.035 A 
ATOM      8  C   UNL     1       2.853  -7.999   3.709  0.00  0.00    +0.024 A 
ATOM      9  C   UNL     1       3.102  -8.682   4.884  0.00  0.00    +0.016 A 
ATOM     10  C   UNL     1       2.541  -8.245   6.071  0.00  0.00    +0.013 A 
ATOM     11  C   UNL     1       1.730  -7.125   6.085  0.00  0.00    +0.016 A 
ATOM     12  C   UNL     1       1.482  -6.436   4.914  0.00  0.00    +0.024 A 
ATOM     13  I   UNL     1       2.921  -9.284   7.850  0.00  0.00    -0.044 I 
ENDBRANCH   4   7
BRANCH   1  14
ATOM     14  C   UNL     1       1.371  -2.703   1.411  0.00  0.00    +0.142 C 
BRANCH  14  15
ATOM     15  C   UNL     1       1.214  -2.188  -0.021  0.00  0.00    +0.164 C 
BRANCH  15  20
ATOM     16  C   UNL     1      -0.026   1.378   0.016  0.00  0.00    +0.001 A 
ATOM     17  C   UNL     1       1.162   2.085  -0.001  0.00  0.00    +0.003 A 
ATOM     18  C   UNL     1       2.368   1.411  -0.024  0.00  0.00    +0.039 A 
ATOM     19  C   UNL     1       2.386   0.026  -0.031  0.00  0.00    +0.129 A 
ATOM     20  C   UNL     1       1.196  -0.681  -0.014  0.00  0.00    +0.018 A 
ATOM     21  C   UNL     1      -0.009  -0.004   0.010  0.00  0.00    +0.009 A 
ATOM     22  F   UNL     1       3.565  -0.634  -0.054  0.00  0.00    -0.205 F 
ENDBRANCH  15  20
BRANCH  15  23
ATOM     23  O   UNL     1      -0.011  -2.676  -0.572  0.00  0.00    -0.386 OA
ATOM     24  H   UNL     1      -0.798  -2.403  -0.083  0.00  0.00    +0.210 HD
ENDBRANCH  15  23
ENDBRANCH  14  15
ENDBRANCH   1  14
TORSDOF 5
