REMARK  Name = ZINC14037950
REMARK  10 active torsions:
REMARK  status: ('A' for Active; 'I' for Inactive)
REMARK    1  A    between atoms: C_1  and  C_2
REMARK    2  A    between atoms: C_2  and  C_4
REMARK    3  A    between atoms: C_2  and  O_22
REMARK    4  A    between atoms: N_6  and  N_7
REMARK    5  A    between atoms: C_8  and  C_10
REMARK    6  A    between atoms: C_10  and  C_12
REMARK    7  A    between atoms: C_10  and  O_13
REMARK    8  A    between atoms: O_13  and  C_14
REMARK    9  A    between atoms: O_22  and  C_23
REMARK   10  A    between atoms: C_26  and  N_29
REMARK                            x       y       z     vdW  Elec       q    Type
REMARK                         _______ _______ _______ _____ _____    ______ ____
ROOT
ATOM      1  C   UNL     1       1.497  -0.497  -0.561  0.00  0.00    +0.270 C 
ATOM      2  O   UNL     1       0.958  -1.251  -1.343  0.00  0.00    -0.270 OA
ATOM      3  N   UNL     1       2.608   0.173  -0.928  0.00  0.00    -0.231 N 
ATOM      4  H   UNL     1       3.039   0.777  -0.304  0.00  0.00    +0.173 HD
ENDROOT
BRANCH   3   5
ATOM      5  N   UNL     1       3.139  -0.003  -2.213  0.00  0.00    -0.231 N 
ATOM      6  C   UNL     1       4.250   0.666  -2.580  0.00  0.00    +0.270 C 
ATOM      7  O   UNL     1       4.789   1.421  -1.799  0.00  0.00    -0.270 OA
ATOM      8  H   UNL     1       2.708  -0.607  -2.838  0.00  0.00    +0.173 HD
BRANCH   6   9
ATOM      9  C   UNL     1       4.822   0.477  -3.962  0.00  0.00    +0.257 C 
ATOM     10  C   UNL     1       3.829   1.003  -5.001  0.00  0.00    +0.062 C 
BRANCH   9  11
ATOM     11  O   UNL     1       6.052   1.196  -4.071  0.00  0.00    -0.478 OA
BRANCH  11  12
ATOM     12  C   UNL     1       6.942   0.758  -5.000  0.00  0.00    +0.140 A 
ATOM     13  C   UNL     1       6.593  -0.267  -5.867  0.00  0.00    +0.048 A 
ATOM     14  C   UNL     1       7.498  -0.707  -6.814  0.00  0.00    +0.023 A 
ATOM     15  C   UNL     1       8.754  -0.133  -6.893  0.00  0.00    +0.043 A 
ATOM     16  C   UNL     1       9.106   0.886  -6.026  0.00  0.00    +0.043 A 
ATOM     17  C   UNL     1       8.203   1.333  -5.080  0.00  0.00    +0.084 A 
ATOM     18 CL   UNL     1       8.645   2.611  -3.991  0.00  0.00    -0.080 Cl
ATOM     19 CL   UNL     1       9.890  -0.692  -8.080  0.00  0.00    -0.083 Cl
ENDBRANCH  11  12
ENDBRANCH   9  11
ENDBRANCH   6   9
ENDBRANCH   3   5
BRANCH   1  21
ATOM     20  C   UNL     1       0.439   1.135   0.978  0.00  0.00    +0.062 C 
ATOM     21  C   UNL     1       0.925  -0.307   0.820  0.00  0.00    +0.257 C 
BRANCH  21  22
ATOM     22  O   UNL     1      -0.172  -1.203   1.008  0.00  0.00    -0.480 OA
BRANCH  22  23
ATOM     23  C   UNL     1      -0.466  -1.559   2.287  0.00  0.00    +0.122 A 
ATOM     24  C   UNL     1       0.219  -0.978   3.344  0.00  0.00    +0.048 A 
ATOM     25  C   UNL     1      -0.085  -1.338   4.643  0.00  0.00    +0.036 A 
ATOM     26  C   UNL     1      -1.062  -2.285   4.889  0.00  0.00    +0.126 A 
ATOM     27  C   UNL     1      -1.742  -2.869   3.836  0.00  0.00    +0.036 A 
ATOM     28  C   UNL     1      -1.446  -2.509   2.536  0.00  0.00    +0.048 A 
BRANCH  26  29
ATOM     29  N   UNL     1      -1.382  -2.673   6.281  0.00  0.00    +0.056 N 
ATOM     30  O   UNL     1      -2.243  -3.506   6.498  0.00  0.00    -0.126 OA
ATOM     31  O   UNL     1      -0.784  -2.158   7.209  0.00  0.00    -0.126 OA
ENDBRANCH  26  29
ENDBRANCH  22  23
ENDBRANCH  21  22
ENDBRANCH   1  21
TORSDOF 8
