REMARK  Name = ZINC38942827
REMARK  11 active torsions:
REMARK  status: ('A' for Active; 'I' for Inactive)
REMARK    1  A    between atoms: C_1  and  C_2
REMARK    2  A    between atoms: C_2  and  C_3
REMARK    3  A    between atoms: C_2  and  C_4
REMARK    4  A    between atoms: C_4  and  C_5
REMARK    5  A    between atoms: C_5  and  N_6
REMARK    6  A    between atoms: C_10  and  N_20
REMARK    7  A    between atoms: C_15  and  C_18
REMARK    8  A    between atoms: C_15  and  C_19
REMARK    9  A    between atoms: C_21  and  C_23
REMARK   10  A    between atoms: C_23  and  C_24
REMARK   11  A    between atoms: C_27  and  N_30
REMARK                            x       y       z     vdW  Elec       q    Type
REMARK                         _______ _______ _______ _____ _____    ______ ____
ROOT
ATOM      1  N   UNL     1      -3.028  -2.489  -0.303  0.00  0.00    -0.268 N 
ATOM      2  C   UNL     1      -3.748  -2.844   0.848  0.00  0.00    +0.078 A 
ATOM      3  C   UNL     1      -3.587  -2.132   2.026  0.00  0.00    +0.029 A 
ATOM      4  C   UNL     1      -4.300  -2.495   3.154  0.00  0.00    +0.025 A 
ATOM      5  C   UNL     1      -5.176  -3.571   3.108  0.00  0.00    +0.037 A 
ATOM      6  C   UNL     1      -5.340  -4.285   1.928  0.00  0.00    +0.070 A 
ATOM      7  C   UNL     1      -4.630  -3.922   0.797  0.00  0.00    +0.144 A 
ATOM      8  O   UNL     1      -4.792  -4.605  -0.366  0.00  0.00    -0.489 OA
ATOM      9  C   UNL     1      -5.564  -3.978  -1.387  0.00  0.00    +0.244 C 
ATOM     10  C   UNL     1      -5.182  -2.505  -1.517  0.00  0.00    +0.076 C 
ATOM     11  C   UNL     1      -3.684  -2.349  -1.476  0.00  0.00    +0.229 C 
ATOM     12  O   UNL     1      -3.070  -2.103  -2.493  0.00  0.00    -0.275 OA
ATOM     13  C   UNL     1      -5.802  -1.717  -0.362  0.00  0.00    +0.024 C 
ATOM     14  C   UNL     1      -5.713  -1.959  -2.844  0.00  0.00    +0.024 C 
ENDROOT
BRANCH   5  15
ATOM     15  N   UNL     1      -5.894  -3.938   4.253  0.00  0.00    -0.285 N 
ATOM     16  C   UNL     1      -6.192  -5.233   4.476  0.00  0.00    +0.222 C 
ATOM     17  O   UNL     1      -5.759  -6.091   3.736  0.00  0.00    -0.275 OA
ATOM     18  H   UNL     1      -6.177  -3.259   4.886  0.00  0.00    +0.155 HD
BRANCH  16  19
ATOM     19  C   UNL     1      -7.062  -5.616   5.645  0.00  0.00    +0.131 C 
BRANCH  19  20
ATOM     20  C   UNL     1      -7.241  -7.112   5.670  0.00  0.00    -0.038 A 
ATOM     21  C   UNL     1      -8.293  -7.694   4.986  0.00  0.00    +0.006 A 
ATOM     22  C   UNL     1      -8.457  -9.066   5.009  0.00  0.00    +0.033 A 
ATOM     23  C   UNL     1      -7.569  -9.857   5.715  0.00  0.00    +0.126 A 
ATOM     24  C   UNL     1      -6.517  -9.275   6.397  0.00  0.00    +0.033 A 
ATOM     25  C   UNL     1      -6.351  -7.903   6.371  0.00  0.00    +0.006 A 
BRANCH  23  26
ATOM     26  N   UNL     1      -7.745 -11.326   5.740  0.00  0.00    +0.056 N 
ATOM     27  O   UNL     1      -8.665 -11.835   5.143  0.00  0.00    -0.126 OA
ATOM     28  O   UNL     1      -6.969 -12.018   6.357  0.00  0.00    -0.126 OA
ENDBRANCH  23  26
ENDBRANCH  19  20
ENDBRANCH  16  19
ENDBRANCH   5  15
BRANCH   1  29
ATOM     29  C   UNL     1      -1.582  -2.267  -0.233  0.00  0.00    +0.114 C 
BRANCH  29  30
ATOM     30  C   UNL     1      -1.306  -0.796   0.086  0.00  0.00    +0.022 C 
BRANCH  30  32
ATOM     31  C   UNL     1       0.482   0.927   0.354  0.00  0.00    +0.007 C 
ATOM     32  C   UNL     1       0.204  -0.565   0.159  0.00  0.00    -0.016 C 
ATOM     33  C   UNL     1       0.784  -1.349   1.338  0.00  0.00    +0.007 C 
ENDBRANCH  30  32
ENDBRANCH  29  30
ENDBRANCH   1  29
TORSDOF 7
