REMARK  Name = ZINC63479976
REMARK  5 active torsions:
REMARK  status: ('A' for Active; 'I' for Inactive)
REMARK    1  A    between atoms: C_1  and  C_2
REMARK    2  A    between atoms: C_7  and  C_8
REMARK    3  A    between atoms: C_17  and  C_20
REMARK    4  A    between atoms: C_20  and  C_21
REMARK    5  A    between atoms: N_32  and  C_35
REMARK                            x       y       z     vdW  Elec       q    Type
REMARK                         _______ _______ _______ _____ _____    ______ ____
ROOT
ATOM      1  C   UNL     1      -1.476   1.143  -0.297  0.00  0.00    +0.044 C 
ATOM      2  C   UNL     1      -1.147  -0.327  -0.249  0.00  0.00    -0.046 A 
ATOM      3  C   UNL     1      -0.947  -1.026  -1.425  0.00  0.00    +0.004 A 
ATOM      4  C   UNL     1      -0.646  -2.376  -1.381  0.00  0.00    +0.008 A 
ATOM      5  C   UNL     1      -0.546  -3.020  -0.169  0.00  0.00    +0.004 A 
ATOM      6  C   UNL     1      -0.745  -2.326   1.022  0.00  0.00    +0.042 A 
ATOM      7  C   UNL     1      -1.042  -0.967   0.968  0.00  0.00    -0.026 A 
ATOM      8  C   UNL     1      -1.256  -0.194   2.244  0.00  0.00    +0.046 C 
ATOM      9  N   UNL     1      -0.591  -3.185   2.112  0.00  0.00    -0.283 N 
ATOM     10  C   UNL     1      -0.295  -4.442   1.731  0.00  0.00    +0.243 C 
ATOM     11  O   UNL     1      -0.106  -5.394   2.459  0.00  0.00    -0.273 OA
ATOM     12  C   UNL     1      -0.243  -4.437   0.228  0.00  0.00    +0.136 C 
ATOM     13  C   UNL     1       1.131  -4.885  -0.287  0.00  0.00    +0.123 C 
ATOM     14  C   UNL     1       0.945  -6.387  -0.641  0.00  0.00    +0.107 C 
ATOM     15  C   UNL     1      -0.522  -6.701  -0.278  0.00  0.00    +0.072 C 
ATOM     16  N   UNL     1      -1.218  -5.382  -0.348  0.00  0.00    -0.295 NA
ATOM     17  C   UNL     1       1.120  -6.416  -2.142  0.00  0.00    +0.232 C 
ATOM     18  O   UNL     1       1.043  -7.407  -2.837  0.00  0.00    -0.274 OA
ATOM     19  N   UNL     1       1.372  -5.179  -2.584  0.00  0.00    -0.210 N 
ATOM     20  C   UNL     1       1.411  -4.230  -1.621  0.00  0.00    +0.233 C 
ATOM     21  O   UNL     1       1.629  -3.049  -1.789  0.00  0.00    -0.274 OA
ATOM     22  H   UNL     1      -0.686  -2.908   3.037  0.00  0.00    +0.155 HD
ATOM     23  H   UNL     1      -2.069  -5.398   0.194  0.00  0.00    +0.124 HD
ENDROOT
BRANCH  19  24
ATOM     24  C   UNL     1       1.586  -4.887  -3.939  0.00  0.00    +0.044 A 
ATOM     25  C   UNL     1       0.546  -5.012  -4.850  0.00  0.00    +0.024 A 
ATOM     26  C   UNL     1       0.760  -4.724  -6.184  0.00  0.00    +0.002 A 
ATOM     27  C   UNL     1       2.008  -4.311  -6.612  0.00  0.00    +0.000 A 
ATOM     28  C   UNL     1       3.046  -4.185  -5.707  0.00  0.00    +0.002 A 
ATOM     29  C   UNL     1       2.837  -4.467  -4.370  0.00  0.00    +0.024 A 
ENDBRANCH  19  24
BRANCH  15  30
ATOM     30  C   UNL     1      -1.129  -7.663  -1.300  0.00  0.00    +0.052 C 
BRANCH  30  31
ATOM     31  C   UNL     1      -2.517  -8.053  -0.861  0.00  0.00    -0.040 C 
ATOM     32  C   UNL     1      -3.682  -7.486  -1.249  0.00  0.00    -0.001 A 
ATOM     33  C   UNL     1      -3.993  -6.378  -2.161  0.00  0.00    +0.010 A 
ATOM     34  C   UNL     1      -5.286  -6.030  -2.353  0.00  0.00    +0.001 A 
ATOM     35  C   UNL     1      -6.333  -6.699  -1.704  0.00  0.00    +0.002 A 
ATOM     36  C   UNL     1      -6.126  -7.726  -0.853  0.00  0.00    +0.026 A 
ATOM     37  C   UNL     1      -4.806  -8.176  -0.577  0.00  0.00    +0.043 A 
ATOM     38  N   UNL     1      -4.353  -9.133   0.196  0.00  0.00    -0.380 N 
ATOM     39  C   UNL     1      -2.890  -9.162   0.098  0.00  0.00    +0.144 C 
ATOM     40  H   UNL     1      -4.896  -9.725   0.740  0.00  0.00    +0.160 HD
ENDBRANCH  30  31
ENDBRANCH  15  30
TORSDOF 3
