REMARK  Name = ZINC20881713
REMARK  13 active torsions:
REMARK  status: ('A' for Active; 'I' for Inactive)
REMARK    1  A    between atoms: C_1  and  C_2
REMARK    2  A    between atoms: C_2  and  C_3
REMARK    3  A    between atoms: C_3  and  C_5
REMARK    4  A    between atoms: C_3  and  O_6
REMARK    5  A    between atoms: O_6  and  C_7
REMARK    6  A    between atoms: C_12  and  C_13
REMARK    7  A    between atoms: C_18  and  C_23
REMARK    8  A    between atoms: C_25  and  O_33
REMARK    9  A    between atoms: C_26  and  O_31
REMARK   10  A    between atoms: C_27  and  O_29
REMARK   11  A    between atoms: O_29  and  C_30
REMARK   12  A    between atoms: O_31  and  C_32
REMARK   13  A    between atoms: O_33  and  C_34
REMARK                            x       y       z     vdW  Elec       q    Type
REMARK                         _______ _______ _______ _____ _____    ______ ____
ROOT
ATOM      1  C   UNL     1       0.481  -2.921   1.667  0.00  0.00    +0.139 C 
ATOM      2  C   UNL     1      -0.970  -2.691   2.015  0.00  0.00    +0.037 C 
ATOM      3  C   UNL     1      -1.798  -1.820   1.413  0.00  0.00    +0.017 C 
ATOM      4  C   UNL     1      -3.236  -1.673   1.881  0.00  0.00    +0.059 C 
ATOM      5  C   UNL     1      -3.754  -3.013   2.402  0.00  0.00    +0.032 C 
ATOM      6  C   UNL     1      -2.854  -3.440   3.567  0.00  0.00    +0.088 C 
ATOM      7  C   UNL     1      -1.437  -3.498   3.080  0.00  0.00    +0.163 C 
ATOM      8  O   UNL     1      -0.663  -4.265   3.617  0.00  0.00    -0.292 OA
ATOM      9  N   UNL     1      -1.451  -1.014   0.378  0.00  0.00    -0.316 N 
ATOM     10  C   UNL     1      -0.292  -0.250   0.322  0.00  0.00    +0.052 A 
ATOM     11  C   UNL     1      -0.322   1.133   0.273  0.00  0.00    +0.025 A 
ATOM     12  C   UNL     1       0.865   1.833   0.132  0.00  0.00    +0.002 A 
ATOM     13  C   UNL     1       2.068   1.157   0.041  0.00  0.00    +0.002 A 
ATOM     14  C   UNL     1       2.100  -0.226   0.107  0.00  0.00    +0.025 A 
ATOM     15  C   UNL     1       0.917  -0.927   0.265  0.00  0.00    +0.049 A 
ATOM     16  N   UNL     1       0.904  -2.313   0.423  0.00  0.00    -0.331 N 
ATOM     17  H   UNL     1      -2.110  -0.933  -0.500  0.00  0.00    +0.152 HD
ATOM     18  H   UNL     1       1.223  -2.946  -0.418  0.00  0.00    +0.147 HD
ENDROOT
BRANCH   1  24
ATOM     19  C   UNL     1       2.626  -2.830   2.961  0.00  0.00    +0.126 A 
ATOM     20  C   UNL     1       3.408  -2.315   3.986  0.00  0.00    +0.046 A 
ATOM     21  C   UNL     1       2.890  -1.353   4.831  0.00  0.00    +0.004 A 
ATOM     22  C   UNL     1       1.596  -0.898   4.653  0.00  0.00    +0.001 A 
ATOM     23  C   UNL     1       0.817  -1.405   3.629  0.00  0.00    +0.009 A 
ATOM     24  C   UNL     1       1.330  -2.368   2.781  0.00  0.00    +0.019 A 
BRANCH  19  25
ATOM     25  O   UNL     1       3.131  -3.781   2.132  0.00  0.00    -0.489 OA
BRANCH  25  26
ATOM     26  C   UNL     1       4.427  -4.294   2.447  0.00  0.00    +0.170 C 
ATOM     27  C   UNL     1       5.497  -3.377   1.852  0.00  0.00    +0.052 C 
BRANCH  26  29
ATOM     28  C   UNL     1       3.571  -6.640   2.527  0.00  0.00    +0.007 C 
ATOM     29  C   UNL     1       4.575  -5.699   1.859  0.00  0.00    +0.041 C 
ENDBRANCH  26  29
ENDBRANCH  25  26
ENDBRANCH  19  25
ENDBRANCH   1  24
BRANCH   5  30
ATOM     30  C   UNL     1      -5.174  -2.858   2.884  0.00  0.00    -0.036 A 
ATOM     31  C   UNL     1      -5.462  -1.977   3.909  0.00  0.00    +0.053 A 
ATOM     32  C   UNL     1      -6.768  -1.828   4.351  0.00  0.00    +0.165 A 
ATOM     33  C   UNL     1      -7.786  -2.575   3.769  0.00  0.00    +0.204 A 
ATOM     34  C   UNL     1      -7.491  -3.464   2.743  0.00  0.00    +0.165 A 
ATOM     35  C   UNL     1      -6.183  -3.603   2.303  0.00  0.00    +0.053 A 
BRANCH  34  36
ATOM     36  O   UNL     1      -8.484  -4.196   2.170  0.00  0.00    -0.491 OA
ATOM     37  C   UNL     1      -8.108  -5.090   1.120  0.00  0.00    +0.277 C 
ENDBRANCH  34  36
BRANCH  33  38
ATOM     38  O   UNL     1      -9.068  -2.435   4.203  0.00  0.00    -0.488 OA
ATOM     39  C   UNL     1      -9.491  -3.293   5.265  0.00  0.00    +0.277 C 
ENDBRANCH  33  38
BRANCH  32  40
ATOM     40  O   UNL     1      -7.052  -0.957   5.355  0.00  0.00    -0.491 OA
ATOM     41  C   UNL     1      -5.956  -0.223   5.906  0.00  0.00    +0.277 C 
ENDBRANCH  32  40
ENDBRANCH   5  30
TORSDOF 8
