REMARK  Name = ZINC39887094
REMARK  4 active torsions:
REMARK  status: ('A' for Active; 'I' for Inactive)
REMARK    1  A    between atoms: C_1  and  C_2
REMARK    2  A    between atoms: C_2  and  C_3
REMARK    3  A    between atoms: C_12  and  C_26
REMARK    4  A    between atoms: N_14  and  C_15
REMARK                            x       y       z     vdW  Elec       q    Type
REMARK                         _______ _______ _______ _____ _____    ______ ____
ROOT
ATOM      1  C   UNL     1      -1.329  -0.618  -0.015  0.00  0.00    -0.011 C 
ATOM      2  C   UNL     1      -1.987  -0.290   1.327  0.00  0.00    +0.007 C 
ATOM      3  C   UNL     1      -3.434  -0.785   1.320  0.00  0.00    +0.046 C 
ATOM      4  C   UNL     1      -3.454  -2.299   1.098  0.00  0.00    +0.106 C 
ATOM      5  C   UNL     1      -2.798  -2.626  -0.245  0.00  0.00    +0.046 C 
ATOM      6  C   UNL     1      -1.350  -2.131  -0.238  0.00  0.00    +0.007 C 
ATOM      7  N   UNL     1      -4.838  -2.776   1.094  0.00  0.00    -0.289 N 
ATOM      8  C   UNL     1      -5.133  -4.028   1.496  0.00  0.00    +0.258 C 
ATOM      9  O   UNL     1      -6.281  -4.432   1.448  0.00  0.00    -0.269 OA
ATOM     10  C   UNL     1      -4.066  -4.900   1.992  0.00  0.00    +0.142 C 
ATOM     11  C   UNL     1      -2.836  -4.315   2.335  0.00  0.00    +0.103 C 
ATOM     12  N   UNL     1      -2.707  -2.957   2.175  0.00  0.00    -0.271 N 
ATOM     13  S   UNL     1      -1.503  -5.290   2.950  0.00  0.00    -0.033 SA
ATOM     14  H   UNL     1      -5.549  -2.185   0.798  0.00  0.00    +0.151 HD
ENDROOT
BRANCH  12  15
ATOM     15  C   UNL     1      -1.882  -2.217   3.023  0.00  0.00    +0.044 A 
ATOM     16  C   UNL     1      -2.426  -1.305   3.901  0.00  0.00    +0.024 A 
ATOM     17  C   UNL     1      -1.612  -0.562   4.750  0.00  0.00    +0.002 A 
ATOM     18  C   UNL     1      -0.259  -0.714   4.738  0.00  0.00    +0.008 A 
ATOM     19  C   UNL     1       0.336  -1.634   3.858  0.00  0.00    -0.016 A 
ATOM     20  C   UNL     1      -0.483  -2.401   2.992  0.00  0.00    +0.004 A 
ATOM     21  C   UNL     1       0.112  -3.322   2.117  0.00  0.00    +0.010 A 
ATOM     22  C   UNL     1       1.466  -3.472   2.115  0.00  0.00    +0.001 A 
ATOM     23  C   UNL     1       2.271  -2.723   2.970  0.00  0.00    +0.001 A 
ATOM     24  C   UNL     1       1.730  -1.812   3.824  0.00  0.00    +0.008 A 
ENDBRANCH  12  15
BRANCH   1  26
ATOM     25  C   UNL     1       0.136   1.405   0.070  0.00  0.00    +0.004 C 
ATOM     26  C   UNL     1       0.119  -0.123  -0.008  0.00  0.00    -0.000 C 
ENDBRANCH   1  26
BRANCH  10  27
ATOM     27  C   UNL     1      -4.271  -6.311   2.123  0.00  0.00    +0.107 C 
ATOM     28  N   UNL     1      -4.434  -7.430   2.227  0.00  0.00    -0.191 NA
ENDBRANCH  10  27
TORSDOF 3
