REMARK  Name = ZINC28644762
REMARK  14 active torsions:
REMARK  status: ('A' for Active; 'I' for Inactive)
REMARK    1  A    between atoms: C_1  and  C_2
REMARK    2  A    between atoms: C_6  and  C_35
REMARK    3  A    between atoms: C_7  and  C_34
REMARK    4  A    between atoms: C_9  and  O_33
REMARK    5  A    between atoms: C_11  and  C_30
REMARK    6  A    between atoms: C_11  and  C_31
REMARK    7  A    between atoms: C_13  and  O_19
REMARK    8  A    between atoms: C_15  and  C_18
REMARK    9  A    between atoms: O_19  and  C_20
REMARK   10  A    between atoms: C_20  and  C_22
REMARK   11  A    between atoms: C_22  and  S_23
REMARK   12  A    between atoms: S_23  and  C_24
REMARK   13  A    between atoms: C_35  and  C_36
REMARK   14  A    between atoms: C_36  and  C_37
REMARK                            x       y       z     vdW  Elec       q    Type
REMARK                         _______ _______ _______ _____ _____    ______ ____
ROOT
ATOM      1  C   UNL     1       9.968   1.524  -2.816  0.00  0.00    +0.008 C 
ATOM      2  C   UNL     1      10.041   1.718  -1.298  0.00  0.00    +0.003 C 
ATOM      3  C   UNL     1      11.392   2.328  -0.932  0.00  0.00    +0.005 C 
ATOM      4  C   UNL     1      11.432   2.550   0.583  0.00  0.00    +0.015 C 
ATOM      5  C   UNL     1      10.504   3.713   0.932  0.00  0.00    +0.035 C 
ATOM      6  C   UNL     1      10.202   3.740   2.415  0.00  0.00    +0.029 C 
ATOM      7  C   UNL     1       9.396   2.625   3.000  0.00  0.00    +0.128 C 
ATOM      8  C   UNL     1       8.097   2.188   2.374  0.00  0.00    +0.015 C 
ATOM      9  C   UNL     1       8.256   1.284   1.189  0.00  0.00    +0.059 C 
ATOM     10  C   UNL     1       7.825   1.732  -0.179  0.00  0.00    +0.191 C 
ATOM     11  C   UNL     1       8.886   2.603  -0.851  0.00  0.00    +0.066 C 
ATOM     12  C   UNL     1       9.298   3.713   0.058  0.00  0.00    +0.149 C 
ATOM     13  O   UNL     1       8.613   4.711   0.043  0.00  0.00    -0.296 OA
ATOM     14  C   UNL     1       8.259   3.224  -2.105  0.00  0.00    +0.023 C 
ATOM     15  C   UNL     1       7.152   3.359   2.159  0.00  0.00    +0.018 C 
ATOM     16  C   UNL     1       9.696   5.119   2.847  0.00  0.00    +0.011 C 
ENDROOT
BRANCH   8  17
ATOM     17  C   UNL     1       7.415   1.324   3.449  0.00  0.00    -0.025 C 
ATOM     18  C   UNL     1       6.242   1.669   3.920  0.00  0.00    +0.004 C 
ENDBRANCH   8  17
BRANCH   7  19
ATOM     19  O   UNL     1      10.233   1.466   3.175  0.00  0.00    -0.391 OA
ATOM     20  H   UNL     1       9.811   0.541   3.596  0.00  0.00    +0.210 HD
ENDBRANCH   7  19
BRANCH  10  21
ATOM     21  O   UNL     1       6.522   2.340  -0.244  0.00  0.00    -0.460 OA
BRANCH  21  22
ATOM     22  C   UNL     1       5.465   1.514  -0.284  0.00  0.00    +0.318 C 
ATOM     23  O   UNL     1       5.632   0.317  -0.265  0.00  0.00    -0.250 OA
BRANCH  22  24
ATOM     24  C   UNL     1       4.069   2.078  -0.353  0.00  0.00    +0.196 C 
BRANCH  24  25
ATOM     25  S   UNL     1       2.868   0.719  -0.394  0.00  0.00    -0.095 S 
BRANCH  25  26
ATOM     26  C   UNL     1       1.307   1.531  -0.473  0.00  0.00    +0.097 A 
ATOM     27  C   UNL     1       0.138   0.777  -0.519  0.00  0.00    +0.035 A 
ATOM     28  C   UNL     1      -1.080   1.428  -0.586  0.00  0.00    +0.004 A 
ATOM     29  C   UNL     1      -1.090   2.817  -0.596  0.00  0.00    +0.020 A 
ATOM     30  C   UNL     1       0.107   3.502  -0.548  0.00  0.00    +0.112 A 
ATOM     31  N   UNL     1       1.256   2.855  -0.489  0.00  0.00    -0.249 NA
ENDBRANCH  25  26
ENDBRANCH  24  25
ENDBRANCH  22  24
ENDBRANCH  21  22
ENDBRANCH  10  21
BRANCH   5  32
ATOM     32  C   UNL     1      11.284   5.006   0.611  0.00  0.00    +0.026 C 
BRANCH  32  33
ATOM     33  C   UNL     1      12.524   5.089   1.504  0.00  0.00    +0.126 C 
BRANCH  33  34
ATOM     34  C   UNL     1      13.230   6.399   1.263  0.00  0.00    +0.356 C 
ATOM     35  O   UNL     1      12.787   7.184   0.459  0.00  0.00    -0.246 OA
ATOM     36  O   UNL     1      14.351   6.692   1.941  0.00  0.00    -0.246 OA
ENDBRANCH  33  34
ENDBRANCH  32  33
ENDBRANCH   5  32
TORSDOF 10
