REMARK  Name = ZINC39231191
REMARK  4 active torsions:
REMARK  status: ('A' for Active; 'I' for Inactive)
REMARK    1  A    between atoms: C_11  and  C_30
REMARK    2  A    between atoms: N_13  and  C_16
REMARK    3  A    between atoms: C_16  and  C_17
REMARK    4  A    between atoms: N_19  and  C_20
REMARK                            x       y       z     vdW  Elec       q    Type
REMARK                         _______ _______ _______ _____ _____    ______ ____
ROOT
ATOM      1  C   UNL     1      -0.469   1.055  -1.078  0.00  0.00    +0.001 A 
ATOM      2  C   UNL     1       0.666   1.852  -1.017  0.00  0.00    +0.002 A 
ATOM      3  C   UNL     1       1.911   1.288  -0.851  0.00  0.00    +0.026 A 
ATOM      4  C   UNL     1       2.036  -0.093  -0.743  0.00  0.00    +0.047 A 
ATOM      5  C   UNL     1       0.882  -0.899  -0.805  0.00  0.00    +0.003 A 
ATOM      6  C   UNL     1      -0.370  -0.303  -0.974  0.00  0.00    +0.010 A 
ATOM      7  C   UNL     1       1.349  -2.271  -0.663  0.00  0.00    -0.022 A 
ATOM      8  C   UNL     1       2.690  -2.231  -0.528  0.00  0.00    +0.011 A 
ATOM      9  N   UNL     1       3.115  -0.935  -0.575  0.00  0.00    -0.359 N 
ATOM     10  H   UNL     1       4.039  -0.649  -0.501  0.00  0.00    +0.166 HD
ATOM     11  C   UNL     1       3.533  -3.472  -0.350  0.00  0.00    +0.015 C 
ATOM     12  N   UNL     1       2.656  -4.578   0.065  0.00  0.00    +0.394 N 
ATOM     13  C   UNL     1       1.530  -4.713  -0.869  0.00  0.00    -0.072 C 
ATOM     14  C   UNL     1       0.550  -3.549  -0.661  0.00  0.00    +0.019 C 
ATOM     15  H   UNL     1       2.302  -4.393   0.992  0.00  0.00    -0.080 HD
ENDROOT
BRANCH  11  16
ATOM     16  C   UNL     1       4.580  -3.227   0.706  0.00  0.00    -0.008 A 
ATOM     17  C   UNL     1       4.389  -3.700   1.991  0.00  0.00    +0.026 A 
ATOM     18  C   UNL     1       5.348  -3.478   2.962  0.00  0.00    +0.045 A 
ATOM     19  C   UNL     1       6.502  -2.780   2.652  0.00  0.00    +0.069 A 
ATOM     20  C   UNL     1       6.699  -2.303   1.366  0.00  0.00    +0.168 A 
ATOM     21  C   UNL     1       5.735  -2.532   0.387  0.00  0.00    +0.168 A 
ATOM     22  O   UNL     1       6.162  -1.974  -0.784  0.00  0.00    -0.452 OA
ATOM     23  C   UNL     1       7.206  -1.055  -0.413  0.00  0.00    +0.466 C 
ATOM     24  O   UNL     1       7.727  -1.599   0.810  0.00  0.00    -0.453 OA
ATOM     25 CL   UNL     1       5.104  -4.074   4.574  0.00  0.00    -0.083 Cl
ENDBRANCH  11  16
BRANCH  12  26
ATOM     26  C   UNL     1       3.426  -5.829   0.083  0.00  0.00    +0.020 C 
BRANCH  26  27
ATOM     27  C   UNL     1       2.565  -6.941   0.625  0.00  0.00    +0.201 C 
ATOM     28  O   UNL     1       1.423  -6.713   0.964  0.00  0.00    -0.278 OA
ATOM     29  N   UNL     1       3.064  -8.188   0.734  0.00  0.00    -0.287 N 
ATOM     30  H   UNL     1       3.950  -8.387   0.394  0.00  0.00    +0.155 HD
BRANCH  29  31
ATOM     31  C   UNL     1       2.304  -9.196   1.340  0.00  0.00    +0.037 A 
ATOM     32  C   UNL     1       2.415 -10.509   0.900  0.00  0.00    +0.027 A 
ATOM     33  C   UNL     1       1.665 -11.504   1.496  0.00  0.00    +0.051 A 
ATOM     34  C   UNL     1       0.799 -11.195   2.535  0.00  0.00    +0.162 A 
ATOM     35  C   UNL     1       0.687  -9.883   2.979  0.00  0.00    +0.164 A 
ATOM     36  C   UNL     1       1.443  -8.885   2.382  0.00  0.00    +0.072 A 
ATOM     37  O   UNL     1      -0.152  -9.563   4.002  0.00  0.00    -0.485 OA
ATOM     38  C   UNL     1      -1.163 -10.521   4.330  0.00  0.00    +0.270 C 
ATOM     39  C   UNL     1      -0.509 -11.909   4.389  0.00  0.00    +0.270 C 
ATOM     40  O   UNL     1       0.064 -12.189   3.108  0.00  0.00    -0.485 OA
ENDBRANCH  29  31
ENDBRANCH  26  27
ENDBRANCH  12  26
TORSDOF 4
