REMARK  Name = ZINC01876985
REMARK  9 active torsions:
REMARK  status: ('A' for Active; 'I' for Inactive)
REMARK    1  A    between atoms: C_1  and  C_2
REMARK    2  A    between atoms: C_3  and  C_4
REMARK    3  A    between atoms: C_3  and  N_11
REMARK    4  A    between atoms: C_7  and  O_10
REMARK    5  A    between atoms: N_11  and  N_12
REMARK    6  A    between atoms: C_13  and  C_15
REMARK    7  A    between atoms: C_15  and  S_16
REMARK    8  A    between atoms: S_16  and  C_17
REMARK    9  A    between atoms: N_30  and  C_31
REMARK                            x       y       z     vdW  Elec       q    Type
REMARK                         _______ _______ _______ _____ _____    ______ ____
ROOT
ATOM      1  C   UNL     1       1.837   5.866   4.860  0.00  0.00    +0.178 A 
ATOM      2  N   UNL     1       1.146   6.404   3.876  0.00  0.00    -0.215 NA
ATOM      3  C   UNL     1       0.896   7.708   3.855  0.00  0.00    +0.117 A 
ATOM      4  C   UNL     1       1.349   8.573   4.866  0.00  0.00    +0.076 A 
ATOM      5  C   UNL     1       0.996   9.985   4.705  0.00  0.00    -0.023 A 
ATOM      6  C   UNL     1       0.277  10.315   3.613  0.00  0.00    -0.004 A 
ATOM      7  S   UNL     1       0.030   8.790   2.745  0.00  0.00    -0.073 S 
ATOM      8  C   UNL     1      -0.206  11.679   3.223  0.00  0.00    +0.043 C 
ATOM      9  C   UNL     1      -0.081  12.605   4.442  0.00  0.00    +0.005 C 
ATOM     10  C   UNL     1       1.311  12.424   5.055  0.00  0.00    +0.005 C 
ATOM     11  C   UNL     1       1.413  11.049   5.716  0.00  0.00    +0.037 C 
ATOM     12  C   UNL     1       2.096   7.961   5.922  0.00  0.00    +0.268 A 
ATOM     13  O   UNL     1       2.528   8.633   6.843  0.00  0.00    -0.267 OA
ATOM     14  N   UNL     1       2.311   6.633   5.887  0.00  0.00    -0.255 N 
ENDROOT
BRANCH  14  15
ATOM     15  C   UNL     1       3.037   6.027   6.920  0.00  0.00    +0.052 A 
ATOM     16  C   UNL     1       2.519   5.992   8.208  0.00  0.00    +0.026 A 
ATOM     17  C   UNL     1       3.237   5.393   9.224  0.00  0.00    +0.002 A 
ATOM     18  C   UNL     1       4.473   4.829   8.960  0.00  0.00    +0.000 A 
ATOM     19  C   UNL     1       4.992   4.864   7.679  0.00  0.00    +0.002 A 
ATOM     20  C   UNL     1       4.275   5.455   6.657  0.00  0.00    +0.026 A 
ENDBRANCH  14  15
BRANCH   1  21
ATOM     21  S   UNL     1       2.150   4.131   4.855  0.00  0.00    -0.078 S 
BRANCH  21  22
ATOM     22  C   UNL     1       1.350   3.546   3.336  0.00  0.00    +0.174 C 
BRANCH  22  24
ATOM     23  N   UNL     1       1.032   1.399   2.148  0.00  0.00    -0.236 N 
ATOM     24  C   UNL     1       1.544   2.057   3.208  0.00  0.00    +0.239 C 
ATOM     25  O   UNL     1       2.162   1.451   4.057  0.00  0.00    -0.273 OA
ATOM     26  H   UNL     1       0.539   1.884   1.469  0.00  0.00    +0.173 HD
BRANCH  23  27
ATOM     27  N   UNL     1       1.213   0.015   2.029  0.00  0.00    -0.264 N 
ATOM     28  H   UNL     1       1.791  -0.454   2.652  0.00  0.00    +0.170 HD
BRANCH  27  31
ATOM     29  C   UNL     1      -0.113   1.478   0.062  0.00  0.00    +0.037 C 
ATOM     30  C   UNL     1      -0.111  -0.029   0.072  0.00  0.00    -0.005 C 
ATOM     31  C   UNL     1       0.562  -0.689   1.016  0.00  0.00    +0.047 C 
BRANCH  31  32
ATOM     32  C   UNL     1       0.618  -2.168   0.988  0.00  0.00    -0.003 A 
ATOM     33  C   UNL     1       1.316  -2.860   1.978  0.00  0.00    +0.013 A 
ATOM     34  C   UNL     1       1.366  -4.238   1.949  0.00  0.00    +0.046 A 
ATOM     35  C   UNL     1       0.722  -4.936   0.936  0.00  0.00    +0.117 A 
ATOM     36  C   UNL     1       0.026  -4.251  -0.050  0.00  0.00    +0.046 A 
ATOM     37  C   UNL     1      -0.032  -2.873  -0.025  0.00  0.00    +0.013 A 
BRANCH  35  38
ATOM     38  O   UNL     1       0.773  -6.294   0.911  0.00  0.00    -0.507 OA
ATOM     39  H   UNL     1       0.055  -6.723   1.395  0.00  0.00    +0.292 HD
ENDBRANCH  35  38
ENDBRANCH  31  32
ENDBRANCH  27  31
ENDBRANCH  23  27
ENDBRANCH  22  24
ENDBRANCH  21  22
ENDBRANCH   1  21
TORSDOF 8
