REMARK  Name = ZINC31985339
REMARK  13 active torsions:
REMARK  status: ('A' for Active; 'I' for Inactive)
REMARK    1  A    between atoms: C_1  and  C_2
REMARK    2  A    between atoms: C_2  and  N_3
REMARK    3  A    between atoms: N_3  and  C_4
REMARK    4  A    between atoms: N_3  and  C_6
REMARK    5  A    between atoms: C_4  and  C_5
REMARK    6  A    between atoms: C_6  and  C_8
REMARK    7  A    between atoms: C_6  and  C_28
REMARK    8  A    between atoms: C_8  and  N_9
REMARK    9  A    between atoms: C_10  and  C_12
REMARK   10  A    between atoms: C_16  and  S_18
REMARK   11  A    between atoms: S_18  and  N_21
REMARK   12  A    between atoms: N_21  and  C_22
REMARK   13  A    between atoms: C_22  and  C_23
REMARK                            x       y       z     vdW  Elec       q    Type
REMARK                         _______ _______ _______ _____ _____    ______ ____
ROOT
ATOM      1  N   UNL     1      -4.152  -2.159  -5.639  0.00  0.00    -0.313 N 
ATOM      2  C   UNL     1      -2.962  -2.395  -5.051  0.00  0.00    +0.244 C 
ATOM      3  O   UNL     1      -2.097  -3.002  -5.652  0.00  0.00    -0.270 OA
ATOM      4  H   UNL     1      -4.934  -1.610  -5.096  0.00  0.00    +0.149 HD
ENDROOT
BRANCH   2   5
ATOM      5  C   UNL     1      -2.710  -1.917  -3.675  0.00  0.00    +0.039 A 
ATOM      6  C   UNL     1      -3.701  -1.220  -2.982  0.00  0.00    +0.013 A 
ATOM      7  C   UNL     1      -3.460  -0.777  -1.698  0.00  0.00    +0.003 A 
ATOM      8  C   UNL     1      -2.239  -1.026  -1.096  0.00  0.00    +0.028 A 
ATOM      9  C   UNL     1      -1.250  -1.712  -1.779  0.00  0.00    +0.106 A 
ATOM     10  C   UNL     1      -1.479  -2.160  -3.063  0.00  0.00    +0.041 A 
BRANCH   9  11
ATOM     11  S   UNL     1       0.302  -2.018  -1.004  0.00  0.00    +0.059 S 
ATOM     12  O   UNL     1       0.860  -3.156  -1.648  0.00  0.00    -0.153 OA
ATOM     13  O   UNL     1       0.073  -1.972   0.398  0.00  0.00    -0.153 OA
BRANCH  11  14
ATOM     14  N   UNL     1       1.290  -0.739  -1.365  0.00  0.00    -0.185 NA
ATOM     15  H   UNL     1       2.088  -0.869  -2.111  0.00  0.00    +0.148 HD
BRANCH  14  16
ATOM     16  C   UNL     1       0.969   0.599  -0.863  0.00  0.00    +0.148 C 
BRANCH  16  17
ATOM     17  C   UNL     1       2.175   1.492  -1.004  0.00  0.00    +0.005 A 
ATOM     18  C   UNL     1       2.539   2.277  -2.047  0.00  0.00    +0.012 A 
ATOM     19  C   UNL     1       3.699   3.022  -1.953  0.00  0.00    +0.008 A 
ATOM     20  C   UNL     1       4.444   2.938  -0.823  0.00  0.00    +0.045 A 
ATOM     21  S   UNL     1       3.499   1.784   0.158  0.00  0.00    -0.100 S 
ENDBRANCH  16  17
ENDBRANCH  14  16
ENDBRANCH  11  14
ENDBRANCH   9  11
ENDBRANCH   2   5
BRANCH   1  22
ATOM     22  C   UNL     1      -4.402  -2.632  -7.003  0.00  0.00    +0.094 C 
BRANCH  22  23
ATOM     23  C   UNL     1      -5.735  -2.071  -7.501  0.00  0.00    -0.020 C 
BRANCH  23  24
ATOM     24  C   UNL     1      -6.080  -2.699  -8.827  0.00  0.00    -0.052 A 
ATOM     25  C   UNL     1      -6.876  -3.827  -8.883  0.00  0.00    +0.009 A 
ATOM     26  C   UNL     1      -7.167  -4.367 -10.092  0.00  0.00    +0.045 A 
ATOM     27  S   UNL     1      -6.304  -3.269 -11.204  0.00  0.00    -0.105 S 
ATOM     28  C   UNL     1      -5.618  -2.162  -9.983  0.00  0.00    +0.047 A 
ENDBRANCH  23  24
BRANCH  23  29
ATOM     29  N   UNL     1      -5.623  -0.615  -7.663  0.00  0.00    +0.385 N 
ATOM     30  H   UNL     1      -6.308  -0.311  -8.468  0.00  0.00    -0.081 HD
BRANCH  29  32
ATOM     31  C   UNL     1      -7.547  -0.012  -6.273  0.00  0.00    -0.017 C 
ATOM     32  C   UNL     1      -6.029   0.084  -6.436  0.00  0.00    -0.081 C 
ENDBRANCH  29  32
BRANCH  29  33
ATOM     33  C   UNL     1      -4.261  -0.233  -8.061  0.00  0.00    -0.081 C 
ATOM     34  C   UNL     1      -4.273   1.195  -8.611  0.00  0.00    -0.017 C 
ENDBRANCH  29  33
ENDBRANCH  23  29
ENDBRANCH  22  23
ENDBRANCH   1  22
TORSDOF 11
