REMARK  Name = ZINC39694552
REMARK  7 active torsions:
REMARK  status: ('A' for Active; 'I' for Inactive)
REMARK    1  A    between atoms: C_3  and  O_8
REMARK    2  A    between atoms: O_8  and  C_9
REMARK    3  A    between atoms: C_9  and  C_10
REMARK    4  A    between atoms: C_14  and  C_23
REMARK    5  A    between atoms: N_25  and  C_26
REMARK    6  A    between atoms: C_26  and  C_27
REMARK    7  A    between atoms: C_27  and  N_28
REMARK                            x       y       z     vdW  Elec       q    Type
REMARK                         _______ _______ _______ _____ _____    ______ ____
ROOT
ATOM      1  C   UNL     1       6.042   2.402  -0.009  0.00  0.00    +0.253 C 
ATOM      2  O   UNL     1       5.897   3.605  -0.056  0.00  0.00    -0.272 OA
ATOM      3  N   UNL     1       7.279   1.870  -0.059  0.00  0.00    -0.297 N 
ATOM      4  C   UNL     1       7.654   0.437  -0.021  0.00  0.00    +0.121 C 
ATOM      5  C   UNL     1       8.815   0.310  -1.033  0.00  0.00    +0.100 C 
ATOM      6  C   UNL     1       9.415   1.724  -1.121  0.00  0.00    -0.004 C 
ATOM      7  C   UNL     1       8.572   2.587  -0.170  0.00  0.00    +0.115 C 
ATOM      8  C   UNL     1      10.872   1.708  -0.670  0.00  0.00    -0.010 C 
ATOM      9  C   UNL     1      11.464   3.112  -0.822  0.00  0.00    -0.082 C 
ATOM     10  N   UNL     1      11.369   3.537  -2.223  0.00  0.00    +0.379 N 
ATOM     11  C   UNL     1       9.959   3.639  -2.621  0.00  0.00    -0.082 C 
ATOM     12  C   UNL     1       9.304   2.257  -2.546  0.00  0.00    -0.010 C 
ATOM     13  H   UNL     1      11.813   4.436  -2.332  0.00  0.00    -0.086 HD
ATOM     14  H   UNL     1      11.834   2.861  -2.811  0.00  0.00    -0.086 HD
ENDROOT
BRANCH   5  15
ATOM     15  C   UNL     1       9.844  -0.669  -0.531  0.00  0.00    +0.218 C 
ATOM     16  O   UNL     1      10.021  -0.804   0.661  0.00  0.00    -0.275 OA
ATOM     17  N   UNL     1      10.567  -1.395  -1.407  0.00  0.00    -0.313 N 
ATOM     18  H   UNL     1      10.425  -1.286  -2.360  0.00  0.00    +0.149 HD
BRANCH  17  19
ATOM     19  C   UNL     1      11.568  -2.347  -0.918  0.00  0.00    +0.127 C 
BRANCH  19  20
ATOM     20  C   UNL     1      12.242  -3.034  -2.108  0.00  0.00    +0.162 C 
BRANCH  20  21
ATOM     21  N   UNL     1      13.242  -3.986  -1.620  0.00  0.00    -0.270 N 
ATOM     22  C   UNL     1      13.308  -5.298  -1.930  0.00  0.00    +0.108 A 
ATOM     23  C   UNL     1      14.371  -5.823  -1.278  0.00  0.00    +0.041 A 
ATOM     24  C   UNL     1      14.976  -4.797  -0.545  0.00  0.00    +0.134 A 
ATOM     25  N   UNL     1      14.303  -3.694  -0.754  0.00  0.00    -0.180 NA
ENDBRANCH  20  21
ENDBRANCH  19  20
ENDBRANCH  17  19
ENDBRANCH   5  15
BRANCH   1  26
ATOM     26  C   UNL     1       4.839   1.502   0.105  0.00  0.00    +0.324 C 
BRANCH  26  27
ATOM     27  O   UNL     1       3.651   2.296   0.140  0.00  0.00    -0.483 OA
BRANCH  27  30
ATOM     28  C   UNL     1       0.076   1.667   0.384  0.00  0.00    +0.005 A 
ATOM     29  C   UNL     1       1.277   2.342   0.281  0.00  0.00    +0.046 A 
ATOM     30  C   UNL     1       2.469   1.634   0.242  0.00  0.00    +0.123 A 
ATOM     31  C   UNL     1       2.452   0.248   0.307  0.00  0.00    +0.065 A 
ATOM     32  C   UNL     1       1.248  -0.423   0.411  0.00  0.00    +0.044 A 
ATOM     33  C   UNL     1       0.060   0.287   0.449  0.00  0.00    +0.020 A 
ATOM     34 CL   UNL     1       1.226  -2.157   0.491  0.00  0.00    -0.083 Cl
ENDBRANCH  27  30
ENDBRANCH  26  27
ENDBRANCH   1  26
TORSDOF 7
