REMARK  Name = ZINC63844564
REMARK  3 active torsions:
REMARK  status: ('A' for Active; 'I' for Inactive)
REMARK    1  A    between atoms: C_3  and  C_6
REMARK    2  A    between atoms: C_10  and  C_12
REMARK    3  A    between atoms: C_20  and  C_22
REMARK                            x       y       z     vdW  Elec       q    Type
REMARK                         _______ _______ _______ _____ _____    ______ ____
ROOT
ATOM      1  C   UNL     1       4.964  -0.116   1.169  0.00  0.00    +0.231 C 
ATOM      2  O   UNL     1       4.084  -0.006   1.996  0.00  0.00    -0.274 OA
ATOM      3  N   UNL     1       5.964  -0.998   1.363  0.00  0.00    -0.284 N 
ATOM      4  C   UNL     1       7.052  -1.151   0.381  0.00  0.00    +0.127 C 
ATOM      5  C   UNL     1       7.020  -2.587  -0.147  0.00  0.00    +0.123 C 
ATOM      6  N   UNL     1       6.892  -3.538   0.949  0.00  0.00    -0.312 N 
ATOM      7  C   UNL     1       6.407  -3.242   2.156  0.00  0.00    +0.238 C 
ATOM      8  O   UNL     1       6.277  -4.138   2.963  0.00  0.00    -0.273 OA
ATOM      9  C   UNL     1       6.017  -1.843   2.565  0.00  0.00    +0.192 C 
ATOM     10  H   UNL     1       7.180  -4.450   0.790  0.00  0.00    +0.149 HD
ENDROOT
BRANCH   9  11
ATOM     11  C   UNL     1       7.039  -1.290   3.526  0.00  0.00    -0.018 A 
ATOM     12  C   UNL     1       8.373  -1.252   3.168  0.00  0.00    +0.009 A 
ATOM     13  C   UNL     1       9.311  -0.745   4.048  0.00  0.00    +0.038 A 
ATOM     14  C   UNL     1       8.913  -0.275   5.288  0.00  0.00    +0.123 A 
ATOM     15  C   UNL     1       7.575  -0.314   5.645  0.00  0.00    +0.038 A 
ATOM     16  C   UNL     1       6.639  -0.817   4.761  0.00  0.00    +0.009 A 
ATOM     17  F   UNL     1       9.828   0.220   6.149  0.00  0.00    -0.205 F 
ENDBRANCH   9  11
BRANCH   1  22
ATOM     18  C   UNL     1       3.729   1.647  -0.074  0.00  0.00    +0.094 C 
ATOM     19  N   UNL     1       4.203   2.868  -0.077  0.00  0.00    -0.152 NA
ATOM     20  N   UNL     1       5.594   2.888  -0.084  0.00  0.00    -0.161 NA
ATOM     21  C   UNL     1       6.108   1.701  -0.086  0.00  0.00    +0.126 C 
ATOM     22  C   UNL     1       4.940   0.735  -0.074  0.00  0.00    +0.169 C 
BRANCH  18  25
ATOM     23  C   UNL     1       0.030   1.383  -0.058  0.00  0.00    +0.008 A 
ATOM     24  C   UNL     1       1.228   2.057  -0.066  0.00  0.00    +0.017 A 
ATOM     25  C   UNL     1       2.366   1.259  -0.066  0.00  0.00    +0.036 A 
ATOM     26  S   UNL     1       1.665  -0.380  -0.056  0.00  0.00    -0.095 S 
ATOM     27  C   UNL     1       0.035   0.028  -0.051  0.00  0.00    +0.046 A 
ENDBRANCH  18  25
ENDBRANCH   1  22
TORSDOF 3
