REMARK  Name = ZINC09482279
REMARK  11 active torsions:
REMARK  status: ('A' for Active; 'I' for Inactive)
REMARK    1  A    between atoms: C_1  and  C_2
REMARK    2  A    between atoms: C_2  and  C_3
REMARK    3  A    between atoms: C_2  and  C_4
REMARK    4  A    between atoms: C_2  and  C_5
REMARK    5  A    between atoms: C_7  and  C_16
REMARK    6  A    between atoms: C_9  and  C_12
REMARK    7  A    between atoms: C_10  and  O_11
REMARK    8  A    between atoms: C_12  and  C_13
REMARK    9  A    between atoms: C_12  and  C_14
REMARK   10  A    between atoms: C_12  and  C_15
REMARK   11  A    between atoms: N_17  and  N_18
REMARK                            x       y       z     vdW  Elec       q    Type
REMARK                         _______ _______ _______ _____ _____    ______ ____
ROOT
ATOM      1  C   UNL     1       3.916   8.679   1.540  0.00  0.00    +0.000 A 
ATOM      2  C   UNL     1       3.082   7.833   0.841  0.00  0.00    +0.017 A 
ATOM      3  C   UNL     1       3.144   6.455   1.060  0.00  0.00    -0.005 A 
ATOM      4  C   UNL     1       4.050   5.940   1.992  0.00  0.00    +0.017 A 
ATOM      5  C   UNL     1       4.883   6.793   2.683  0.00  0.00    +0.000 A 
ATOM      6  C   UNL     1       4.818   8.162   2.461  0.00  0.00    +0.124 A 
ENDROOT
BRANCH   1   8
ATOM      7  C   UNL     1       2.783  10.468   0.250  0.00  0.00    +0.015 C 
ATOM      8  C   UNL     1       3.850  10.166   1.304  0.00  0.00    -0.009 C 
ATOM      9  C   UNL     1       3.490  10.874   2.612  0.00  0.00    +0.015 C 
ATOM     10  C   UNL     1       5.210  10.665   0.812  0.00  0.00    +0.015 C 
ENDBRANCH   1   8
BRANCH   5  11
ATOM     11  C   UNL     1       5.864   6.239   3.684  0.00  0.00    -0.009 C 
ATOM     12  C   UNL     1       5.733   4.715   3.736  0.00  0.00    +0.015 C 
ATOM     13  C   UNL     1       7.287   6.614   3.266  0.00  0.00    +0.015 C 
ATOM     14  C   UNL     1       5.567   6.824   5.066  0.00  0.00    +0.015 C 
ENDBRANCH   5  11
BRANCH   6  15
ATOM     15  O   UNL     1       5.639   8.999   3.148  0.00  0.00    -0.506 OA
ATOM     16  H   UNL     1       6.354   8.592   3.878  0.00  0.00    +0.292 HD
ENDBRANCH   6  15
BRANCH   3  17
ATOM     17  C   UNL     1       2.253   5.547   0.316  0.00  0.00    +0.138 C 
ATOM     18  N   UNL     1       2.313   4.266   0.521  0.00  0.00    -0.185 NA
BRANCH  18  19
ATOM     19  N   UNL     1       1.466   3.403  -0.187  0.00  0.00    -0.198 N 
ATOM     20  C   UNL     1       1.486   1.965  -0.002  0.00  0.00    +0.136 C 
ATOM     21  C   UNL     1       2.095   1.388   1.288  0.00  0.00    +0.191 C 
ATOM     22  S   UNL     1       1.235  -0.250   1.370  0.00  0.00    -0.028 S 
ATOM     23  O   UNL     1       0.543  -0.348   2.607  0.00  0.00    -0.174 OA
ATOM     24  O   UNL     1       2.147  -1.273   0.995  0.00  0.00    -0.174 OA
ATOM     25  C   UNL     1       0.002  -0.004   0.002  0.00  0.00    +0.182 C 
ATOM     26  C   UNL     1      -0.018   1.501   0.010  0.00  0.00    +0.099 C 
ATOM     27  S   UNL     1      -0.529   2.445  -1.444  0.00  0.00    -0.084 S 
ATOM     28  C   UNL     1       0.535   3.865  -1.129  0.00  0.00    +0.148 C 
ATOM     29  N   UNL     1       0.458   5.054  -1.659  0.00  0.00    -0.380 N 
ATOM     30  H   UNL     1      -0.331   5.279  -2.393  0.00  0.00    +0.158 HD
ATOM     31  H   UNL     1       1.181   5.832  -1.373  0.00  0.00    +0.158 HD
ENDBRANCH  18  19
ENDBRANCH   3  17
TORSDOF 5
