REMARK  Name = ZINC38701451
REMARK  13 active torsions:
REMARK  status: ('A' for Active; 'I' for Inactive)
REMARK    1  A    between atoms: C_1  and  C_2
REMARK    2  A    between atoms: C_2  and  C_3
REMARK    3  A    between atoms: C_3  and  C_4
REMARK    4  A    between atoms: C_4  and  C_5
REMARK    5  A    between atoms: C_5  and  O_6
REMARK    6  A    between atoms: O_6  and  C_7
REMARK    7  A    between atoms: C_12  and  C_13
REMARK    8  A    between atoms: C_18  and  O_27
REMARK    9  A    between atoms: C_22  and  N_26
REMARK   10  A    between atoms: C_23  and  C_24
REMARK   11  A    between atoms: O_27  and  C_28
REMARK   12  A    between atoms: C_28  and  C_30
REMARK   13  A    between atoms: C_31  and  C_40
REMARK                            x       y       z     vdW  Elec       q    Type
REMARK                         _______ _______ _______ _____ _____    ______ ____
ROOT
ATOM      1  C   UNL     1       1.488  -6.827  -2.576  0.00  0.00    +0.101 C 
ATOM      2  C   UNL     1       2.566  -7.664  -1.941  0.00  0.00    +0.008 A 
ATOM      3  C   UNL     1       3.514  -7.056  -1.137  0.00  0.00    +0.012 A 
ATOM      4  C   UNL     1       4.511  -7.808  -0.546  0.00  0.00    +0.047 A 
ATOM      5  C   UNL     1       4.563  -9.179  -0.758  0.00  0.00    +0.136 A 
ATOM      6  C   UNL     1       3.615  -9.790  -1.562  0.00  0.00    +0.093 A 
ATOM      7  C   UNL     1       2.615  -9.032  -2.156  0.00  0.00    +0.138 A 
ATOM      8  O   UNL     1       1.694  -9.646  -2.941  0.00  0.00    -0.441 OA
ATOM      9  C   UNL     1       0.526  -9.038  -3.204  0.00  0.00    +0.199 C 
ATOM     10  C   UNL     1       0.365  -7.705  -3.051  0.00  0.00    +0.098 C 
ENDROOT
BRANCH   1  16
ATOM     11  C   UNL     1       2.045  -4.689  -3.763  0.00  0.00    +0.125 A 
ATOM     12  C   UNL     1       2.581  -4.001  -4.841  0.00  0.00    +0.046 A 
ATOM     13  C   UNL     1       3.129  -4.697  -5.901  0.00  0.00    +0.004 A 
ATOM     14  C   UNL     1       3.143  -6.080  -5.887  0.00  0.00    +0.001 A 
ATOM     15  C   UNL     1       2.608  -6.769  -4.813  0.00  0.00    +0.008 A 
ATOM     16  C   UNL     1       2.064  -6.076  -3.749  0.00  0.00    +0.007 A 
BRANCH  11  17
ATOM     17  O   UNL     1       1.505  -4.006  -2.719  0.00  0.00    -0.492 OA
BRANCH  17  18
ATOM     18  C   UNL     1       1.519  -2.579  -2.801  0.00  0.00    +0.229 C 
BRANCH  18  19
ATOM     19  C   UNL     1       0.875  -1.990  -1.545  0.00  0.00    +0.041 C 
BRANCH  19  20
ATOM     20  C   UNL     1       0.889  -0.462  -1.633  0.00  0.00    +0.003 C 
BRANCH  20  22
ATOM     21  C   UNL     1       0.260   1.655  -0.465  0.00  0.00    +0.004 C 
ATOM     22  C   UNL     1       0.245   0.127  -0.377  0.00  0.00    -0.003 C 
ENDBRANCH  20  22
ENDBRANCH  19  20
ENDBRANCH  18  19
ENDBRANCH  17  18
ENDBRANCH  11  17
ENDBRANCH   1  16
BRANCH   9  23
ATOM     23  N   UNL     1      -0.534  -9.793  -3.640  0.00  0.00    -0.328 N 
ATOM     24  H   UNL     1      -0.433 -10.751  -3.755  0.00  0.00    +0.145 HD
ATOM     25  H   UNL     1      -1.385  -9.368  -3.834  0.00  0.00    +0.145 HD
ENDBRANCH   9  23
BRANCH  10  26
ATOM     26  C   UNL     1      -0.907  -7.118  -3.349  0.00  0.00    +0.101 C 
ATOM     27  N   UNL     1      -1.916  -6.652  -3.586  0.00  0.00    -0.191 NA
ENDBRANCH  10  26
BRANCH   5  28
ATOM     28  O   UNL     1       5.543  -9.920  -0.177  0.00  0.00    -0.420 OA
BRANCH  28  29
ATOM     29  C   UNL     1       6.493 -10.450  -0.975  0.00  0.00    +0.380 C 
ATOM     30  O   UNL     1       6.516 -10.174  -2.159  0.00  0.00    -0.241 OA
BRANCH  29  31
ATOM     31  C   UNL     1       7.498 -11.360  -0.414  0.00  0.00    +0.216 A 
ATOM     32  C   UNL     1       8.502 -11.948  -1.118  0.00  0.00    +0.010 A 
ATOM     33  C   UNL     1       9.248 -12.761  -0.158  0.00  0.00    +0.027 A 
ATOM     34  C   UNL     1      10.367 -13.592  -0.251  0.00  0.00    +0.050 A 
ATOM     35  C   UNL     1      10.832 -14.234   0.877  0.00  0.00    +0.124 A 
ATOM     36  C   UNL     1      10.193 -14.056   2.098  0.00  0.00    +0.042 A 
ATOM     37  C   UNL     1       9.088 -13.239   2.202  0.00  0.00    +0.050 A 
ATOM     38  C   UNL     1       8.601 -12.581   1.079  0.00  0.00    +0.136 A 
ATOM     39  O   UNL     1       7.570 -11.736   0.880  0.00  0.00    -0.448 OA
ATOM     40  F   UNL     1      11.914 -15.039   0.794  0.00  0.00    -0.205 F 
ATOM     41  C   UNL     1       8.787 -11.792  -2.589  0.00  0.00    +0.048 C 
ENDBRANCH  29  31
ENDBRANCH  28  29
ENDBRANCH   5  28
TORSDOF 11
