REMARK  Name = ZINC04813662
REMARK  7 active torsions:
REMARK  status: ('A' for Active; 'I' for Inactive)
REMARK    1  A    between atoms: C_1  and  O_2
REMARK    2  A    between atoms: O_2  and  C_3
REMARK    3  A    between atoms: C_6  and  C_9
REMARK    4  A    between atoms: N_10  and  N_11
REMARK    5  A    between atoms: C_14  and  C_17
REMARK    6  A    between atoms: C_20  and  O_23
REMARK    7  A    between atoms: O_23  and  C_24
REMARK                            x       y       z     vdW  Elec       q    Type
REMARK                         _______ _______ _______ _____ _____    ______ ____
ROOT
ATOM      1  N   UNL     1       3.224  -4.424   5.321  0.00  0.00    -0.124 NA
ATOM      2  C   UNL     1       3.282  -5.746   5.371  0.00  0.00    +0.192 A 
ATOM      3  N   UNL     1       3.853  -6.555   6.323  0.00  0.00    -0.332 N 
ATOM      4  C   UNL     1       3.788  -7.910   6.159  0.00  0.00    +0.055 A 
ATOM      5  C   UNL     1       3.168  -8.422   5.074  0.00  0.00    +0.075 A 
ATOM      6  S   UNL     1       2.631  -6.948   4.221  0.00  0.00    -0.056 S 
ATOM      7  H   UNL     1       4.295  -6.172   7.097  0.00  0.00    +0.168 HD
ENDROOT
BRANCH   4   8
ATOM      8  C   UNL     1       4.392  -8.811   7.165  0.00  0.00    -0.001 A 
ATOM      9  C   UNL     1       5.027  -8.280   8.288  0.00  0.00    +0.013 A 
ATOM     10  C   UNL     1       5.589  -9.123   9.223  0.00  0.00    +0.046 A 
ATOM     11  C   UNL     1       5.524 -10.499   9.048  0.00  0.00    +0.120 A 
ATOM     12  C   UNL     1       4.893 -11.031   7.932  0.00  0.00    +0.046 A 
ATOM     13  C   UNL     1       4.324 -10.195   6.995  0.00  0.00    +0.013 A 
BRANCH  11  14
ATOM     14  O   UNL     1       6.080 -11.327   9.972  0.00  0.00    -0.495 OA
ATOM     15  C   UNL     1       5.976 -12.731   9.730  0.00  0.00    +0.277 C 
ENDBRANCH  11  14
ENDBRANCH   4   8
BRANCH   1  17
ATOM     16  C   UNL     1       2.574  -2.536   4.286  0.00  0.00    +0.143 C 
ATOM     17  N   UNL     1       2.631  -3.841   4.335  0.00  0.00    -0.155 NA
BRANCH  16  21
ATOM     18  C   UNL     1       0.626  -0.618   1.042  0.00  0.00    +0.120 A 
ATOM     19  C   UNL     1       1.202   0.143   2.050  0.00  0.00    +0.046 A 
ATOM     20  C   UNL     1       1.836  -0.475   3.106  0.00  0.00    +0.013 A 
ATOM     21  C   UNL     1       1.898  -1.871   3.161  0.00  0.00    -0.005 A 
ATOM     22  C   UNL     1       1.316  -2.633   2.143  0.00  0.00    +0.013 A 
ATOM     23  C   UNL     1       0.680  -2.005   1.094  0.00  0.00    +0.046 A 
BRANCH  18  25
ATOM     24  C   UNL     1      -0.017   1.425   0.010  0.00  0.00    +0.277 C 
ATOM     25  O   UNL     1       0.002  -0.004   0.002  0.00  0.00    -0.495 OA
ENDBRANCH  18  25
ENDBRANCH  16  21
ENDBRANCH   1  17
TORSDOF 5
