REMARK  Name = ZINC39899121
REMARK  10 active torsions:
REMARK  status: ('A' for Active; 'I' for Inactive)
REMARK    1  A    between atoms: C_1  and  O_2
REMARK    2  A    between atoms: O_2  and  C_3
REMARK    3  A    between atoms: C_6  and  C_9
REMARK    4  A    between atoms: C_9  and  N_10
REMARK    5  A    between atoms: C_11  and  C_29
REMARK    6  A    between atoms: C_14  and  C_21
REMARK    7  A    between atoms: C_26  and  O_27
REMARK    8  A    between atoms: C_33  and  O_35
REMARK    9  A    between atoms: O_35  and  C_36
REMARK   10  A    between atoms: C_36  and  C_37
REMARK                            x       y       z     vdW  Elec       q    Type
REMARK                         _______ _______ _______ _____ _____    ______ ____
ROOT
ATOM      1  N   UNL     1       1.501  -2.683   5.293  0.00  0.00    -0.281 N 
ATOM      2  C   UNL     1       1.159  -1.812   6.425  0.00  0.00    +0.142 C 
ATOM      3  C   UNL     1       0.210  -2.599   7.285  0.00  0.00    +0.035 A 
ATOM      4  C   UNL     1      -0.580  -2.639   8.439  0.00  0.00    +0.102 A 
ATOM      5  N   UNL     1      -1.166  -3.820   8.476  0.00  0.00    -0.173 NA
ATOM      6  N   UNL     1      -0.824  -4.529   7.461  0.00  0.00    -0.272 N 
ATOM      7  H   UNL     1      -1.133  -5.431   7.282  0.00  0.00    +0.189 HD
ATOM      8  C   UNL     1       0.039  -3.825   6.670  0.00  0.00    +0.126 A 
ATOM      9  C   UNL     1       0.842  -3.846   5.442  0.00  0.00    +0.266 C 
ATOM     10  O   UNL     1       0.904  -4.784   4.670  0.00  0.00    -0.268 OA
ENDROOT
BRANCH   4  11
ATOM     11  C   UNL     1      -0.731  -1.552   9.438  0.00  0.00    +0.045 A 
ATOM     12  C   UNL     1      -0.963  -0.244   9.019  0.00  0.00    +0.033 A 
ATOM     13  C   UNL     1      -1.103   0.764   9.953  0.00  0.00    +0.042 A 
ATOM     14  C   UNL     1      -1.013   0.479  11.305  0.00  0.00    +0.023 A 
ATOM     15  C   UNL     1      -0.782  -0.816  11.730  0.00  0.00    +0.047 A 
ATOM     16  C   UNL     1      -0.646  -1.837  10.804  0.00  0.00    +0.126 A 
ATOM     17 CL   UNL     1      -1.392   2.394   9.430  0.00  0.00    -0.084 Cl
BRANCH  16  18
ATOM     18  O   UNL     1      -0.425  -3.111  11.222  0.00  0.00    -0.506 OA
ATOM     19  H   UNL     1       0.510  -3.337  11.318  0.00  0.00    +0.292 HD
ENDBRANCH  16  18
ENDBRANCH   4  11
BRANCH   2  20
ATOM     20  C   UNL     1       2.401  -1.463   7.205  0.00  0.00    -0.019 A 
ATOM     21  C   UNL     1       3.314  -2.450   7.528  0.00  0.00    +0.006 A 
ATOM     22  C   UNL     1       4.454  -2.133   8.243  0.00  0.00    +0.004 A 
ATOM     23  C   UNL     1       4.683  -0.829   8.637  0.00  0.00    +0.045 A 
ATOM     24  C   UNL     1       3.769   0.163   8.314  0.00  0.00    +0.121 A 
ATOM     25  C   UNL     1       2.628  -0.156   7.591  0.00  0.00    +0.051 A 
BRANCH  24  26
ATOM     26  O   UNL     1       3.992   1.447   8.701  0.00  0.00    -0.488 OA
BRANCH  26  27
ATOM     27  C   UNL     1       5.189   1.703   9.438  0.00  0.00    +0.256 C 
BRANCH  27  28
ATOM     28  C   UNL     1       5.266   3.170   9.777  0.00  0.00    +0.006 C 
ATOM     29  C   UNL     1       5.605   3.545  10.985  0.00  0.00    +0.007 C 
ENDBRANCH  27  28
ENDBRANCH  26  27
ENDBRANCH  24  26
ENDBRANCH   2  20
BRANCH   1  30
ATOM     30  C   UNL     1       2.401  -2.342   4.189  0.00  0.00    +0.144 C 
BRANCH  30  34
ATOM     31  C   UNL     1       0.164  -0.513   1.041  0.00  0.00    +0.120 A 
ATOM     32  C   UNL     1       0.721   0.269   2.043  0.00  0.00    +0.046 A 
ATOM     33  C   UNL     1       1.443  -0.325   3.059  0.00  0.00    +0.009 A 
ATOM     34  C   UNL     1       1.612  -1.697   3.079  0.00  0.00    -0.030 A 
ATOM     35  C   UNL     1       1.059  -2.478   2.081  0.00  0.00    +0.009 A 
ATOM     36  C   UNL     1       0.330  -1.890   1.065  0.00  0.00    +0.046 A 
BRANCH  31  38
ATOM     37  C   UNL     1      -0.678   1.492   0.078  0.00  0.00    +0.277 C 
ATOM     38  O   UNL     1      -0.547   0.069   0.040  0.00  0.00    -0.495 OA
ENDBRANCH  31  38
ENDBRANCH  30  34
ENDBRANCH   1  30
TORSDOF 9
