REMARK  Name = ZINC33270847
REMARK  8 active torsions:
REMARK  status: ('A' for Active; 'I' for Inactive)
REMARK    1  A    between atoms: C_5  and  N_7
REMARK    2  A    between atoms: C_8  and  C_10
REMARK    3  A    between atoms: C_10  and  C_11
REMARK    4  A    between atoms: C_11  and  C_12
REMARK    5  A    between atoms: C_14  and  C_17
REMARK    6  A    between atoms: C_17  and  S_18
REMARK    7  A    between atoms: S_18  and  C_19
REMARK    8  A    between atoms: C_22  and  C_25
REMARK                            x       y       z     vdW  Elec       q    Type
REMARK                         _______ _______ _______ _____ _____    ______ ____
ROOT
ATOM      1  C   UNL     1      -2.079   1.708  -2.837  0.00  0.00    +0.228 A 
ATOM      2  N   UNL     1      -1.753   0.911  -1.847  0.00  0.00    -0.195 NA
ATOM      3  C   UNL     1      -0.757   1.534  -1.194  0.00  0.00    +0.182 A 
ATOM      4  N   UNL     1      -0.526   2.654  -1.812  0.00  0.00    -0.060 NA
ATOM      5  O   UNL     1      -1.275   2.772  -2.759  0.00  0.00    -0.338 OA
ENDROOT
BRANCH   1   6
ATOM      6  C   UNL     1      -3.151   1.466  -3.868  0.00  0.00    +0.108 C 
BRANCH   6   7
ATOM      7  C   UNL     1      -4.476   2.048  -3.372  0.00  0.00    +0.105 C 
BRANCH   7   9
ATOM      8  N   UNL     1      -6.806   2.236  -4.181  0.00  0.00    -0.283 N 
ATOM      9  C   UNL     1      -5.548   1.806  -4.403  0.00  0.00    +0.218 C 
ATOM     10  O   UNL     1      -5.279   1.226  -5.433  0.00  0.00    -0.275 OA
ATOM     11  H   UNL     1      -7.068   2.697  -3.217  0.00  0.00    +0.155 HD
BRANCH   8  16
ATOM     12  C   UNL     1      -8.728   0.850  -6.994  0.00  0.00    +0.002 A 
ATOM     13  C   UNL     1      -9.707   1.815  -7.145  0.00  0.00    +0.003 A 
ATOM     14  C   UNL     1      -9.726   2.921  -6.315  0.00  0.00    +0.040 A 
ATOM     15  C   UNL     1      -8.766   3.064  -5.330  0.00  0.00    +0.144 A 
ATOM     16  C   UNL     1      -7.781   2.095  -5.176  0.00  0.00    +0.069 A 
ATOM     17  C   UNL     1      -7.762   0.990  -6.016  0.00  0.00    +0.026 A 
ATOM     18  F   UNL     1      -8.785   4.144  -4.519  0.00  0.00    -0.204 F 
ENDBRANCH   8  16
ENDBRANCH   7   9
ENDBRANCH   6   7
ENDBRANCH   1   6
BRANCH   3  19
ATOM     19  C   UNL     1      -0.035   1.025   0.028  0.00  0.00    +0.157 C 
BRANCH  19  20
ATOM     20  S   UNL     1      -0.884   1.608   1.516  0.00  0.00    -0.079 S 
BRANCH  20  21
ATOM     21  C   UNL     1       0.141   0.887   2.755  0.00  0.00    +0.185 A 
ATOM     22  N   UNL     1      -0.021   0.999   4.106  0.00  0.00    -0.201 NA
ATOM     23  H   UNL     1       1.670  -0.180   1.607  0.00  0.00    +0.191 HD
ATOM     24  C   UNL     1       1.006   0.274   4.665  0.00  0.00    +0.182 A 
ATOM     25  N   UNL     1       1.711  -0.222   3.674  0.00  0.00    -0.152 NA
ATOM     26  N   UNL     1       1.204   0.141   2.550  0.00  0.00    -0.253 N 
BRANCH  24  27
ATOM     27  C   UNL     1       1.268   0.088   6.108  0.00  0.00    +0.021 A 
ATOM     28  C   UNL     1       0.426   0.676   7.054  0.00  0.00    +0.013 A 
ATOM     29  C   UNL     1       0.673   0.496   8.399  0.00  0.00    +0.021 A 
ATOM     30  C   UNL     1       1.760  -0.258   8.811  0.00  0.00    +0.041 A 
ATOM     31  C   UNL     1       2.601  -0.839   7.878  0.00  0.00    +0.021 A 
ATOM     32  C   UNL     1       2.362  -0.669   6.530  0.00  0.00    +0.013 A 
ATOM     33 CL   UNL     1       2.068  -0.474  10.506  0.00  0.00    -0.084 Cl
ENDBRANCH  24  27
ENDBRANCH  20  21
ENDBRANCH  19  20
ENDBRANCH   3  19
TORSDOF 8
