REMARK  Name = ZINC04707940
REMARK  8 active torsions:
REMARK  status: ('A' for Active; 'I' for Inactive)
REMARK    1  A    between atoms: C_1  and  C_2
REMARK    2  A    between atoms: C_5  and  N_8
REMARK    3  A    between atoms: N_8  and  C_9
REMARK    4  A    between atoms: C_11  and  N_26
REMARK    5  A    between atoms: N_26  and  C_27
REMARK    6  A    between atoms: C_27  and  C_28
REMARK    7  A    between atoms: C_28  and  C_29
REMARK    8  A    between atoms: C_28  and  C_30
REMARK                            x       y       z     vdW  Elec       q    Type
REMARK                         _______ _______ _______ _____ _____    ______ ____
ROOT
ATOM      1  C   UNL     1      -0.028   1.380  -0.001  0.00  0.00    +0.045 A 
ATOM      2  C   UNL     1       1.179   2.052   0.229  0.00  0.00    +0.049 A 
ATOM      3  C   UNL     1       2.426   1.458   0.226  0.00  0.00    +0.059 A 
ATOM      4  C   UNL     1       2.532   0.017  -0.032  0.00  0.00    +0.135 A 
ATOM      5  C   UNL     1       1.258  -0.652  -0.267  0.00  0.00    +0.063 A 
ATOM      6  C   UNL     1      -0.023  -0.000  -0.257  0.00  0.00    +0.056 A 
ATOM      7  C   UNL     1      -1.151  -0.815  -0.508  0.00  0.00    +0.196 C 
ATOM      8  O   UNL     1      -2.276  -0.343  -0.520  0.00  0.00    -0.287 OA
ATOM      9  C   UNL     1      -0.926  -2.256  -0.755  0.00  0.00    +0.033 A 
ATOM     10  C   UNL     1      -2.029  -3.081  -1.003  0.00  0.00    +0.012 A 
ATOM     11  C   UNL     1      -1.851  -4.425  -1.234  0.00  0.00    +0.001 A 
ATOM     12  C   UNL     1      -0.579  -4.983  -1.224  0.00  0.00    +0.001 A 
ATOM     13  C   UNL     1       0.524  -4.197  -0.983  0.00  0.00    +0.012 A 
ATOM     14  C   UNL     1       0.370  -2.828  -0.746  0.00  0.00    +0.031 A 
ATOM     15  C   UNL     1       1.532  -1.979  -0.489  0.00  0.00    +0.176 A 
ATOM     16  O   UNL     1       2.864  -2.041  -0.384  0.00  0.00    -0.353 OA
ATOM     17  N   UNL     1       3.391  -0.958  -0.137  0.00  0.00    -0.076 NA
ENDROOT
BRANCH   1  18
ATOM     18  N   UNL     1      -1.220   2.074   0.019  0.00  0.00    -0.314 N 
ATOM     19  H   UNL     1      -1.467   2.636  -0.732  0.00  0.00    +0.152 HD
BRANCH  18  24
ATOM     20  C   UNL     1      -4.678   1.644   4.494  0.00  0.00    +0.044 C 
ATOM     21  C   UNL     1      -3.759   1.758   3.305  0.00  0.00    -0.050 A 
ATOM     22  C   UNL     1      -4.167   2.455   2.182  0.00  0.00    +0.005 A 
ATOM     23  C   UNL     1      -3.328   2.562   1.091  0.00  0.00    +0.023 A 
ATOM     24  C   UNL     1      -2.072   1.968   1.121  0.00  0.00    +0.031 A 
ATOM     25  C   UNL     1      -1.667   1.265   2.249  0.00  0.00    +0.023 A 
ATOM     26  C   UNL     1      -2.509   1.166   3.339  0.00  0.00    +0.005 A 
ENDBRANCH  18  24
ENDBRANCH   1  18
BRANCH   3  27
ATOM     27  N   UNL     1       3.558   2.210   0.463  0.00  0.00    -0.342 N 
ATOM     28  H   UNL     1       4.431   1.787   0.460  0.00  0.00    +0.146 HD
BRANCH  27  29
ATOM     29  C   UNL     1       3.442   3.648   0.719  0.00  0.00    +0.104 C 
BRANCH  29  30
ATOM     30  C   UNL     1       4.834   4.239   0.948  0.00  0.00    -0.000 C 
ATOM     31  C   UNL     1       5.656   4.122  -0.337  0.00  0.00    +0.009 C 
ATOM     32  C   UNL     1       4.704   5.713   1.338  0.00  0.00    +0.009 C 
ENDBRANCH  29  30
ENDBRANCH  27  29
ENDBRANCH   3  27
TORSDOF 5
