REMARK  Name = ZINC09142758
REMARK  5 active torsions:
REMARK  status: ('A' for Active; 'I' for Inactive)
REMARK    1  A    between atoms: C_4  and  S_8
REMARK    2  A    between atoms: C_5  and  N_7
REMARK    3  A    between atoms: S_8  and  C_9
REMARK    4  A    between atoms: N_13  and  C_14
REMARK    5  A    between atoms: C_14  and  C_15
REMARK                            x       y       z     vdW  Elec       q    Type
REMARK                         _______ _______ _______ _____ _____    ______ ____
ROOT
ATOM      1  C   UNL     1      -0.579   4.136  -0.122  0.00  0.00    +0.193 A 
ATOM      2  N   UNL     1      -1.520   3.215  -0.114  0.00  0.00    -0.190 NA
ATOM      3  C   UNL     1      -2.716   3.793  -0.232  0.00  0.00    +0.243 A 
ATOM      4  N   UNL     1      -2.558   5.088  -0.326  0.00  0.00    -0.136 NA
ATOM      5  N   UNL     1      -1.178   5.339  -0.257  0.00  0.00    -0.234 N 
ATOM      6 CL   UNL     1      -4.239   2.960  -0.263  0.00  0.00    -0.039 Cl
ENDROOT
BRANCH   1   7
ATOM      7  S   UNL     1       1.155   3.850   0.011  0.00  0.00    -0.048 S 
BRANCH   7  11
ATOM      8  C   UNL     1       1.159  -0.620   0.771  0.00  0.00    +0.002 A 
ATOM      9  C   UNL     1       1.503  -0.128  -0.475  0.00  0.00    +0.001 A 
ATOM     10  C   UNL     1       1.502   1.234  -0.709  0.00  0.00    +0.017 A 
ATOM     11  C   UNL     1       1.156   2.113   0.307  0.00  0.00    +0.036 A 
ATOM     12  C   UNL     1       0.809   1.617   1.564  0.00  0.00    +0.039 A 
ATOM     13  C   UNL     1       0.813   0.249   1.790  0.00  0.00    +0.024 A 
BRANCH  12  14
ATOM     14  N   UNL     1       0.459   2.498   2.594  0.00  0.00    -0.357 N 
ATOM     15  H   UNL     1       0.217   2.151   3.467  0.00  0.00    +0.142 HD
ATOM     16  H   UNL     1       0.457   3.454   2.434  0.00  0.00    +0.142 HD
ENDBRANCH  12  14
ENDBRANCH   7  11
ENDBRANCH   1   7
BRANCH   5  17
ATOM     17  C   UNL     1      -0.520   6.646  -0.320  0.00  0.00    +0.181 C 
BRANCH  17  18
ATOM     18  C   UNL     1      -0.203   6.981  -1.754  0.00  0.00    -0.026 A 
ATOM     19  C   UNL     1       1.011   6.608  -2.299  0.00  0.00    +0.007 A 
ATOM     20  C   UNL     1       1.300   6.910  -3.616  0.00  0.00    +0.020 A 
ATOM     21  C   UNL     1       0.378   7.596  -4.387  0.00  0.00    +0.041 A 
ATOM     22  C   UNL     1      -0.835   7.975  -3.839  0.00  0.00    +0.020 A 
ATOM     23  C   UNL     1      -1.125   7.667  -2.523  0.00  0.00    +0.007 A 
ATOM     24 CL   UNL     1       0.743   7.982  -6.040  0.00  0.00    -0.084 Cl
ENDBRANCH  17  18
ENDBRANCH   5  17
TORSDOF 5
