REMARK  Name = ZINC63856254
REMARK  7 active torsions:
REMARK  status: ('A' for Active; 'I' for Inactive)
REMARK    1  A    between atoms: C_1  and  C_2
REMARK    2  A    between atoms: C_2  and  C_3
REMARK    3  A    between atoms: C_2  and  C_4
REMARK    4  A    between atoms: C_6  and  C_10
REMARK    5  A    between atoms: N_12  and  C_13
REMARK    6  A    between atoms: C_15  and  C_26
REMARK    7  A    between atoms: N_28  and  C_29
REMARK                            x       y       z     vdW  Elec       q    Type
REMARK                         _______ _______ _______ _____ _____    ______ ____
ROOT
ATOM      1  C   UNL     1      -5.790  -1.173  -3.596  0.00  0.00    +0.143 C 
ATOM      2  C   UNL     1      -5.127  -1.399  -4.971  0.00  0.00    +0.109 C 
ATOM      3  C   UNL     1      -6.009  -2.217  -5.936  0.00  0.00    +0.016 C 
ATOM      4  C   UNL     1      -6.947  -1.216  -6.616  0.00  0.00    +0.005 C 
ATOM      5  C   UNL     1      -8.033  -1.928  -7.416  0.00  0.00    +0.000 C 
ATOM      6  C   UNL     1      -8.890  -2.744  -6.439  0.00  0.00    +0.001 C 
ATOM      7  C   UNL     1      -8.002  -3.828  -5.832  0.00  0.00    +0.014 C 
ATOM      8  C   UNL     1      -6.791  -3.268  -5.121  0.00  0.00    +0.052 C 
ATOM      9  S   UNL     1      -7.311  -2.211  -3.681  0.00  0.00    -0.134 S 
ENDROOT
BRANCH   2  10
ATOM     10  C   UNL     1      -4.841  -0.059  -5.598  0.00  0.00    +0.219 C 
ATOM     11  O   UNL     1      -5.530   0.900  -5.321  0.00  0.00    -0.275 OA
ATOM     12  N   UNL     1      -3.819   0.074  -6.467  0.00  0.00    -0.318 N 
ATOM     13  C   UNL     1      -3.541   1.377  -7.077  0.00  0.00    +0.128 C 
ATOM     14  H   UNL     1      -3.268  -0.693  -6.689  0.00  0.00    +0.148 HD
ENDBRANCH   2  10
BRANCH   1  17
ATOM     15  C   UNL     1      -4.768  -0.887  -1.403  0.00  0.00    +0.244 C 
ATOM     16  O   UNL     1      -5.366   0.162  -1.293  0.00  0.00    -0.273 OA
ATOM     17  N   UNL     1      -4.911  -1.631  -2.517  0.00  0.00    -0.301 N 
ATOM     18  H   UNL     1      -4.432  -2.470  -2.605  0.00  0.00    +0.150 HD
BRANCH  15  21
ATOM     19  C   UNL     1      -2.030  -0.230   0.362  0.00  0.00    +0.064 C 
ATOM     20  C   UNL     1      -2.412  -1.053  -0.617  0.00  0.00    +0.036 C 
ATOM     21  C   UNL     1      -3.863  -1.358  -0.293  0.00  0.00    +0.238 C 
ATOM     22  N   UNL     1      -4.097  -0.584   0.939  0.00  0.00    -0.170 NA
ATOM     23  N   UNL     1      -3.046  -0.007   1.225  0.00  0.00    -0.158 NA
BRANCH  19  25
ATOM     24  C   UNL     1      -0.749   1.891   0.458  0.00  0.00    +0.014 C 
ATOM     25  C   UNL     1      -0.651   0.365   0.492  0.00  0.00    +0.033 C 
ATOM     26  C   UNL     1      -0.028  -0.077   1.817  0.00  0.00    +0.014 C 
ENDBRANCH  19  25
ENDBRANCH  15  21
ENDBRANCH   1  17
TORSDOF 4
