REMARK  Name = ZINC08438233
REMARK  11 active torsions:
REMARK  status: ('A' for Active; 'I' for Inactive)
REMARK    1  A    between atoms: C_1  and  C_2
REMARK    2  A    between atoms: C_2  and  O_3
REMARK    3  A    between atoms: O_3  and  C_4
REMARK    4  A    between atoms: C_6  and  C_22
REMARK    5  A    between atoms: C_9  and  O_10
REMARK    6  A    between atoms: O_10  and  C_11
REMARK    7  A    between atoms: C_11  and  C_12
REMARK    8  A    between atoms: C_24  and  C_37
REMARK    9  A    between atoms: C_25  and  N_36
REMARK   10  A    between atoms: C_32  and  C_34
REMARK   11  A    between atoms: C_32  and  C_35
REMARK                            x       y       z     vdW  Elec       q    Type
REMARK                         _______ _______ _______ _____ _____    ______ ____
ROOT
ATOM      1  C   UNL     1       0.002  -0.004   0.002  0.00  0.00    +0.162 A 
ATOM      2  C   UNL     1       1.210  -0.682  -0.013  0.00  0.00    +0.054 A 
ATOM      3  C   UNL     1       1.227  -2.064  -0.021  0.00  0.00    -0.031 A 
ATOM      4  C   UNL     1       0.041  -2.773  -0.013  0.00  0.00    +0.008 A 
ATOM      5  C   UNL     1      -1.168  -2.103   0.002  0.00  0.00    +0.050 A 
ATOM      6  C   UNL     1      -1.192  -0.718   0.015  0.00  0.00    +0.162 A 
ENDROOT
BRANCH   3   7
ATOM      7  C   UNL     1       2.543  -2.800  -0.037  0.00  0.00    +0.101 C 
ATOM      8  C   UNL     1       2.627  -3.644  -1.278  0.00  0.00    +0.098 C 
ATOM      9  C   UNL     1       2.399  -4.979  -1.215  0.00  0.00    +0.198 C 
ATOM     10  O   UNL     1       2.090  -5.582  -0.057  0.00  0.00    -0.445 OA
ATOM     11  C   UNL     1       2.413  -4.996   1.111  0.00  0.00    +0.115 C 
ATOM     12  C   UNL     1       2.643  -3.673   1.191  0.00  0.00    +0.046 C 
ATOM     13  C   UNL     1       2.984  -3.061   2.413  0.00  0.00    +0.164 C 
ATOM     14  O   UNL     1       3.164  -1.860   2.449  0.00  0.00    -0.292 OA
ATOM     15  C   UNL     1       3.129  -3.868   3.674  0.00  0.00    +0.086 C 
ATOM     16  C   UNL     1       3.549  -5.295   3.303  0.00  0.00    -0.021 C 
ATOM     17  C   UNL     1       2.509  -5.870   2.340  0.00  0.00    +0.081 C 
ATOM     18  C   UNL     1       4.919  -5.267   2.623  0.00  0.00    +0.012 C 
ATOM     19  C   UNL     1       3.618  -6.156   4.566  0.00  0.00    +0.012 C 
BRANCH   9  20
ATOM     20  N   UNL     1       2.487  -5.729  -2.361  0.00  0.00    -0.328 N 
ATOM     21  H   UNL     1       2.327  -6.686  -2.328  0.00  0.00    +0.145 HD
ATOM     22  H   UNL     1       2.710  -5.304  -3.204  0.00  0.00    +0.145 HD
ENDBRANCH   9  20
BRANCH   8  23
ATOM     23  C   UNL     1       2.948  -3.034  -2.533  0.00  0.00    +0.101 C 
ATOM     24  N   UNL     1       3.203  -2.551  -3.529  0.00  0.00    -0.191 NA
ENDBRANCH   8  23
ENDBRANCH   3   7
BRANCH   1  25
ATOM     25  O   UNL     1      -0.016   1.356   0.009  0.00  0.00    -0.489 OA
BRANCH  25  27
ATOM     26  C   UNL     1       1.027   3.536   0.011  0.00  0.00    +0.048 C 
ATOM     27  C   UNL     1       1.248   2.022   0.001  0.00  0.00    +0.226 C 
ENDBRANCH  25  27
ENDBRANCH   1  25
BRANCH   6  28
ATOM     28  O   UNL     1      -2.381  -0.057   0.036  0.00  0.00    -0.484 OA
BRANCH  28  29
ATOM     29  C   UNL     1      -3.567  -0.855   0.049  0.00  0.00    +0.265 C 
BRANCH  29  30
ATOM     30  C   UNL     1      -4.776   0.044   0.071  0.00  0.00    -0.003 A 
ATOM     31  C   UNL     1      -4.624   1.397   0.081  0.00  0.00    +0.007 A 
ATOM     32  C   UNL     1      -5.730   2.243   0.095  0.00  0.00    +0.001 A 
ATOM     33  C   UNL     1      -6.996   1.742   0.111  0.00  0.00    +0.008 A 
ATOM     34  C   UNL     1      -7.193   0.351   0.107  0.00  0.00    -0.018 A 
ATOM     35  C   UNL     1      -6.067  -0.510   0.086  0.00  0.00    -0.011 A 
ATOM     36  C   UNL     1      -6.265  -1.901   0.083  0.00  0.00    +0.009 A 
ATOM     37  C   UNL     1      -7.530  -2.402   0.099  0.00  0.00    +0.001 A 
ATOM     38  C   UNL     1      -8.637  -1.555   0.120  0.00  0.00    +0.001 A 
ATOM     39  C   UNL     1      -8.484  -0.203   0.124  0.00  0.00    +0.008 A 
ENDBRANCH  29  30
ENDBRANCH  28  29
ENDBRANCH   6  28
TORSDOF 8
