REMARK  Name = ZINC56061336
REMARK  6 active torsions:
REMARK  status: ('A' for Active; 'I' for Inactive)
REMARK    1  A    between atoms: C_1  and  C_2
REMARK    2  A    between atoms: C_2  and  C_3
REMARK    3  A    between atoms: C_3  and  C_4
REMARK    4  A    between atoms: C_10  and  C_13
REMARK    5  A    between atoms: N_15  and  N_16
REMARK    6  A    between atoms: N_16  and  C_17
REMARK                            x       y       z     vdW  Elec       q    Type
REMARK                         _______ _______ _______ _____ _____    ______ ____
ROOT
ATOM      1  C   UNL     1       0.989  -6.094  -3.801  0.00  0.00    +0.234 C 
ATOM      2  O   UNL     1       1.394  -6.718  -2.842  0.00  0.00    -0.274 OA
ATOM      3  N   UNL     1       0.559  -6.748  -4.898  0.00  0.00    -0.236 N 
ATOM      4  H   UNL     1       0.235  -6.250  -5.664  0.00  0.00    +0.173 HD
ENDROOT
BRANCH   1  11
ATOM      5  C   UNL     1       1.009  -1.889  -1.489  0.00  0.00    +0.216 C 
ATOM      6  O   UNL     1       0.401  -2.429  -0.589  0.00  0.00    -0.276 OA
ATOM      7  N   UNL     1       1.597  -2.634  -2.446  0.00  0.00    -0.301 N 
ATOM      8  C   UNL     1       2.342  -1.995  -3.539  0.00  0.00    +0.108 C 
ATOM      9  C   UNL     1       1.793  -2.506  -4.875  0.00  0.00    +0.020 C 
ATOM     10  C   UNL     1       1.843  -4.036  -4.890  0.00  0.00    +0.016 C 
ATOM     11  C   UNL     1       0.965  -4.588  -3.764  0.00  0.00    +0.094 C 
ATOM     12  C   UNL     1       1.510  -4.100  -2.413  0.00  0.00    +0.120 C 
BRANCH   5  13
ATOM     13  C   UNL     1       1.107  -0.386  -1.537  0.00  0.00    +0.096 C 
BRANCH  13  15
ATOM     14  C   UNL     1       0.460   1.738  -0.392  0.00  0.00    +0.004 C 
ATOM     15  C   UNL     1       0.360   0.212  -0.343  0.00  0.00    +0.006 C 
ENDBRANCH  13  15
ENDBRANCH   5  13
ENDBRANCH   1  11
BRANCH   3  16
ATOM     16  N   UNL     1       0.581  -8.149  -4.932  0.00  0.00    -0.262 N 
ATOM     17  H   UNL     1       0.981  -8.645  -4.200  0.00  0.00    +0.170 HD
BRANCH  16  18
ATOM     18  C   UNL     1       0.027  -8.831  -6.020  0.00  0.00    +0.081 A 
ATOM     19  C   UNL     1       0.610 -10.008  -6.474  0.00  0.00    +0.066 A 
ATOM     20  C   UNL     1       0.060 -10.679  -7.550  0.00  0.00    +0.042 A 
ATOM     21  C   UNL     1      -1.070 -10.180  -8.175  0.00  0.00    +0.044 A 
ATOM     22  C   UNL     1      -1.652  -9.008  -7.725  0.00  0.00    +0.042 A 
ATOM     23  C   UNL     1      -1.110  -8.336  -6.646  0.00  0.00    +0.066 A 
ATOM     24 CL   UNL     1      -1.846  -6.870  -6.078  0.00  0.00    -0.081 Cl
ATOM     25 CL   UNL     1      -1.757 -11.026  -9.526  0.00  0.00    -0.083 Cl
ATOM     26 CL   UNL     1       2.027 -10.634  -5.691  0.00  0.00    -0.081 Cl
ENDBRANCH  16  18
ENDBRANCH   3  16
TORSDOF 5
