REMARK  Name = ZINC13564710
REMARK  8 active torsions:
REMARK  status: ('A' for Active; 'I' for Inactive)
REMARK    1  A    between atoms: C_1  and  O_2
REMARK    2  A    between atoms: O_2  and  C_3
REMARK    3  A    between atoms: C_6  and  C_9
REMARK    4  A    between atoms: C_12  and  C_26
REMARK    5  A    between atoms: N_18  and  C_20
REMARK    6  A    between atoms: C_26  and  N_27
REMARK    7  A    between atoms: N_27  and  C_28
REMARK    8  A    between atoms: C_28  and  C_29
REMARK                            x       y       z     vdW  Elec       q    Type
REMARK                         _______ _______ _______ _____ _____    ______ ____
ROOT
ATOM      1  C   UNL     1      -4.962  -2.619   0.034  0.00  0.00    +0.102 A 
ATOM      2  C   UNL     1      -5.285  -3.882  -0.637  0.00  0.00    +0.045 A 
ATOM      3  C   UNL     1      -4.544  -4.777  -1.435  0.00  0.00    +0.020 A 
ATOM      4  C   UNL     1      -5.156  -5.892  -1.919  0.00  0.00    +0.001 A 
ATOM      5  C   UNL     1      -6.508  -6.136  -1.621  0.00  0.00    +0.252 A 
ATOM      6  O   UNL     1      -7.050  -7.138  -2.058  0.00  0.00    -0.268 OA
ATOM      7  N   UNL     1      -7.213  -5.279  -0.858  0.00  0.00    -0.307 N 
ATOM      8  H   UNL     1      -8.145  -5.464  -0.662  0.00  0.00    +0.170 HD
ATOM      9  C   UNL     1      -6.626  -4.148  -0.356  0.00  0.00    +0.145 A 
ATOM     10  N   UNL     1      -7.083  -3.133   0.422  0.00  0.00    -0.215 N 
ATOM     11  N   UNL     1      -6.050  -2.218   0.650  0.00  0.00    -0.164 NA
ENDROOT
BRANCH   1  15
ATOM     12  C   UNL     1      -1.200  -0.637   0.010  0.00  0.00    +0.120 A 
ATOM     13  C   UNL     1      -2.374   0.104   0.019  0.00  0.00    +0.046 A 
ATOM     14  C   UNL     1      -3.595  -0.535   0.027  0.00  0.00    +0.013 A 
ATOM     15  C   UNL     1      -3.651  -1.929   0.026  0.00  0.00    +0.003 A 
ATOM     16  C   UNL     1      -2.470  -2.671   0.016  0.00  0.00    +0.013 A 
ATOM     17  C   UNL     1      -1.252  -2.025   0.003  0.00  0.00    +0.046 A 
BRANCH  12  19
ATOM     18  C   UNL     1      -0.017   1.425   0.010  0.00  0.00    +0.277 C 
ATOM     19  O   UNL     1       0.002  -0.004   0.002  0.00  0.00    -0.495 OA
ENDBRANCH  12  19
ENDBRANCH   1  15
BRANCH  10  20
ATOM     20  C   UNL     1      -8.386  -3.021   0.922  0.00  0.00    +0.068 A 
ATOM     21  C   UNL     1      -9.462  -3.469   0.167  0.00  0.00    +0.028 A 
ATOM     22  C   UNL     1     -10.746  -3.358   0.663  0.00  0.00    +0.002 A 
ATOM     23  C   UNL     1     -10.961  -2.802   1.911  0.00  0.00    +0.000 A 
ATOM     24  C   UNL     1      -9.892  -2.355   2.665  0.00  0.00    +0.002 A 
ATOM     25  C   UNL     1      -8.605  -2.469   2.177  0.00  0.00    +0.028 A 
ENDBRANCH  10  20
BRANCH   4  26
ATOM     26  C   UNL     1      -4.385  -6.864  -2.775  0.00  0.00    -0.041 C 
BRANCH  26  27
ATOM     27  N   UNL     1      -3.857  -7.946  -1.933  0.00  0.00    +0.384 N 
ATOM     28  H   UNL     1      -3.246  -7.558  -1.231  0.00  0.00    -0.085 HD
ATOM     29  H   UNL     1      -4.623  -8.427  -1.484  0.00  0.00    -0.085 HD
BRANCH  27  30
ATOM     30  C   UNL     1      -3.106  -8.894  -2.767  0.00  0.00    -0.046 C 
BRANCH  30  31
ATOM     31  C   UNL     1      -2.565 -10.004  -1.903  0.00  0.00    -0.064 A 
ATOM     32  C   UNL     1      -1.319  -9.879  -1.319  0.00  0.00    +0.002 A 
ATOM     33  C   UNL     1      -0.822 -10.897  -0.526  0.00  0.00    +0.000 A 
ATOM     34  C   UNL     1      -1.572 -12.040  -0.319  0.00  0.00    +0.000 A 
ATOM     35  C   UNL     1      -2.819 -12.164  -0.903  0.00  0.00    +0.000 A 
ATOM     36  C   UNL     1      -3.317 -11.144  -1.692  0.00  0.00    +0.002 A 
ENDBRANCH  30  31
ENDBRANCH  27  30
ENDBRANCH  26  27
ENDBRANCH   4  26
TORSDOF 7
