REMARK  Name = ZINC19520591
REMARK  9 active torsions:
REMARK  status: ('A' for Active; 'I' for Inactive)
REMARK    1  A    between atoms: C_1  and  C_2
REMARK    2  A    between atoms: C_2  and  C_3
REMARK    3  A    between atoms: C_6  and  C_28
REMARK    4  A    between atoms: C_11  and  C_13
REMARK    5  A    between atoms: N_15  and  C_16
REMARK    6  A    between atoms: C_16  and  C_17
REMARK    7  A    between atoms: C_17  and  C_19
REMARK    8  A    between atoms: C_17  and  N_20
REMARK    9  A    between atoms: C_23  and  C_26
REMARK                            x       y       z     vdW  Elec       q    Type
REMARK                         _______ _______ _______ _____ _____    ______ ____
ROOT
ATOM      1  C   UNL     1       0.742  -0.511   1.242  0.00  0.00    +0.074 C 
ATOM      2  C   UNL     1       0.874  -2.036   1.174  0.00  0.00    +0.058 C 
ATOM      3  C   UNL     1       1.675  -2.545   2.379  0.00  0.00    +0.214 C 
ATOM      4  N   UNL     1       1.110  -1.967   3.602  0.00  0.00    -0.238 N 
ATOM      5  C   UNL     1       0.317  -0.854   3.618  0.00  0.00    +0.119 A 
ATOM      6  C   UNL     1      -0.027  -0.603   4.896  0.00  0.00    +0.078 A 
ATOM      7  C   UNL     1       0.575  -1.595   5.703  0.00  0.00    +0.149 A 
ATOM      8  N   UNL     1       1.256  -2.409   4.916  0.00  0.00    -0.164 NA
ATOM      9  N   UNL     1      -0.023  -0.159   2.454  0.00  0.00    -0.326 N 
ATOM     10  H   UNL     1      -0.807   0.611   2.405  0.00  0.00    +0.148 HD
ENDROOT
BRANCH   7  11
ATOM     11  C   UNL     1       0.462  -1.704   7.172  0.00  0.00    +0.264 C 
ATOM     12  O   UNL     1      -0.197  -0.892   7.793  0.00  0.00    -0.268 OA
ATOM     13  N   UNL     1       1.089  -2.703   7.824  0.00  0.00    -0.312 N 
ATOM     14  H   UNL     1       1.684  -3.437   7.263  0.00  0.00    +0.149 HD
BRANCH  13  15
ATOM     15  C   UNL     1       0.977  -2.810   9.281  0.00  0.00    +0.089 C 
BRANCH  15  16
ATOM     16  C   UNL     1       1.776  -4.021   9.766  0.00  0.00    -0.054 C 
ATOM     17  C   UNL     1       1.559  -4.207  11.269  0.00  0.00    -0.012 C 
BRANCH  16  18
ATOM     18  N   UNL     1       1.324  -5.224   9.053  0.00  0.00    +0.382 N 
ATOM     19  C   UNL     1      -0.098  -5.484   9.310  0.00  0.00    -0.078 C 
ATOM     20  C   UNL     1      -0.569  -6.653   8.442  0.00  0.00    -0.016 C 
ATOM     21  C   UNL     1       0.264  -7.895   8.770  0.00  0.00    -0.018 C 
ATOM     22  C   UNL     1       1.745  -7.582   8.540  0.00  0.00    -0.016 C 
ATOM     23  C   UNL     1       2.149  -6.386   9.406  0.00  0.00    -0.078 C 
ATOM     24  C   UNL     1      -0.161  -9.051   7.862  0.00  0.00    +0.007 C 
ATOM     25  H   UNL     1       1.442  -5.044   7.975  0.00  0.00    -0.081 HD
ENDBRANCH  16  18
ENDBRANCH  15  16
ENDBRANCH  13  15
ENDBRANCH   7  11
BRANCH   3  26
ATOM     26  C   UNL     1       1.587  -4.071   2.445  0.00  0.00    +0.412 C 
ATOM     27  F   UNL     1       2.114  -4.620   1.271  0.00  0.00    -0.168 F 
ATOM     28  F   UNL     1       2.318  -4.532   3.545  0.00  0.00    -0.168 F 
ATOM     29  F   UNL     1       0.249  -4.455   2.580  0.00  0.00    -0.168 F 
ENDBRANCH   3  26
BRANCH   1  31
ATOM     30  C   UNL     1      -0.019   1.526   0.010  0.00  0.00    +0.006 C 
ATOM     31  C   UNL     1       0.002  -0.004   0.002  0.00  0.00    +0.019 C 
ENDBRANCH   1  31
TORSDOF 6
