REMARK  Name = ZINC08727725
REMARK  8 active torsions:
REMARK  status: ('A' for Active; 'I' for Inactive)
REMARK    1  A    between atoms: C_1  and  O_2
REMARK    2  A    between atoms: O_2  and  C_3
REMARK    3  A    between atoms: C_6  and  C_9
REMARK    4  A    between atoms: C_9  and  C_11
REMARK    5  A    between atoms: C_9  and  C_29
REMARK    6  A    between atoms: C_11  and  N_12
REMARK    7  A    between atoms: C_13  and  C_15
REMARK    8  A    between atoms: C_15  and  N_16
REMARK                            x       y       z     vdW  Elec       q    Type
REMARK                         _______ _______ _______ _____ _____    ______ ____
ROOT
ATOM      1  C   UNL     1      -3.315   1.327   1.274  0.00  0.00    +0.117 C 
ENDROOT
BRANCH   1   2
ATOM      2  N   UNL     1      -4.515   0.489   1.336  0.00  0.00    -0.313 N 
ATOM      3  C   UNL     1      -5.378   0.623   2.363  0.00  0.00    +0.231 C 
ATOM      4  O   UNL     1      -5.161   1.438   3.235  0.00  0.00    -0.274 OA
ATOM      5  H   UNL     1      -4.689  -0.162   0.638  0.00  0.00    +0.149 HD
BRANCH   3   6
ATOM      6  C   UNL     1      -6.613  -0.239   2.427  0.00  0.00    +0.213 C 
BRANCH   6   7
ATOM      7  N   UNL     1      -7.381   0.097   3.628  0.00  0.00    -0.215 N 
ATOM      8  C   UNL     1      -8.343   1.038   3.673  0.00  0.00    +0.247 C 
ATOM      9  O   UNL     1      -8.720   1.741   2.760  0.00  0.00    -0.273 OA
ATOM     10  C   UNL     1      -8.859   1.036   5.101  0.00  0.00    +0.113 C 
ATOM     11  C   UNL     1     -10.322   0.540   5.077  0.00  0.00    +0.035 C 
ATOM     12  C   UNL     1     -10.665  -0.025   6.428  0.00  0.00    +0.003 C 
ATOM     13  C   UNL     1     -11.332   1.011   7.353  0.00  0.00    +0.000 C 
ATOM     14  C   UNL     1     -10.670   2.400   7.272  0.00  0.00    +0.000 C 
ATOM     15  C   UNL     1      -9.168   2.315   7.222  0.00  0.00    +0.003 C 
ATOM     16  C   UNL     1      -8.728   2.337   5.746  0.00  0.00    +0.035 C 
ATOM     17  N   UNL     1      -8.041  -0.006   5.755  0.00  0.00    -0.285 N 
ATOM     18  C   UNL     1      -7.216  -0.498   4.815  0.00  0.00    +0.310 C 
ATOM     19  O   UNL     1      -6.408  -1.382   5.021  0.00  0.00    -0.252 OA
ATOM     20  H   UNL     1      -8.092  -0.284   6.683  0.00  0.00    +0.151 HD
ENDBRANCH   6   7
ENDBRANCH   3   6
ENDBRANCH   1   2
BRANCH   1  21
ATOM     21  C   UNL     1      -2.513   0.977   0.019  0.00  0.00    +0.068 C 
BRANCH  21  22
ATOM     22  C   UNL     1      -3.314   1.336  -1.206  0.00  0.00    -0.013 A 
ATOM     23  C   UNL     1      -3.767   2.557  -1.534  0.00  0.00    +0.088 A 
ATOM     24  N   UNL     1      -4.451   2.498  -2.718  0.00  0.00    -0.360 N 
ATOM     25  H   UNL     1      -4.868   3.254  -3.159  0.00  0.00    +0.165 HD
ATOM     26  C   UNL     1      -4.464   1.203  -3.187  0.00  0.00    +0.047 A 
ATOM     27  C   UNL     1      -3.752   0.419  -2.261  0.00  0.00    +0.003 A 
ATOM     28  C   UNL     1      -3.601  -0.951  -2.479  0.00  0.00    +0.010 A 
ATOM     29  C   UNL     1      -4.146  -1.525  -3.594  0.00  0.00    +0.001 A 
ATOM     30  C   UNL     1      -4.849  -0.756  -4.510  0.00  0.00    +0.002 A 
ATOM     31  C   UNL     1      -5.010   0.599  -4.314  0.00  0.00    +0.026 A 
ENDBRANCH  21  22
BRANCH  21  35
ATOM     32  C   UNL     1       1.155   3.169   0.008  0.00  0.00    +0.120 A 
ATOM     33  C   UNL     1       1.175   1.782   0.000  0.00  0.00    +0.046 A 
ATOM     34  C   UNL     1      -0.013   1.076   0.008  0.00  0.00    +0.008 A 
ATOM     35  C   UNL     1      -1.220   1.750   0.017  0.00  0.00    -0.038 A 
ATOM     36  C   UNL     1      -1.242   3.133   0.031  0.00  0.00    +0.008 A 
ATOM     37  C   UNL     1      -0.057   3.844   0.023  0.00  0.00    +0.046 A 
BRANCH  32  39
ATOM     38  C   UNL     1       2.225   5.292   0.009  0.00  0.00    +0.277 C 
ATOM     39  O   UNL     1       2.322   3.866   0.000  0.00  0.00    -0.495 OA
ENDBRANCH  32  39
ENDBRANCH  21  35
ENDBRANCH   1  21
TORSDOF 7
