REMARK  Name = ZINC14944951
REMARK  13 active torsions:
REMARK  status: ('A' for Active; 'I' for Inactive)
REMARK    1  A    between atoms: C_1  and  C_2
REMARK    2  A    between atoms: C_2  and  N_3
REMARK    3  A    between atoms: N_3  and  C_4
REMARK    4  A    between atoms: N_3  and  C_6
REMARK    5  A    between atoms: C_4  and  C_5
REMARK    6  A    between atoms: C_9  and  C_12
REMARK    7  A    between atoms: C_20  and  O_21
REMARK    8  A    between atoms: C_23  and  C_36
REMARK    9  A    between atoms: C_23  and  O_37
REMARK   10  A    between atoms: C_24  and  C_26
REMARK   11  A    between atoms: C_26  and  O_28
REMARK   12  A    between atoms: O_28  and  C_29
REMARK   13  A    between atoms: C_29  and  C_30
REMARK                            x       y       z     vdW  Elec       q    Type
REMARK                         _______ _______ _______ _____ _____    ______ ____
ROOT
ATOM      1  C   UNL     1      -0.117  -6.138  -1.717  0.00  0.00    +0.072 C 
ATOM      2  C   UNL     1       0.580  -6.631  -2.960  0.00  0.00    +0.044 A 
ATOM      3  C   UNL     1       0.031  -7.498  -3.848  0.00  0.00    +0.046 A 
ATOM      4  N   UNL     1       0.927  -7.712  -4.825  0.00  0.00    -0.278 N 
ATOM      5  H   UNL     1       0.804  -8.288  -5.596  0.00  0.00    +0.189 HD
ATOM      6  N   UNL     1       2.072  -6.954  -4.535  0.00  0.00    -0.136 NA
ATOM      7  C   UNL     1       1.861  -6.305  -3.413  0.00  0.00    +0.235 A 
ATOM      8  C   UNL     1      -1.350  -8.090  -3.708  0.00  0.00    +0.090 C 
ATOM      9  C   UNL     1      -1.818  -7.891  -2.262  0.00  0.00    +0.082 C 
ATOM     10  C   UNL     1      -1.616  -6.429  -1.854  0.00  0.00    +0.141 C 
ATOM     11  C   UNL     1      -1.003  -8.794  -1.334  0.00  0.00    +0.042 C 
ENDROOT
BRANCH   1  15
ATOM     12  C   UNL     1       0.501  -1.932  -1.297  0.00  0.00    +0.013 A 
ATOM     13  C   UNL     1       0.924  -2.795  -0.304  0.00  0.00    +0.022 A 
ATOM     14  C   UNL     1       0.724  -4.156  -0.440  0.00  0.00    +0.006 A 
ATOM     15  C   UNL     1       0.101  -4.654  -1.568  0.00  0.00    -0.039 A 
ATOM     16  C   UNL     1      -0.324  -3.790  -2.561  0.00  0.00    +0.006 A 
ATOM     17  C   UNL     1      -0.128  -2.429  -2.424  0.00  0.00    +0.022 A 
BRANCH  12  18
ATOM     18  N   UNL     1       0.703  -0.555  -1.160  0.00  0.00    -0.394 NA
ATOM     19  H   UNL     1       0.332  -0.078  -1.968  0.00  0.00    +0.126 HD
BRANCH  18  21
ATOM     20  C   UNL     1      -1.495  -0.229  -0.130  0.00  0.00    +0.022 C 
ATOM     21  C   UNL     1       0.017  -0.078   0.048  0.00  0.00    +0.081 C 
ENDBRANCH  18  21
BRANCH  18  22
ATOM     22  C   UNL     1       2.142  -0.280  -1.047  0.00  0.00    +0.081 C 
ATOM     23  C   UNL     1       2.837  -0.660  -2.356  0.00  0.00    +0.022 C 
ENDBRANCH  18  22
ENDBRANCH  12  18
ENDBRANCH   1  15
BRANCH   7  25
ATOM     24  H   UNL     1       3.323  -5.899  -2.167  0.00  0.00    +0.294 HD
ATOM     25  O   UNL     1       2.736  -5.463  -2.800  0.00  0.00    -0.491 OA
ENDBRANCH   7  25
BRANCH  10  26
ATOM     26  C   UNL     1      -2.300  -6.176  -0.535  0.00  0.00    +0.314 C 
ATOM     27  O   UNL     1      -1.656  -5.801   0.417  0.00  0.00    -0.250 OA
BRANCH  26  28
ATOM     28  O   UNL     1      -3.623  -6.366  -0.417  0.00  0.00    -0.460 OA
BRANCH  28  29
ATOM     29  C   UNL     1      -4.205  -6.107   0.862  0.00  0.00    +0.267 C 
BRANCH  29  30
ATOM     30  C   UNL     1      -5.687  -6.373   0.803  0.00  0.00    -0.010 A 
ATOM     31  C   UNL     1      -6.558  -5.359   0.453  0.00  0.00    +0.007 A 
ATOM     32  C   UNL     1      -7.918  -5.604   0.399  0.00  0.00    +0.000 A 
ATOM     33  C   UNL     1      -8.406  -6.863   0.695  0.00  0.00    +0.000 A 
ATOM     34  C   UNL     1      -7.534  -7.877   1.045  0.00  0.00    +0.000 A 
ATOM     35  C   UNL     1      -6.174  -7.634   1.095  0.00  0.00    +0.007 A 
ENDBRANCH  29  30
ENDBRANCH  28  29
ENDBRANCH  26  28
ENDBRANCH  10  26
BRANCH   9  36
ATOM     36  O   UNL     1      -3.203  -8.227  -2.158  0.00  0.00    -0.388 OA
ATOM     37  H   UNL     1      -3.404  -9.141  -2.400  0.00  0.00    +0.210 HD
ENDBRANCH   9  36
TORSDOF 10
