REMARK  Name = ZINC14457557
REMARK  7 active torsions:
REMARK  status: ('A' for Active; 'I' for Inactive)
REMARK    1  A    between atoms: C_1  and  C_2
REMARK    2  A    between atoms: C_2  and  N_3
REMARK    3  A    between atoms: C_4  and  C_6
REMARK    4  A    between atoms: C_19  and  C_22
REMARK    5  A    between atoms: C_25  and  O_29
REMARK    6  A    between atoms: C_26  and  O_28
REMARK    7  A    between atoms: O_29  and  C_30
REMARK                            x       y       z     vdW  Elec       q    Type
REMARK                         _______ _______ _______ _____ _____    ______ ____
ROOT
ATOM      1  C   UNL     1       8.500   3.960   0.844  0.00  0.00    +0.037 A 
ATOM      2  C   UNL     1       7.879   5.154   1.221  0.00  0.00    +0.015 A 
ATOM      3  C   UNL     1       6.596   5.137   1.712  0.00  0.00    +0.024 A 
ATOM      4  C   UNL     1       5.902   3.935   1.839  0.00  0.00    +0.031 A 
ATOM      5  C   UNL     1       6.521   2.739   1.446  0.00  0.00    -0.019 A 
ATOM      6  C   UNL     1       7.807   2.752   0.963  0.00  0.00    +0.019 A 
ATOM      7  C   UNL     1       5.730   1.494   1.555  0.00  0.00    +0.049 C 
ATOM      8  C   UNL     1       6.371   0.168   1.750  0.00  0.00    -0.023 C 
ATOM      9  C   UNL     1       5.549  -0.601   2.454  0.00  0.00    -0.030 C 
ATOM     10  C   UNL     1       4.285   0.180   2.818  0.00  0.00    +0.033 C 
ATOM     11  C   UNL     1       4.819   1.615   2.813  0.00  0.00    +0.029 C 
ATOM     12  C   UNL     1       3.817   2.706   2.483  0.00  0.00    +0.105 C 
ATOM     13  N   UNL     1       4.608   3.949   2.355  0.00  0.00    -0.336 N 
ATOM     14  H   UNL     1       4.218   4.792   2.637  0.00  0.00    +0.147 HD
ENDROOT
BRANCH  12  15
ATOM     15  C   UNL     1       3.120   2.397   1.183  0.00  0.00    -0.023 A 
ATOM     16  C   UNL     1       3.648   2.859  -0.009  0.00  0.00    +0.009 A 
ATOM     17  C   UNL     1       3.013   2.578  -1.204  0.00  0.00    +0.050 A 
ATOM     18  C   UNL     1       1.845   1.832  -1.210  0.00  0.00    +0.161 A 
ATOM     19  C   UNL     1       1.314   1.367  -0.011  0.00  0.00    +0.159 A 
ATOM     20  C   UNL     1       1.953   1.657   1.185  0.00  0.00    +0.054 A 
BRANCH  19  21
ATOM     21  O   UNL     1       0.168   0.635  -0.011  0.00  0.00    -0.503 OA
ATOM     22  H   UNL     1       0.311  -0.318  -0.089  0.00  0.00    +0.292 HD
ENDBRANCH  19  21
BRANCH  18  23
ATOM     23  O   UNL     1       1.218   1.556  -2.385  0.00  0.00    -0.491 OA
ATOM     24  C   UNL     1       1.820   2.066  -3.577  0.00  0.00    +0.277 C 
ENDBRANCH  18  23
ENDBRANCH  12  15
BRANCH   1  26
ATOM     25  N   UNL     1      10.546   5.140   0.210  0.00  0.00    -0.312 N 
ATOM     26  C   UNL     1       9.881   3.974   0.324  0.00  0.00    +0.244 C 
ATOM     27  O   UNL     1      10.418   2.933  -0.003  0.00  0.00    -0.270 OA
ATOM     28  H   UNL     1      10.118   5.971   0.471  0.00  0.00    +0.149 HD
BRANCH  25  30
ATOM     29  C   UNL     1      12.438   6.593  -0.332  0.00  0.00    +0.024 C 
ATOM     30  C   UNL     1      11.917   5.154  -0.306  0.00  0.00    +0.101 C 
ENDBRANCH  25  30
ENDBRANCH   1  26
TORSDOF 5
