REMARK  Name = ZINC64093783
REMARK  6 active torsions:
REMARK  status: ('A' for Active; 'I' for Inactive)
REMARK    1  A    between atoms: C_7  and  C_10
REMARK    2  A    between atoms: C_10  and  C_11
REMARK    3  A    between atoms: C_11  and  N_12
REMARK    4  A    between atoms: C_13  and  C_15
REMARK    5  A    between atoms: N_21  and  C_24
REMARK    6  A    between atoms: C_24  and  C_25
REMARK                            x       y       z     vdW  Elec       q    Type
REMARK                         _______ _______ _______ _____ _____    ______ ____
ROOT
ATOM      1  C   UNL     1      -1.619  -6.743  -2.433  0.00  0.00    +0.082 C 
ATOM      2  C   UNL     1      -3.008  -6.324  -2.920  0.00  0.00    +0.020 C 
ATOM      3  C   UNL     1      -2.078  -7.111  -3.842  0.00  0.00    -0.021 C 
ATOM      4  C   UNL     1      -1.438  -6.367  -5.019  0.00  0.00    -0.011 C 
ATOM      5  C   UNL     1      -0.265  -7.202  -5.545  0.00  0.00    -0.078 C 
ATOM      6  N   UNL     1      -0.740  -8.543  -5.907  0.00  0.00    +0.380 N 
ATOM      7  C   UNL     1      -1.181  -9.265  -4.708  0.00  0.00    -0.078 C 
ATOM      8  C   UNL     1      -2.420  -8.578  -4.123  0.00  0.00    -0.011 C 
ATOM      9  H   UNL     1      -1.512  -8.461  -6.551  0.00  0.00    -0.082 HD
ENDROOT
BRANCH   1  11
ATOM     10  N   UNL     1       0.734  -5.982  -2.381  0.00  0.00    -0.315 N 
ATOM     11  C   UNL     1      -0.573  -5.666  -2.300  0.00  0.00    +0.217 C 
ATOM     12  O   UNL     1      -0.909  -4.514  -2.120  0.00  0.00    -0.275 OA
ATOM     13  H   UNL     1       1.002  -6.903  -2.525  0.00  0.00    +0.149 HD
BRANCH  10  14
ATOM     14  C   UNL     1       1.750  -4.935  -2.252  0.00  0.00    +0.108 C 
BRANCH  14  15
ATOM     15  C   UNL     1       3.143  -5.556  -2.381  0.00  0.00    +0.052 C 
BRANCH  15  22
ATOM     16  C   UNL     1       5.591  -4.035   1.190  0.00  0.00    +0.001 A 
ATOM     17  C   UNL     1       6.470  -2.993   0.865  0.00  0.00    +0.002 A 
ATOM     18  C   UNL     1       6.579  -2.493  -0.384  0.00  0.00    +0.026 A 
ATOM     19  C   UNL     1       5.784  -3.018  -1.440  0.00  0.00    +0.043 A 
ATOM     20  N   UNL     1       5.707  -2.709  -2.711  0.00  0.00    -0.380 N 
ATOM     21  C   UNL     1       4.711  -3.580  -3.345  0.00  0.00    +0.144 C 
ATOM     22  C   UNL     1       4.188  -4.479  -2.248  0.00  0.00    -0.040 C 
ATOM     23  C   UNL     1       4.847  -4.120  -1.123  0.00  0.00    -0.001 A 
ATOM     24  C   UNL     1       4.791  -4.606   0.261  0.00  0.00    +0.010 A 
ATOM     25  H   UNL     1       6.223  -2.019  -3.158  0.00  0.00    +0.160 HD
ENDBRANCH  15  22
ENDBRANCH  14  15
ENDBRANCH  10  14
ENDBRANCH   1  11
BRANCH   6  26
ATOM     26  C   UNL     1       0.350  -9.288  -6.551  0.00  0.00    -0.064 C 
BRANCH  26  27
ATOM     27  C   UNL     1       0.696  -8.631  -7.888  0.00  0.00    +0.081 C 
ATOM     28  C   UNL     1       1.870  -9.371  -8.546  0.00  0.00    +0.238 C 
ATOM     29  O   UNL     1       1.498 -10.729  -8.784  0.00  0.00    -0.491 OA
ATOM     30  C   UNL     1       0.354 -10.981  -9.461  0.00  0.00    +0.131 A 
ATOM     31  C   UNL     1       0.185 -12.196 -10.112  0.00  0.00    +0.048 A 
ATOM     32  C   UNL     1      -0.984 -12.458 -10.797  0.00  0.00    +0.023 A 
ATOM     33  C   UNL     1      -2.002 -11.517 -10.847  0.00  0.00    +0.042 A 
ATOM     34  C   UNL     1      -1.854 -10.302 -10.210  0.00  0.00    +0.035 A 
ATOM     35  C   UNL     1      -0.675 -10.027  -9.516  0.00  0.00    +0.061 A 
ATOM     36  C   UNL     1      -0.486  -8.731  -8.835  0.00  0.00    +0.171 C 
ATOM     37  O   UNL     1      -1.235  -7.795  -9.023  0.00  0.00    -0.292 OA
ATOM     38 CL   UNL     1      -3.465 -11.868 -11.713  0.00  0.00    -0.084 Cl
ENDBRANCH  26  27
ENDBRANCH   6  26
TORSDOF 6
