REMARK  Name = ZINC20751449
REMARK  7 active torsions:
REMARK  status: ('A' for Active; 'I' for Inactive)
REMARK    1  A    between atoms: C_1  and  C_2
REMARK    2  A    between atoms: C_2  and  N_3
REMARK    3  A    between atoms: N_3  and  C_4
REMARK    4  A    between atoms: N_3  and  S_10
REMARK    5  A    between atoms: S_10  and  C_13
REMARK    6  A    between atoms: C_26  and  C_29
REMARK    7  A    between atoms: C_38  and  O_39
REMARK                            x       y       z     vdW  Elec       q    Type
REMARK                         _______ _______ _______ _____ _____    ______ ____
ROOT
ATOM      1  C   UNL     1       7.510  -0.125  -1.042  0.00  0.00    +0.109 A 
ATOM      2  C   UNL     1       7.061  -0.620  -2.253  0.00  0.00    +0.030 A 
ATOM      3  C   UNL     1       5.798  -1.171  -2.341  0.00  0.00    +0.025 A 
ATOM      4  C   UNL     1       4.984  -1.226  -1.216  0.00  0.00    +0.031 A 
ATOM      5  C   UNL     1       5.431  -0.732  -0.000  0.00  0.00    -0.018 A 
ATOM      6  C   UNL     1       6.703  -0.180   0.075  0.00  0.00    +0.034 A 
ATOM      7  C   UNL     1       4.592  -0.772   1.238  0.00  0.00    +0.049 C 
ATOM      8  C   UNL     1       4.043   0.593   1.575  0.00  0.00    -0.023 C 
ATOM      9  C   UNL     1       2.832   0.487   2.066  0.00  0.00    -0.030 C 
ATOM     10  C   UNL     1       2.410  -0.969   2.128  0.00  0.00    +0.033 C 
ATOM     11  C   UNL     1       3.340  -1.659   1.087  0.00  0.00    +0.029 C 
ATOM     12  C   UNL     1       2.714  -1.449  -0.294  0.00  0.00    +0.109 C 
ATOM     13  N   UNL     1       3.706  -1.784  -1.321  0.00  0.00    -0.336 N 
ATOM     14  H   UNL     1       3.436  -2.458  -2.147  0.00  0.00    +0.147 HD
ENDROOT
BRANCH  12  15
ATOM     15  C   UNL     1       2.296  -0.009  -0.445  0.00  0.00    +0.022 A 
ATOM     16  C   UNL     1       1.032   0.410   0.002  0.00  0.00    -0.009 A 
ATOM     17  C   UNL     1       0.133  -0.492   0.596  0.00  0.00    +0.009 A 
ATOM     18  C   UNL     1      -1.086  -0.052   1.012  0.00  0.00    +0.001 A 
ATOM     19  C   UNL     1      -1.454   1.285   0.868  0.00  0.00    +0.001 A 
ATOM     20  C   UNL     1      -0.609   2.186   0.297  0.00  0.00    +0.008 A 
ATOM     21  C   UNL     1       0.656   1.768  -0.150  0.00  0.00    -0.017 A 
ATOM     22  C   UNL     1       1.554   2.672  -0.745  0.00  0.00    +0.012 A 
ATOM     23  C   UNL     1       2.770   2.235  -1.167  0.00  0.00    +0.046 A 
ATOM     24  C   UNL     1       3.144   0.895  -1.018  0.00  0.00    +0.122 A 
BRANCH  24  25
ATOM     25  O   UNL     1       4.366   0.488  -1.450  0.00  0.00    -0.506 OA
ATOM     26  H   UNL     1       5.055   1.210  -1.913  0.00  0.00    +0.292 HD
ENDBRANCH  24  25
ENDBRANCH  12  15
BRANCH   1  27
ATOM     27  S   UNL     1       9.121   0.580  -0.926  0.00  0.00    +0.075 S 
ATOM     28  O   UNL     1       9.472   1.009  -2.235  0.00  0.00    -0.150 OA
ATOM     29  O   UNL     1       9.098   1.466   0.185  0.00  0.00    -0.150 OA
BRANCH  27  30
ATOM     30  N   UNL     1      10.164  -0.644  -0.534  0.00  0.00    -0.203 N 
BRANCH  30  31
ATOM     31  C   UNL     1      10.349  -1.003   0.803  0.00  0.00    +0.051 A 
ATOM     32  C   UNL     1      10.077  -2.300   1.220  0.00  0.00    +0.025 A 
ATOM     33  C   UNL     1      10.265  -2.653   2.542  0.00  0.00    +0.002 A 
ATOM     34  C   UNL     1      10.713  -1.714   3.453  0.00  0.00    +0.000 A 
ATOM     35  C   UNL     1      10.979  -0.420   3.042  0.00  0.00    +0.002 A 
ATOM     36  C   UNL     1      10.799  -0.062   1.721  0.00  0.00    +0.025 A 
ENDBRANCH  30  31
BRANCH  30  38
ATOM     37  C   UNL     1      12.277  -0.721  -1.763  0.00  0.00    +0.026 C 
ATOM     38  C   UNL     1      10.894  -1.351  -1.589  0.00  0.00    +0.128 C 
ENDBRANCH  30  38
ENDBRANCH  27  30
ENDBRANCH   1  27
TORSDOF 6
