REMARK  Name = ZINC14528912
REMARK  8 active torsions:
REMARK  status: ('A' for Active; 'I' for Inactive)
REMARK    1  A    between atoms: C_1  and  C_2
REMARK    2  A    between atoms: C_3  and  C_31
REMARK    3  A    between atoms: N_9  and  C_12
REMARK    4  A    between atoms: C_12  and  C_13
REMARK    5  A    between atoms: C_18  and  C_21
REMARK    6  A    between atoms: C_21  and  N_57
REMARK    7  A    between atoms: C_23  and  C_30
REMARK    8  A    between atoms: C_26  and  C_29
REMARK                            x       y       z     vdW  Elec       q    Type
REMARK                         _______ _______ _______ _____ _____    ______ ____
ROOT
ATOM      1  C   UNL     1      -2.865   0.675   1.440  0.00  0.00    +0.239 C 
ATOM      2  O   UNL     1      -2.193   1.088   2.361  0.00  0.00    -0.273 OA
ATOM      3  N   UNL     1      -3.987  -0.029   1.688  0.00  0.00    -0.263 N 
ATOM      4  C   UNL     1      -4.374  -0.282   2.999  0.00  0.00    +0.165 A 
ATOM      5  N   UNL     1      -5.426  -0.944   3.440  0.00  0.00    -0.231 NA
ATOM      6  C   UNL     1      -5.647  -1.093   4.731  0.00  0.00    +0.034 A 
ATOM      7  C   UNL     1      -4.766  -0.549   5.605  0.00  0.00    +0.070 A 
ATOM      8  S   UNL     1      -3.591   0.186   4.477  0.00  0.00    -0.060 S 
ATOM      9  H   UNL     1      -4.525  -0.359   0.952  0.00  0.00    +0.157 HD
ENDROOT
BRANCH   1  10
ATOM     10  C   UNL     1      -2.446   0.950   0.019  0.00  0.00    +0.222 C 
BRANCH  10  19
ATOM     11  C   UNL     1      -1.038   6.191   0.046  0.00  0.00    +0.045 C 
ATOM     12  C   UNL     1       0.147   5.261   0.029  0.00  0.00    -0.026 A 
ATOM     13  C   UNL     1       1.397   5.753   0.020  0.00  0.00    -0.008 A 
ATOM     14  S   UNL     1       2.416   4.290   0.002  0.00  0.00    -0.073 S 
ATOM     15  C   UNL     1       1.135   3.062   0.008  0.00  0.00    +0.116 A 
ATOM     16  C   UNL     1      -0.048   3.823   0.023  0.00  0.00    +0.075 A 
ATOM     17  C   UNL     1      -1.268   3.071   0.031  0.00  0.00    +0.263 A 
ATOM     18  O   UNL     1      -2.346   3.640   0.044  0.00  0.00    -0.267 OA
ATOM     19  N   UNL     1      -1.204   1.727   0.017  0.00  0.00    -0.290 N 
ATOM     20  C   UNL     1      -0.013   1.076   0.008  0.00  0.00    +0.203 A 
ATOM     21  N   UNL     1       1.116   1.733   0.001  0.00  0.00    -0.230 NA
ATOM     22  C   UNL     1       1.833   7.195   0.024  0.00  0.00    +0.052 C 
ENDBRANCH  10  19
ENDBRANCH   1  10
BRANCH   6  23
ATOM     23  C   UNL     1      -6.853  -1.851   5.224  0.00  0.00    -0.022 C 
BRANCH  23  31
ATOM     24  C   UNL     1      -7.813   0.099   6.289  0.00  0.00    -0.075 C 
ATOM     25  C   UNL     1      -8.966   1.102   6.219  0.00  0.00    -0.031 C 
ATOM     26  C   UNL     1     -10.288   0.370   6.467  0.00  0.00    +0.003 C 
ATOM     27  C   UNL     1     -10.447  -0.746   5.432  0.00  0.00    -0.031 C 
ATOM     28  C   UNL     1      -9.250  -1.695   5.525  0.00  0.00    -0.075 C 
ATOM     29  C   UNL     1     -10.508  -0.137   4.029  0.00  0.00    +0.005 C 
ATOM     30  C   UNL     1      -8.771   2.181   7.286  0.00  0.00    +0.005 C 
ATOM     31  N   UNL     1      -8.012  -0.935   5.252  0.00  0.00    +0.384 N 
ATOM     32  H   UNL     1      -8.097  -0.477   4.337  0.00  0.00    -0.081 HD
ENDBRANCH  23  31
ENDBRANCH   6  23
TORSDOF 4
