REMARK  Name = ZINC34735030
REMARK  10 active torsions:
REMARK  status: ('A' for Active; 'I' for Inactive)
REMARK    1  A    between atoms: C_1  and  C_2
REMARK    2  A    between atoms: C_2  and  N_3
REMARK    3  A    between atoms: N_3  and  C_4
REMARK    4  A    between atoms: C_4  and  C_5
REMARK    5  A    between atoms: C_6  and  C_8
REMARK    6  A    between atoms: C_8  and  N_9
REMARK    7  A    between atoms: C_24  and  C_26
REMARK    8  A    between atoms: C_24  and  C_27
REMARK    9  A    between atoms: N_30  and  C_31
REMARK   10  A    between atoms: C_31  and  C_32
REMARK                            x       y       z     vdW  Elec       q    Type
REMARK                         _______ _______ _______ _____ _____    ______ ____
ROOT
ATOM      1  N   UNL     1      -3.161  -0.748   4.094  0.00  0.00    +0.387 N 
ATOM      2  C   UNL     1      -3.328  -0.309   5.485  0.00  0.00    -0.059 C 
ATOM      3  C   UNL     1      -4.447  -1.122   6.146  0.00  0.00    +0.089 C 
ATOM      4  N   UNL     1      -5.659  -1.002   5.321  0.00  0.00    -0.304 N 
ATOM      5  C   UNL     1      -5.546  -1.266   3.878  0.00  0.00    +0.089 C 
ATOM      6  C   UNL     1      -4.375  -0.446   3.325  0.00  0.00    -0.059 C 
ATOM      7  C   UNL     1      -6.863  -0.653   5.883  0.00  0.00    +0.202 A 
ATOM      8  N   UNL     1      -6.929   0.394   6.679  0.00  0.00    -0.208 NA
ATOM      9  C   UNL     1      -8.079   0.753   7.236  0.00  0.00    +0.118 A 
ATOM     10  C   UNL     1      -9.273   0.046   7.009  0.00  0.00    +0.076 A 
ATOM     11  C   UNL     1     -10.457   0.563   7.692  0.00  0.00    -0.018 A 
ATOM     12  C   UNL     1     -10.292   1.657   8.467  0.00  0.00    +0.021 A 
ATOM     13  S   UNL     1      -8.574   2.059   8.334  0.00  0.00    -0.071 S 
ATOM     14  C   UNL     1     -11.358   2.354   9.254  0.00  0.00    +0.203 C 
ATOM     15  O   UNL     1     -12.632   1.864   8.803  0.00  0.00    -0.368 OA
ATOM     16  C   UNL     1     -12.701   0.438   8.729  0.00  0.00    +0.068 C 
ATOM     17  C   UNL     1     -11.840  -0.072   7.569  0.00  0.00    +0.071 C 
ATOM     18  C   UNL     1     -12.192  -0.164  10.041  0.00  0.00    +0.041 C 
ATOM     19  C   UNL     1     -14.153   0.011   8.509  0.00  0.00    +0.041 C 
ATOM     20  C   UNL     1      -9.170  -1.085   6.139  0.00  0.00    +0.264 A 
ATOM     21  O   UNL     1     -10.153  -1.759   5.883  0.00  0.00    -0.267 OA
ATOM     22  N   UNL     1      -7.974  -1.392   5.604  0.00  0.00    -0.276 N 
ATOM     23  H   UNL     1      -2.992  -1.743   4.076  0.00  0.00    -0.081 HD
ENDROOT
BRANCH   1  24
ATOM     24  C   UNL     1      -2.018  -0.047   3.495  0.00  0.00    +0.019 C 
BRANCH  24  26
ATOM     25  N   UNL     1       0.431   0.069   3.825  0.00  0.00    -0.304 N 
ATOM     26  C   UNL     1      -0.752  -0.452   4.206  0.00  0.00    +0.199 C 
ATOM     27  O   UNL     1      -0.798  -1.246   5.122  0.00  0.00    -0.278 OA
BRANCH  25  29
ATOM     28  C   UNL     1       1.913   0.624   5.690  0.00  0.00    +0.024 C 
ATOM     29  C   UNL     1       1.662  -0.325   4.516  0.00  0.00    +0.104 C 
ENDBRANCH  25  29
BRANCH  25  30
ATOM     30  C   UNL     1       0.487   1.028   2.719  0.00  0.00    +0.104 C 
ATOM     31  C   UNL     1       0.684   0.276   1.401  0.00  0.00    +0.024 C 
ENDBRANCH  25  30
ENDBRANCH  24  26
ENDBRANCH   1  24
BRANCH  22  32
ATOM     32  C   UNL     1      -7.863  -2.546   4.708  0.00  0.00    +0.163 C 
BRANCH  32  33
ATOM     33  C   UNL     1      -7.571  -3.784   5.517  0.00  0.00    -0.028 A 
ATOM     34  C   UNL     1      -6.266  -4.205   5.688  0.00  0.00    +0.005 A 
ATOM     35  C   UNL     1      -5.998  -5.341   6.430  0.00  0.00    +0.000 A 
ATOM     36  C   UNL     1      -7.036  -6.054   7.001  0.00  0.00    +0.000 A 
ATOM     37  C   UNL     1      -8.341  -5.632   6.830  0.00  0.00    +0.000 A 
ATOM     38  C   UNL     1      -8.608  -4.494   6.091  0.00  0.00    +0.005 A 
ENDBRANCH  32  33
ENDBRANCH  22  32
TORSDOF 6
