REMARK  Name = ZINC08791260
REMARK  5 active torsions:
REMARK  status: ('A' for Active; 'I' for Inactive)
REMARK    1  A    between atoms: C_4  and  C_7
REMARK    2  A    between atoms: C_7  and  C_8
REMARK    3  A    between atoms: C_8  and  N_9
REMARK    4  A    between atoms: C_14  and  C_31
REMARK    5  A    between atoms: C_31  and  C_32
REMARK                            x       y       z     vdW  Elec       q    Type
REMARK                         _______ _______ _______ _____ _____    ______ ____
ROOT
ATOM      1  N   UNL     1       1.301  -5.151  -1.349  0.00  0.00    -0.241 N 
ATOM      2  C   UNL     1       2.532  -4.963  -0.861  0.00  0.00    +0.224 C 
ATOM      3  O   UNL     1       3.308  -5.844  -0.557  0.00  0.00    -0.275 OA
ATOM      4  C   UNL     1       2.807  -3.481  -0.747  0.00  0.00    +0.073 C 
ATOM      5  C   UNL     1       2.896  -3.091   0.744  0.00  0.00    -0.053 C 
ATOM      6  C   UNL     1       0.907  -2.129  -0.017  0.00  0.00    +0.050 C 
ATOM      7  C   UNL     1       1.488  -2.831  -1.251  0.00  0.00    +0.088 C 
ATOM      8  C   UNL     1       0.628  -4.024  -1.607  0.00  0.00    +0.225 C 
ATOM      9  O   UNL     1      -0.497  -3.967  -2.055  0.00  0.00    -0.275 OA
ATOM     10  C   UNL     1       1.228  -0.662  -0.014  0.00  0.00    -0.026 A 
ATOM     11  C   UNL     1       2.407   0.051  -0.022  0.00  0.00    +0.024 A 
ATOM     12  C   UNL     1       2.380   1.435  -0.014  0.00  0.00    +0.041 A 
ATOM     13  C   UNL     1       1.165   2.099   0.002  0.00  0.00    +0.022 A 
ATOM     14  C   UNL     1      -0.017   1.389   0.010  0.00  0.00    +0.025 A 
ATOM     15  C   UNL     1       0.002  -0.004   0.002  0.00  0.00    +0.036 A 
ATOM     16  N   UNL     1      -1.043  -0.931   0.008  0.00  0.00    -0.286 N 
ATOM     17  C   UNL     1      -0.595  -2.201  -0.001  0.00  0.00    +0.211 C 
ATOM     18  O   UNL     1      -1.272  -3.208   0.003  0.00  0.00    -0.277 OA
ATOM     19 CL   UNL     1       3.864   2.335  -0.024  0.00  0.00    -0.084 Cl
ATOM     20  H   UNL     1      -1.982  -0.688   0.018  0.00  0.00    +0.155 HD
ATOM     21  N   UNL     1       1.509  -2.806   1.119  0.00  0.00    +0.394 N 
ATOM     22  H   UNL     1       1.483  -2.200   1.947  0.00  0.00    -0.083 HD
ATOM     23  H   UNL     1       1.008  -3.679   1.318  0.00  0.00    -0.083 HD
ENDROOT
BRANCH   1  24
ATOM     24  C   UNL     1       0.735  -6.482  -1.581  0.00  0.00    +0.121 C 
BRANCH  24  25
ATOM     25  C   UNL     1       0.009  -6.954  -0.320  0.00  0.00    +0.054 C 
BRANCH  25  29
ATOM     26  C   UNL     1      -1.641 -10.836  -0.996  0.00  0.00    +0.000 A 
ATOM     27  C   UNL     1      -0.360 -10.708  -0.490  0.00  0.00    +0.000 A 
ATOM     28  C   UNL     1       0.173  -9.451  -0.271  0.00  0.00    +0.004 A 
ATOM     29  C   UNL     1      -0.573  -8.324  -0.558  0.00  0.00    -0.046 A 
ATOM     30  C   UNL     1      -1.855  -8.453  -1.059  0.00  0.00    +0.004 A 
ATOM     31  C   UNL     1      -2.387  -9.709  -1.282  0.00  0.00    +0.000 A 
ENDBRANCH  25  29
ENDBRANCH  24  25
ENDBRANCH   1  24
BRANCH   5  32
ATOM     32  C   UNL     1       3.468  -4.249   1.563  0.00  0.00    +0.020 C 
BRANCH  32  33
ATOM     33  C   UNL     1       3.590  -3.832   3.006  0.00  0.00    -0.049 A 
ATOM     34  C   UNL     1       4.757  -3.245   3.460  0.00  0.00    +0.003 A 
ATOM     35  C   UNL     1       4.867  -2.858   4.782  0.00  0.00    +0.000 A 
ATOM     36  C   UNL     1       3.814  -3.067   5.653  0.00  0.00    +0.000 A 
ATOM     37  C   UNL     1       2.650  -3.658   5.201  0.00  0.00    +0.000 A 
ATOM     38  C   UNL     1       2.538  -4.040   3.877  0.00  0.00    +0.003 A 
ENDBRANCH  32  33
ENDBRANCH   5  32
TORSDOF 5
