REMARK  Name = ZINC39867308
REMARK  8 active torsions:
REMARK  status: ('A' for Active; 'I' for Inactive)
REMARK    1  A    between atoms: C_1  and  C_2
REMARK    2  A    between atoms: C_7  and  C_28
REMARK    3  A    between atoms: C_9  and  C_12
REMARK    4  A    between atoms: C_12  and  C_13
REMARK    5  A    between atoms: C_13  and  C_14
REMARK    6  A    between atoms: C_14  and  C_15
REMARK    7  A    between atoms: N_17  and  N_18
REMARK    8  A    between atoms: C_19  and  C_21
REMARK                            x       y       z     vdW  Elec       q    Type
REMARK                         _______ _______ _______ _____ _____    ______ ____
ROOT
ATOM      1  C   UNL     1      -0.013   1.086   0.008  0.00  0.00    +0.044 C 
ATOM      2  C   UNL     1      -0.742   1.585  -1.213  0.00  0.00    -0.050 A 
ATOM      3  C   UNL     1      -2.113   1.796  -1.158  0.00  0.00    +0.005 A 
ATOM      4  C   UNL     1      -2.799   2.252  -2.262  0.00  0.00    +0.026 A 
ATOM      5  C   UNL     1      -2.114   2.505  -3.446  0.00  0.00    +0.047 A 
ATOM      6  N   UNL     1      -2.508   2.954  -4.686  0.00  0.00    -0.353 N 
ATOM      7  C   UNL     1      -1.417   3.033  -5.522  0.00  0.00    +0.069 A 
ATOM      8  H   UNL     1      -3.418   3.182  -4.934  0.00  0.00    +0.166 HD
ATOM      9  C   UNL     1      -0.303   2.641  -4.853  0.00  0.00    -0.013 A 
ATOM     10  C   UNL     1      -0.723   2.291  -3.497  0.00  0.00    +0.004 A 
ATOM     11  C   UNL     1      -0.047   1.832  -2.363  0.00  0.00    +0.013 A 
ENDROOT
BRANCH   7  12
ATOM     12  C   UNL     1      -1.452   3.474  -6.931  0.00  0.00    +0.088 A 
ATOM     13  C   UNL     1      -2.649   3.354  -7.659  0.00  0.00    +0.030 A 
ATOM     14  C   UNL     1      -2.695   3.759  -8.959  0.00  0.00    +0.012 A 
ATOM     15  C   UNL     1      -1.523   4.290  -9.536  0.00  0.00    +0.000 A 
ATOM     16  C   UNL     1      -1.502   4.726 -10.870  0.00  0.00    +0.010 A 
ATOM     17  C   UNL     1      -0.353   5.235 -11.395  0.00  0.00    +0.001 A 
ATOM     18  C   UNL     1       0.804   5.329 -10.624  0.00  0.00    +0.002 A 
ATOM     19  C   UNL     1       0.820   4.916  -9.328  0.00  0.00    +0.028 A 
ATOM     20  C   UNL     1      -0.348   4.386  -8.750  0.00  0.00    +0.072 A 
ATOM     21  N   UNL     1      -0.361   3.978  -7.478  0.00  0.00    -0.245 NA
ENDBRANCH   7  12
BRANCH   9  22
ATOM     22  C   UNL     1       1.099   2.579  -5.402  0.00  0.00    +0.038 C 
BRANCH  22  23
ATOM     23  C   UNL     1       1.798   3.919  -5.165  0.00  0.00    +0.014 C 
BRANCH  23  24
ATOM     24  C   UNL     1       3.222   3.856  -5.723  0.00  0.00    +0.097 C 
BRANCH  24  25
ATOM     25  C   UNL     1       3.911   5.176  -5.489  0.00  0.00    +0.229 C 
ATOM     26  O   UNL     1       3.322   6.078  -4.932  0.00  0.00    -0.274 OA
ATOM     27  N   UNL     1       5.183   5.354  -5.900  0.00  0.00    -0.234 N 
ATOM     28  H   UNL     1       5.654   4.633  -6.346  0.00  0.00    +0.173 HD
BRANCH  27  29
ATOM     29  N   UNL     1       5.823   6.581  -5.684  0.00  0.00    -0.230 N 
ATOM     30  C   UNL     1       7.095   6.759  -6.094  0.00  0.00    +0.260 C 
ATOM     31  O   UNL     1       7.685   5.855  -6.653  0.00  0.00    -0.269 OA
ATOM     32  H   UNL     1       5.352   7.302  -5.238  0.00  0.00    +0.173 HD
BRANCH  30  33
ATOM     33  C   UNL     1       7.771   8.053  -5.866  0.00  0.00    +0.038 A 
ATOM     34  C   UNL     1       7.097   9.091  -5.220  0.00  0.00    +0.014 A 
ATOM     35  C   UNL     1       7.733  10.296  -5.009  0.00  0.00    +0.021 A 
ATOM     36  C   UNL     1       9.037  10.478  -5.438  0.00  0.00    +0.041 A 
ATOM     37  C   UNL     1       9.711   9.452  -6.080  0.00  0.00    +0.021 A 
ATOM     38  C   UNL     1       9.087   8.240  -6.290  0.00  0.00    +0.014 A 
ATOM     39 CL   UNL     1       9.831  11.999  -5.170  0.00  0.00    -0.084 Cl
ENDBRANCH  30  33
ENDBRANCH  27  29
ENDBRANCH  24  25
ENDBRANCH  23  24
ENDBRANCH  22  23
ENDBRANCH   9  22
TORSDOF 7
