REMARK  Name = ZINC49309199
REMARK  12 active torsions:
REMARK  status: ('A' for Active; 'I' for Inactive)
REMARK    1  A    between atoms: C_1  and  C_2
REMARK    2  A    between atoms: C_2  and  C_4
REMARK    3  A    between atoms: C_2  and  N_23
REMARK    4  A    between atoms: C_4  and  C_5
REMARK    5  A    between atoms: C_10  and  O_11
REMARK    6  A    between atoms: O_11  and  C_12
REMARK    7  A    between atoms: C_12  and  C_13
REMARK    8  A    between atoms: N_15  and  C_16
REMARK    9  A    between atoms: C_16  and  C_18
REMARK   10  A    between atoms: C_16  and  C_19
REMARK   11  A    between atoms: C_19  and  C_20
REMARK   12  A    between atoms: C_19  and  C_21
REMARK                            x       y       z     vdW  Elec       q    Type
REMARK                         _______ _______ _______ _____ _____    ______ ____
ROOT
ATOM      1  C   UNL     1       0.657  -2.014   1.298  0.00  0.00    -0.006 A 
ATOM      2  C   UNL     1      -0.337  -2.623   2.041  0.00  0.00    +0.007 A 
ATOM      3  C   UNL     1      -0.416  -4.002   2.093  0.00  0.00    +0.002 A 
ATOM      4  C   UNL     1       0.498  -4.777   1.402  0.00  0.00    +0.019 A 
ATOM      5  C   UNL     1       1.493  -4.173   0.657  0.00  0.00    +0.060 A 
ATOM      6  C   UNL     1       1.571  -2.788   0.599  0.00  0.00    +0.138 A 
ATOM      7 BR   UNL     1       2.743  -5.232  -0.288  0.00  0.00    -0.047 Br
ENDROOT
BRANCH   1   8
ATOM      8  C   UNL     1       0.742  -0.511   1.242  0.00  0.00    +0.022 C 
BRANCH   8  10
ATOM      9  C   UNL     1      -0.019   1.526   0.010  0.00  0.00    -0.014 C 
ATOM     10  C   UNL     1       0.002  -0.004   0.002  0.00  0.00    -0.074 C 
BRANCH  10  11
ATOM     11  N   UNL     1       0.690  -0.478  -1.207  0.00  0.00    +0.380 N 
ATOM     12  H   UNL     1       1.636  -0.129  -1.214  0.00  0.00    -0.090 HD
ATOM     13  H   UNL     1       0.703  -1.487  -1.212  0.00  0.00    -0.090 HD
ATOM     14  H   UNL     1       0.202  -0.144  -2.024  0.00  0.00    -0.090 HD
ENDBRANCH  10  11
ENDBRANCH   8  10
ENDBRANCH   1   8
BRANCH   6  15
ATOM     15  O   UNL     1       2.546  -2.191  -0.137  0.00  0.00    -0.481 OA
BRANCH  15  16
ATOM     16  C   UNL     1       3.781  -1.912   0.526  0.00  0.00    +0.324 C 
BRANCH  16  17
ATOM     17  C   UNL     1       4.732  -1.256  -0.441  0.00  0.00    +0.251 C 
ATOM     18  O   UNL     1       4.387  -1.047  -1.585  0.00  0.00    -0.272 OA
ATOM     19  N   UNL     1       5.967  -0.900  -0.034  0.00  0.00    -0.310 N 
ATOM     20  H   UNL     1       6.243  -1.067   0.881  0.00  0.00    +0.149 HD
BRANCH  19  21
ATOM     21  C   UNL     1       6.892  -0.262  -0.974  0.00  0.00    +0.073 C 
ATOM     22  C   UNL     1       6.628   1.245  -1.005  0.00  0.00    +0.028 C 
BRANCH  21  23
ATOM     23  C   UNL     1       8.332  -0.518  -0.525  0.00  0.00    +0.003 C 
ATOM     24  C   UNL     1       8.596  -2.025  -0.493  0.00  0.00    +0.009 C 
ATOM     25  C   UNL     1       9.299   0.149  -1.506  0.00  0.00    +0.009 C 
ENDBRANCH  21  23
ENDBRANCH  19  21
ENDBRANCH  16  17
ENDBRANCH  15  16
ENDBRANCH   6  15
TORSDOF 8
