REMARK  Name = ZINC11553740
REMARK  9 active torsions:
REMARK  status: ('A' for Active; 'I' for Inactive)
REMARK    1  A    between atoms: C_1  and  C_2
REMARK    2  A    between atoms: C_5  and  N_8
REMARK    3  A    between atoms: C_9  and  C_35
REMARK    4  A    between atoms: C_10  and  C_26
REMARK    5  A    between atoms: C_11  and  C_16
REMARK    6  A    between atoms: C_21  and  C_22
REMARK    7  A    between atoms: C_22  and  O_24
REMARK    8  A    between atoms: O_24  and  C_25
REMARK    9  A    between atoms: C_31  and  C_34
REMARK                            x       y       z     vdW  Elec       q    Type
REMARK                         _______ _______ _______ _____ _____    ______ ____
ROOT
ATOM      1  N   UNL     1       1.414  -2.122   0.212  0.00  0.00    -0.255 N 
ATOM      2  C   UNL     1       2.604  -2.754  -0.016  0.00  0.00    +0.025 C 
ATOM      3  C   UNL     1       2.645  -4.059  -0.360  0.00  0.00    +0.056 C 
ATOM      4  C   UNL     1       1.327  -4.794  -0.498  0.00  0.00    +0.140 C 
ATOM      5  N   UNL     1       0.101  -4.021  -0.237  0.00  0.00    -0.315 N 
ATOM      6  C   UNL     1       0.222  -2.723   0.105  0.00  0.00    +0.142 C 
ATOM      7  S   UNL     1      -1.195  -1.812   0.410  0.00  0.00    -0.018 S 
ATOM      8  C   UNL     1       3.892  -1.984   0.126  0.00  0.00    +0.062 C 
ATOM      9  H   UNL     1      -0.772  -4.436  -0.308  0.00  0.00    +0.149 HD
ENDROOT
BRANCH   3  10
ATOM     10  C   UNL     1       3.877  -4.717  -0.591  0.00  0.00    +0.249 C 
ATOM     11  O   UNL     1       4.916  -4.082  -0.591  0.00  0.00    -0.270 OA
ATOM     12  N   UNL     1       3.901  -6.046  -0.811  0.00  0.00    -0.264 N 
ATOM     13  C   UNL     1       5.120  -6.712  -0.932  0.00  0.00    +0.168 A 
ATOM     14  C   UNL     1       6.414  -6.164  -0.725  0.00  0.00    +0.091 A 
ATOM     15  C   UNL     1       7.249  -7.201  -0.964  0.00  0.00    +0.136 A 
ATOM     16  O   UNL     1       6.476  -8.250  -1.281  0.00  0.00    -0.358 OA
ATOM     17  N   UNL     1       5.301  -7.966  -1.254  0.00  0.00    -0.063 NA
ATOM     18  C   UNL     1       8.754  -7.181  -0.889  0.00  0.00    +0.089 C 
ATOM     19  H   UNL     1       3.069  -6.541  -0.884  0.00  0.00    +0.157 HD
ENDBRANCH   3  10
BRANCH   1  24
ATOM     20  C   UNL     1       1.531   3.361   1.671  0.00  0.00    +0.044 C 
ATOM     21  C   UNL     1       1.500   1.905   1.283  0.00  0.00    -0.050 A 
ATOM     22  C   UNL     1       1.653   0.929   2.252  0.00  0.00    +0.005 A 
ATOM     23  C   UNL     1       1.625  -0.406   1.900  0.00  0.00    +0.024 A 
ATOM     24  C   UNL     1       1.442  -0.769   0.572  0.00  0.00    +0.040 A 
ATOM     25  C   UNL     1       1.288   0.213  -0.398  0.00  0.00    +0.024 A 
ATOM     26  C   UNL     1       1.317   1.546  -0.040  0.00  0.00    +0.005 A 
ENDBRANCH   1  24
BRANCH   4  27
ATOM     27  C   UNL     1       1.243  -5.337  -1.901  0.00  0.00    -0.009 A 
ATOM     28  C   UNL     1       1.975  -4.752  -2.914  0.00  0.00    +0.006 A 
ATOM     29  C   UNL     1       1.903  -5.254  -4.201  0.00  0.00    +0.000 A 
ATOM     30  C   UNL     1       1.090  -6.337  -4.485  0.00  0.00    +0.001 A 
ATOM     31  C   UNL     1       0.349  -6.928  -3.483  0.00  0.00    +0.015 A 
ATOM     32  C   UNL     1       0.421  -6.431  -2.180  0.00  0.00    +0.064 A 
BRANCH  32  33
ATOM     33  C   UNL     1      -0.370  -7.059  -1.101  0.00  0.00    +0.339 C 
ATOM     34  O   UNL     1      -0.372  -6.573   0.012  0.00  0.00    -0.245 OA
BRANCH  33  35
ATOM     35  O   UNL     1      -1.088  -8.170  -1.353  0.00  0.00    -0.464 OA
ATOM     36  C   UNL     1      -1.749  -8.797  -0.222  0.00  0.00    +0.280 C 
ENDBRANCH  33  35
ENDBRANCH  32  33
ENDBRANCH   4  27
TORSDOF 5
