REMARK  Name = ZINC18068245
REMARK  6 active torsions:
REMARK  status: ('A' for Active; 'I' for Inactive)
REMARK    1  A    between atoms: C_1  and  O_2
REMARK    2  A    between atoms: O_2  and  C_3
REMARK    3  A    between atoms: C_5  and  C_10
REMARK    4  A    between atoms: C_8  and  O_9
REMARK    5  A    between atoms: N_18  and  C_21
REMARK    6  A    between atoms: N_32  and  C_33
REMARK                            x       y       z     vdW  Elec       q    Type
REMARK                         _______ _______ _______ _____ _____    ______ ____
ROOT
ATOM      1  C   UNL     1       2.403   0.379  -4.230  0.00  0.00    +0.157 C 
ATOM      2  C   UNL     1       1.485   0.415  -5.475  0.00  0.00    +0.145 C 
ATOM      3  C   UNL     1       2.080  -0.689  -6.391  0.00  0.00    +0.249 C 
ATOM      4  C   UNL     1       2.629   0.089  -7.566  0.00  0.00    +0.259 C 
ATOM      5  O   UNL     1       3.194  -0.394  -8.523  0.00  0.00    -0.272 OA
ATOM      6  N   UNL     1       2.393   1.393  -7.383  0.00  0.00    -0.207 N 
ATOM      7  C   UNL     1       1.740   1.698  -6.234  0.00  0.00    +0.235 C 
ATOM      8  O   UNL     1       1.413   2.806  -5.866  0.00  0.00    -0.274 OA
ATOM      9  O   UNL     1       3.159  -1.276  -5.643  0.00  0.00    -0.257 OA
ATOM     10  N   UNL     1       3.639  -0.258  -4.745  0.00  0.00    -0.244 N 
ENDROOT
BRANCH   6  11
ATOM     11  C   UNL     1       2.782   2.369  -8.308  0.00  0.00    +0.052 A 
ATOM     12  C   UNL     1       1.927   2.747  -9.320  0.00  0.00    +0.024 A 
ATOM     13  C   UNL     1       2.304   3.717 -10.245  0.00  0.00    +0.002 A 
ATOM     14  C   UNL     1       3.524   4.318 -10.175  0.00  0.00    +0.008 A 
ATOM     15  C   UNL     1       4.425   3.961  -9.158  0.00  0.00    -0.016 A 
ATOM     16  C   UNL     1       4.050   2.978  -8.208  0.00  0.00    +0.004 A 
ATOM     17  C   UNL     1       4.949   2.627  -7.189  0.00  0.00    +0.010 A 
ATOM     18  C   UNL     1       6.165   3.236  -7.122  0.00  0.00    +0.001 A 
ATOM     19  C   UNL     1       6.532   4.206  -8.053  0.00  0.00    +0.001 A 
ATOM     20  C   UNL     1       5.691   4.564  -9.061  0.00  0.00    +0.008 A 
ENDBRANCH   6  11
BRANCH   1  23
ATOM     21  C   UNL     1       0.606  -0.608  -1.056  0.00  0.00    +0.162 A 
ATOM     22  C   UNL     1       1.173   0.159  -2.062  0.00  0.00    +0.055 A 
ATOM     23  C   UNL     1       1.787  -0.456  -3.137  0.00  0.00    -0.018 A 
ATOM     24  C   UNL     1       1.837  -1.836  -3.212  0.00  0.00    +0.009 A 
ATOM     25  C   UNL     1       1.273  -2.606  -2.212  0.00  0.00    +0.049 A 
ATOM     26  C   UNL     1       0.662  -1.996  -1.129  0.00  0.00    +0.158 A 
BRANCH  21  28
ATOM     27  C   UNL     1      -0.017   1.425   0.010  0.00  0.00    +0.277 C 
ATOM     28  O   UNL     1       0.002  -0.004   0.002  0.00  0.00    -0.491 OA
ENDBRANCH  21  28
BRANCH  26  29
ATOM     29  O   UNL     1       0.112  -2.753  -0.142  0.00  0.00    -0.503 OA
ATOM     30  H   UNL     1      -0.816  -2.979  -0.291  0.00  0.00    +0.292 HD
ENDBRANCH  26  29
ENDBRANCH   1  23
BRANCH  10  31
ATOM     31  C   UNL     1       4.961   0.057  -4.424  0.00  0.00    +0.065 A 
ATOM     32  C   UNL     1       5.234   1.073  -3.517  0.00  0.00    +0.028 A 
ATOM     33  C   UNL     1       6.542   1.382  -3.201  0.00  0.00    +0.002 A 
ATOM     34  C   UNL     1       7.580   0.681  -3.786  0.00  0.00    +0.000 A 
ATOM     35  C   UNL     1       7.312  -0.332  -4.689  0.00  0.00    +0.002 A 
ATOM     36  C   UNL     1       6.006  -0.649  -5.006  0.00  0.00    +0.028 A 
ENDBRANCH  10  31
TORSDOF 5
