REMARK  Name = ZINC00678643
REMARK  10 active torsions:
REMARK  status: ('A' for Active; 'I' for Inactive)
REMARK    1  A    between atoms: C_1  and  C_2
REMARK    2  A    between atoms: C_3  and  C_32
REMARK    3  A    between atoms: C_4  and  C_25
REMARK    4  A    between atoms: C_10  and  C_15
REMARK    5  A    between atoms: C_18  and  O_23
REMARK    6  A    between atoms: C_19  and  O_21
REMARK    7  A    between atoms: O_21  and  C_22
REMARK    8  A    between atoms: O_23  and  C_24
REMARK    9  A    between atoms: C_32  and  O_34
REMARK   10  A    between atoms: O_34  and  C_35
REMARK                            x       y       z     vdW  Elec       q    Type
REMARK                         _______ _______ _______ _____ _____    ______ ____
ROOT
ATOM      1  C   UNL     1      -9.644  -3.223  -3.811  0.00  0.00    +0.061 C 
ATOM      2  C   UNL     1      -9.022  -3.356  -2.445  0.00  0.00    +0.016 C 
ATOM      3  C   UNL     1      -9.796  -3.642  -1.384  0.00  0.00    +0.065 C 
ATOM      4  C   UNL     1      -9.211  -3.791  -0.010  0.00  0.00    +0.092 C 
ATOM      5  C   UNL     1      -7.838  -3.172   0.063  0.00  0.00    +0.024 C 
ATOM      6  C   UNL     1      -7.142  -2.903  -1.062  0.00  0.00    +0.016 C 
ATOM      7  N   UNL     1      -7.674  -3.185  -2.292  0.00  0.00    -0.321 N 
ATOM      8  C   UNL     1      -5.767  -2.285  -1.000  0.00  0.00    +0.059 C 
ATOM      9  C   UNL     1      -5.068  -2.716   0.291  0.00  0.00    +0.032 C 
ATOM     10  C   UNL     1      -5.931  -2.288   1.482  0.00  0.00    +0.088 C 
ATOM     11  C   UNL     1      -7.303  -2.888   1.332  0.00  0.00    +0.162 C 
ATOM     12  O   UNL     1      -7.961  -3.130   2.324  0.00  0.00    -0.292 OA
ATOM     13  H   UNL     1      -7.007  -3.275  -3.162  0.00  0.00    +0.152 HD
ENDROOT
BRANCH   4  14
ATOM     14  C   UNL     1      -9.113  -5.256   0.330  0.00  0.00    -0.034 A 
ATOM     15  C   UNL     1      -8.328  -6.093  -0.441  0.00  0.00    +0.004 A 
ATOM     16  C   UNL     1      -8.234  -7.436  -0.127  0.00  0.00    +0.002 A 
ATOM     17  C   UNL     1      -8.932  -7.944   0.953  0.00  0.00    +0.020 A 
ATOM     18  C   UNL     1      -9.722  -7.108   1.721  0.00  0.00    +0.041 A 
ATOM     19  C   UNL     1      -9.812  -5.763   1.409  0.00  0.00    +0.024 A 
ATOM     20 CL   UNL     1     -10.599  -7.745   3.077  0.00  0.00    -0.084 Cl
ENDBRANCH   4  14
BRANCH   9  21
ATOM     21  C   UNL     1      -3.717  -2.054   0.381  0.00  0.00    -0.040 A 
ATOM     22  C   UNL     1      -3.625  -0.674   0.389  0.00  0.00    +0.008 A 
ATOM     23  C   UNL     1      -2.389  -0.062   0.477  0.00  0.00    +0.049 A 
ATOM     24  C   UNL     1      -1.238  -0.830   0.546  0.00  0.00    +0.161 A 
ATOM     25  C   UNL     1      -1.331  -2.219   0.538  0.00  0.00    +0.162 A 
ATOM     26  C   UNL     1      -2.574  -2.826   0.455  0.00  0.00    +0.053 A 
BRANCH  25  27
ATOM     27  O   UNL     1      -0.205  -2.978   0.610  0.00  0.00    -0.491 OA
ATOM     28  C   UNL     1      -0.377  -4.396   0.596  0.00  0.00    +0.277 C 
ENDBRANCH  25  27
BRANCH  24  29
ATOM     29  O   UNL     1      -0.021  -0.229   0.627  0.00  0.00    -0.491 OA
ATOM     30  C   UNL     1      -0.002   1.199   0.631  0.00  0.00    +0.277 C 
ENDBRANCH  24  29
ENDBRANCH   9  21
BRANCH   3  31
ATOM     31  C   UNL     1     -11.190  -3.807  -1.565  0.00  0.00    +0.338 C 
ATOM     32  O   UNL     1     -11.691  -3.587  -2.652  0.00  0.00    -0.245 OA
BRANCH  31  33
ATOM     33  O   UNL     1     -11.962  -4.207  -0.534  0.00  0.00    -0.458 OA
BRANCH  33  34
ATOM     34  C   UNL     1     -13.361  -4.352  -0.789  0.00  0.00    +0.177 C 
ATOM     35  C   UNL     1     -14.100  -3.045  -0.438  0.00  0.00    +0.044 C 
ATOM     36  C   UNL     1     -15.444  -3.520   0.168  0.00  0.00    +0.004 C 
ATOM     37  C   UNL     1     -15.028  -4.768   0.986  0.00  0.00    +0.004 C 
ATOM     38  C   UNL     1     -13.950  -5.448   0.116  0.00  0.00    +0.044 C 
ENDBRANCH  33  34
ENDBRANCH  31  33
ENDBRANCH   3  31
TORSDOF 7
