REMARK  Name = ZINC59369336
REMARK  5 active torsions:
REMARK  status: ('A' for Active; 'I' for Inactive)
REMARK    1  A    between atoms: C_1  and  C_2
REMARK    2  A    between atoms: C_2  and  C_3
REMARK    3  A    between atoms: C_3  and  C_14
REMARK    4  A    between atoms: N_9  and  C_12
REMARK    5  A    between atoms: C_12  and  C_13
REMARK                            x       y       z     vdW  Elec       q    Type
REMARK                         _______ _______ _______ _____ _____    ______ ____
ROOT
ATOM      1  C   UNL     1       0.718  -0.497  -1.257  0.00  0.00    +0.144 C 
ATOM      2  C   UNL     1       2.178  -0.096  -1.157  0.00  0.00    +0.240 C 
ATOM      3  O   UNL     1       2.868  -0.460  -0.230  0.00  0.00    -0.274 OA
ATOM      4  N   UNL     1       2.679   0.681  -2.140  0.00  0.00    -0.239 N 
ATOM      5  C   UNL     1       1.931   1.091  -3.171  0.00  0.00    +0.315 C 
ATOM      6  O   UNL     1       2.464   1.788  -4.011  0.00  0.00    -0.252 OA
ATOM      7  N   UNL     1       0.639   0.789  -3.344  0.00  0.00    -0.225 N 
ATOM      8  C   UNL     1      -0.039   0.021  -2.465  0.00  0.00    +0.242 C 
ATOM      9  O   UNL     1      -1.210  -0.244  -2.634  0.00  0.00    -0.274 OA
ATOM     10  H   UNL     1       3.610   0.951  -2.098  0.00  0.00    +0.159 HD
ENDROOT
BRANCH   1  11
ATOM     11  C   UNL     1       0.650  -2.003  -1.272  0.00  0.00    -0.050 C 
ATOM     12  C   UNL     1       0.038  -2.592  -0.295  0.00  0.00    -0.026 C 
ATOM     13  C   UNL     1      -0.102  -4.081  -0.167  0.00  0.00    +0.027 C 
ATOM     14  C   UNL     1       0.182  -4.755  -1.511  0.00  0.00    +0.004 C 
ATOM     15  C   UNL     1       1.501  -4.199  -2.063  0.00  0.00    +0.005 C 
ATOM     16  C   UNL     1       1.290  -2.725  -2.421  0.00  0.00    +0.032 C 
ENDBRANCH   1  11
BRANCH   1  18
ATOM     17  C   UNL     1      -0.019   1.526   0.010  0.00  0.00    +0.005 C 
ATOM     18  C   UNL     1       0.002  -0.004   0.002  0.00  0.00    +0.026 C 
ENDBRANCH   1  18
BRANCH   7  19
ATOM     19  C   UNL     1      -0.061   1.308  -4.521  0.00  0.00    +0.114 C 
ATOM     20  C   UNL     1       0.070   0.310  -5.673  0.00  0.00    +0.025 C 
ENDBRANCH   7  19
TORSDOF 3
