REMARK  Name = ZINC11897691
REMARK  11 active torsions:
REMARK  status: ('A' for Active; 'I' for Inactive)
REMARK    1  A    between atoms: C_1  and  C_2
REMARK    2  A    between atoms: C_2  and  C_3
REMARK    3  A    between atoms: C_2  and  C_4
REMARK    4  A    between atoms: C_2  and  C_5
REMARK    5  A    between atoms: C_8  and  S_11
REMARK    6  A    between atoms: S_11  and  N_14
REMARK    7  A    between atoms: N_14  and  C_15
REMARK    8  A    between atoms: C_15  and  C_16
REMARK    9  A    between atoms: C_16  and  C_18
REMARK   10  A    between atoms: C_16  and  N_64
REMARK   11  A    between atoms: N_22  and  C_23
REMARK                            x       y       z     vdW  Elec       q    Type
REMARK                         _______ _______ _______ _____ _____    ______ ____
ROOT
ATOM      1  C   UNL     1      -2.172  -0.391  -1.079  0.00  0.00    +0.096 C 
ENDROOT
BRANCH   1   2
ATOM      2  N   UNL     1      -1.522  -0.463  -2.390  0.00  0.00    -0.191 NA
ATOM      3  H   UNL     1      -0.570  -0.641  -2.450  0.00  0.00    +0.148 HD
BRANCH   2   4
ATOM      4  S   UNL     1      -2.411  -0.240  -3.769  0.00  0.00    +0.058 S 
ATOM      5  O   UNL     1      -1.504  -0.341  -4.858  0.00  0.00    -0.153 OA
ATOM      6  O   UNL     1      -3.558  -1.071  -3.652  0.00  0.00    -0.153 OA
BRANCH   4  10
ATOM      7  C   UNL     1      -3.904   4.034  -3.723  0.00  0.00    -0.042 A 
ATOM      8  C   UNL     1      -2.689   3.732  -4.309  0.00  0.00    +0.006 A 
ATOM      9  C   UNL     1      -2.233   2.427  -4.323  0.00  0.00    +0.029 A 
ATOM     10  C   UNL     1      -2.992   1.424  -3.751  0.00  0.00    +0.105 A 
ATOM     11  C   UNL     1      -4.210   1.724  -3.169  0.00  0.00    +0.029 A 
ATOM     12  C   UNL     1      -4.663   3.030  -3.151  0.00  0.00    +0.006 A 
BRANCH   7  14
ATOM     13  C   UNL     1      -4.548   5.961  -5.144  0.00  0.00    +0.015 C 
ATOM     14  C   UNL     1      -4.401   5.456  -3.707  0.00  0.00    -0.013 C 
ATOM     15  C   UNL     1      -5.759   5.514  -3.004  0.00  0.00    +0.015 C 
ATOM     16  C   UNL     1      -3.400   6.338  -2.957  0.00  0.00    +0.015 C 
ENDBRANCH   7  14
ENDBRANCH   4  10
ENDBRANCH   2   4
ENDBRANCH   1   2
BRANCH   1  17
ATOM     17  C   UNL     1      -1.253  -1.002  -0.020  0.00  0.00    -0.005 C 
BRANCH  17  24
ATOM     18  C   UNL     1      -2.052  -3.098  -0.956  0.00  0.00    -0.078 C 
ATOM     19  C   UNL     1      -1.792  -4.570  -1.125  0.00  0.00    -0.019 C 
ATOM     20  C   UNL     1      -2.270  -5.300   0.148  0.00  0.00    -0.002 C 
ATOM     21  C   UNL     1      -1.315  -5.176   1.245  0.00  0.00    -0.002 C 
ATOM     22  C   UNL     1      -1.096  -3.707   1.662  0.00  0.00    -0.019 C 
ATOM     23  C   UNL     1      -0.166  -3.063   0.670  0.00  0.00    -0.078 C 
ATOM     24  N   UNL     1      -0.849  -2.347  -0.460  0.00  0.00    +0.386 N 
ATOM     25  H   UNL     1      -0.182  -2.256  -1.236  0.00  0.00    -0.081 HD
ENDBRANCH  17  24
BRANCH  17  26
ATOM     26  C   UNL     1      -0.009  -0.162   0.111  0.00  0.00    +0.006 A 
ATOM     27  C   UNL     1       1.247  -0.558  -0.178  0.00  0.00    +0.021 A 
ATOM     28  C   UNL     1       2.103   0.529   0.083  0.00  0.00    +0.019 A 
ATOM     29  C   UNL     1       1.338   1.550   0.522  0.00  0.00    +0.085 A 
ATOM     30  N   UNL     1       0.041   1.131   0.541  0.00  0.00    -0.355 N 
ATOM     31  C   UNL     1      -1.111   1.940   0.949  0.00  0.00    +0.148 C 
ENDBRANCH  17  26
ENDBRANCH   1  17
TORSDOF 7
