REMARK  Name = ZINC14548254
REMARK  7 active torsions:
REMARK  status: ('A' for Active; 'I' for Inactive)
REMARK    1  A    between atoms: C_1  and  C_2
REMARK    2  A    between atoms: C_2  and  C_3
REMARK    3  A    between atoms: C_3  and  C_5
REMARK    4  A    between atoms: C_3  and  O_6
REMARK    5  A    between atoms: O_6  and  C_7
REMARK    6  A    between atoms: C_20  and  C_23
REMARK    7  A    between atoms: C_32  and  O_33
REMARK                            x       y       z     vdW  Elec       q    Type
REMARK                         _______ _______ _______ _____ _____    ______ ____
ROOT
ATOM      1  C   UNL     1       7.280   6.587   0.771  0.00  0.00    +0.121 A 
ATOM      2  C   UNL     1       7.014   6.887  -0.557  0.00  0.00    +0.047 A 
ATOM      3  C   UNL     1       5.751   6.682  -1.073  0.00  0.00    +0.027 A 
ATOM      4  C   UNL     1       4.736   6.176  -0.269  0.00  0.00    +0.032 A 
ATOM      5  C   UNL     1       5.013   5.865   1.066  0.00  0.00    -0.016 A 
ATOM      6  C   UNL     1       6.275   6.076   1.578  0.00  0.00    +0.051 A 
ATOM      7  C   UNL     1       3.910   5.309   1.881  0.00  0.00    +0.049 C 
ATOM      8  C   UNL     1       3.880   5.486   3.356  0.00  0.00    -0.023 C 
ATOM      9  C   UNL     1       2.614   5.554   3.749  0.00  0.00    -0.030 C 
ATOM     10  C   UNL     1       1.684   5.460   2.538  0.00  0.00    +0.033 C 
ATOM     11  C   UNL     1       2.586   5.987   1.414  0.00  0.00    +0.029 C 
ATOM     12  C   UNL     1       2.332   5.459   0.014  0.00  0.00    +0.109 C 
ATOM     13  N   UNL     1       3.439   5.982  -0.815  0.00  0.00    -0.336 N 
ATOM     14  H   UNL     1       3.272   6.213  -1.742  0.00  0.00    +0.147 HD
ENDROOT
BRANCH  12  15
ATOM     15  C   UNL     1       2.348   3.952   0.015  0.00  0.00    +0.022 A 
ATOM     16  C   UNL     1       1.161   3.232   0.232  0.00  0.00    -0.009 A 
ATOM     17  C   UNL     1      -0.061   3.892   0.452  0.00  0.00    +0.009 A 
ATOM     18  C   UNL     1      -1.191   3.163   0.659  0.00  0.00    +0.001 A 
ATOM     19  C   UNL     1      -1.158   1.770   0.651  0.00  0.00    +0.001 A 
ATOM     20  C   UNL     1       0.008   1.097   0.448  0.00  0.00    +0.008 A 
ATOM     21  C   UNL     1       1.196   1.815   0.230  0.00  0.00    -0.017 A 
ATOM     22  C   UNL     1       2.417   1.155   0.010  0.00  0.00    +0.012 A 
ATOM     23  C   UNL     1       3.548   1.879  -0.198  0.00  0.00    +0.046 A 
ATOM     24  C   UNL     1       3.517   3.278  -0.196  0.00  0.00    +0.122 A 
BRANCH  24  25
ATOM     25  O   UNL     1       4.664   3.975  -0.406  0.00  0.00    -0.506 OA
ATOM     26  H   UNL     1       4.839   4.174  -1.336  0.00  0.00    +0.292 HD
ENDBRANCH  24  25
ENDBRANCH  12  15
BRANCH   1  27
ATOM     27  O   UNL     1       8.524   6.794   1.280  0.00  0.00    -0.489 OA
BRANCH  27  28
ATOM     28  C   UNL     1       8.758   6.353   2.619  0.00  0.00    +0.170 C 
ATOM     29  C   UNL     1       8.306   7.438   3.599  0.00  0.00    +0.052 C 
BRANCH  28  31
ATOM     30  C   UNL     1      10.676   4.913   1.921  0.00  0.00    +0.007 C 
ATOM     31  C   UNL     1      10.251   6.081   2.812  0.00  0.00    +0.041 C 
ENDBRANCH  28  31
ENDBRANCH  27  28
ENDBRANCH   1  27
TORSDOF 5
