REMARK  Name = ZINC17160218
REMARK  8 active torsions:
REMARK  status: ('A' for Active; 'I' for Inactive)
REMARK    1  A    between atoms: C_1  and  C_2
REMARK    2  A    between atoms: C_18  and  C_19
REMARK    3  A    between atoms: C_18  and  N_63
REMARK    4  A    between atoms: N_21  and  N_22
REMARK    5  A    between atoms: C_23  and  C_24
REMARK    6  A    between atoms: C_27  and  N_30
REMARK    7  A    between atoms: N_30  and  C_31
REMARK    8  A    between atoms: N_30  and  C_32
REMARK                            x       y       z     vdW  Elec       q    Type
REMARK                         _______ _______ _______ _____ _____    ______ ____
ROOT
ATOM      1  C   UNL     1      -1.108  -1.293   0.715  0.00  0.00    +0.044 C 
ATOM      2  C   UNL     1       0.218  -0.580   0.633  0.00  0.00    -0.050 A 
ATOM      3  C   UNL     1       0.265   0.685   0.071  0.00  0.00    +0.005 A 
ATOM      4  C   UNL     1       1.445   1.399  -0.037  0.00  0.00    +0.026 A 
ATOM      5  C   UNL     1       2.603   0.793   0.446  0.00  0.00    +0.049 A 
ATOM      6  C   UNL     1       2.550  -0.511   1.021  0.00  0.00    +0.003 A 
ATOM      7  C   UNL     1       1.339  -1.206   1.116  0.00  0.00    +0.013 A 
ATOM      8  C   UNL     1       3.898  -0.833   1.404  0.00  0.00    -0.020 A 
ATOM      9  C   UNL     1       4.657   0.225   1.055  0.00  0.00    +0.009 A 
ATOM     10  N   UNL     1       3.898   1.215   0.497  0.00  0.00    -0.347 N 
ATOM     11  C   UNL     1       4.497   2.493   0.082  0.00  0.00    +0.103 C 
ATOM     12  C   UNL     1       6.018   2.308   0.014  0.00  0.00    -0.055 C 
ATOM     13  C   UNL     1       6.149   0.254   1.297  0.00  0.00    -0.020 C 
ATOM     14  C   UNL     1       6.416  -0.319   2.679  0.00  0.00    -0.009 C 
ATOM     15  C   UNL     1       5.574  -1.504   3.085  0.00  0.00    +0.003 C 
ATOM     16  C   UNL     1       4.555  -2.008   2.073  0.00  0.00    +0.037 C 
ATOM     17  N   UNL     1       6.523   1.691   1.258  0.00  0.00    +0.392 N 
ATOM     18  H   UNL     1       6.100   2.168   2.063  0.00  0.00    -0.080 HD
ENDROOT
BRANCH  17  19
ATOM     19  C   UNL     1       7.993   1.833   1.333  0.00  0.00    +0.021 C 
BRANCH  19  20
ATOM     20  C   UNL     1       8.332   3.290   1.517  0.00  0.00    +0.216 C 
ATOM     21  O   UNL     1       7.447   4.118   1.563  0.00  0.00    -0.276 OA
ATOM     22  N   UNL     1       9.619   3.674   1.629  0.00  0.00    -0.209 N 
ATOM     23  H   UNL     1      10.328   3.012   1.592  0.00  0.00    +0.177 HD
BRANCH  22  24
ATOM     24  N   UNL     1       9.935   5.028   1.800  0.00  0.00    -0.188 NA
ATOM     25  C   UNL     1      11.175   5.412   1.787  0.00  0.00    +0.138 C 
BRANCH  25  26
ATOM     26  C   UNL     1      12.200   4.573   1.142  0.00  0.00    -0.005 A 
ATOM     27  C   UNL     1      13.556   4.833   1.358  0.00  0.00    +0.011 A 
ATOM     28  C   UNL     1      14.511   4.043   0.758  0.00  0.00    +0.024 A 
ATOM     29  C   UNL     1      14.128   2.994  -0.071  0.00  0.00    +0.029 A 
ATOM     30  C   UNL     1      12.779   2.736  -0.294  0.00  0.00    +0.024 A 
ATOM     31  C   UNL     1      11.818   3.518   0.308  0.00  0.00    +0.011 A 
BRANCH  29  32
ATOM     32  N   UNL     1      15.098   2.199  -0.682  0.00  0.00    -0.336 N 
ATOM     33  C   UNL     1      14.699   1.022  -1.458  0.00  0.00    +0.129 C 
ATOM     34  C   UNL     1      16.516   2.541  -0.547  0.00  0.00    +0.129 C 
ENDBRANCH  29  32
ENDBRANCH  25  26
ENDBRANCH  22  24
ENDBRANCH  19  20
ENDBRANCH  17  19
TORSDOF 5
