REMARK  Name = ZINC38887217
REMARK  8 active torsions:
REMARK  status: ('A' for Active; 'I' for Inactive)
REMARK    1  A    between atoms: C_1  and  C_2
REMARK    2  A    between atoms: C_5  and  S_8
REMARK    3  A    between atoms: S_8  and  N_11
REMARK    4  A    between atoms: C_17  and  C_19
REMARK    5  A    between atoms: N_24  and  C_26
REMARK    6  A    between atoms: C_26  and  C_27
REMARK    7  A    between atoms: C_29  and  C_32
REMARK    8  A    between atoms: C_37  and  C_38
REMARK                            x       y       z     vdW  Elec       q    Type
REMARK                         _______ _______ _______ _____ _____    ______ ____
ROOT
ATOM      1  C   UNL     1       6.597  -5.359   0.841  0.00  0.00    +0.059 C 
ATOM      2  C   UNL     1       6.348  -4.062   1.617  0.00  0.00    +0.009 C 
ATOM      3  C   UNL     1       7.081  -4.133   2.959  0.00  0.00    -0.018 C 
ATOM      4  C   UNL     1       8.570  -4.382   2.708  0.00  0.00    -0.078 C 
ATOM      5  N   UNL     1       8.743  -5.649   1.987  0.00  0.00    +0.386 N 
ATOM      6  C   UNL     1       8.103  -5.563   0.668  0.00  0.00    -0.065 C 
ATOM      7  H   UNL     1       8.321  -6.397   2.516  0.00  0.00    -0.081 HD
ENDROOT
BRANCH   1  14
ATOM      8  N   UNL     1       2.113  -6.306  -0.921  0.00  0.00    -0.174 NA
ATOM      9  C   UNL     1       2.955  -6.201  -2.121  0.00  0.00    +0.128 C 
ATOM     10  C   UNL     1       3.951  -5.052  -1.921  0.00  0.00    +0.125 C 
ATOM     11  N   UNL     1       4.600  -5.215  -0.612  0.00  0.00    -0.299 N 
ATOM     12  C   UNL     1       3.758  -5.321   0.588  0.00  0.00    +0.125 C 
ATOM     13  C   UNL     1       2.762  -6.464   0.388  0.00  0.00    +0.128 C 
ATOM     14  C   UNL     1       5.943  -5.268  -0.514  0.00  0.00    +0.217 C 
ATOM     15  O   UNL     1       6.626  -5.242  -1.516  0.00  0.00    -0.275 OA
BRANCH   8  16
ATOM     16  S   UNL     1       0.462  -6.242  -1.041  0.00  0.00    +0.061 S 
ATOM     17  O   UNL     1      -0.055  -6.900   0.107  0.00  0.00    -0.153 OA
ATOM     18  O   UNL     1       0.136  -6.647  -2.364  0.00  0.00    -0.153 OA
BRANCH  16  23
ATOM     19  C   UNL     1      -1.138  -0.443  -0.572  0.00  0.00    +0.044 C 
ATOM     20  C   UNL     1      -0.738  -1.891  -0.689  0.00  0.00    -0.050 A 
ATOM     21  C   UNL     1      -0.462  -2.434  -1.930  0.00  0.00    +0.005 A 
ATOM     22  C   UNL     1      -0.095  -3.762  -2.038  0.00  0.00    +0.029 A 
ATOM     23  C   UNL     1      -0.004  -4.548  -0.904  0.00  0.00    +0.105 A 
ATOM     24  C   UNL     1      -0.279  -4.005   0.337  0.00  0.00    +0.029 A 
ATOM     25  C   UNL     1      -0.641  -2.676   0.445  0.00  0.00    +0.005 A 
ENDBRANCH  16  23
ENDBRANCH   8  16
ENDBRANCH   1  14
BRANCH   5  26
ATOM     26  C   UNL     1      10.177  -5.921   1.817  0.00  0.00    +0.022 C 
BRANCH  26  27
ATOM     27  C   UNL     1      10.809  -6.141   3.167  0.00  0.00    +0.211 A 
ATOM     28  N   UNL     1      10.928  -7.287   3.774  0.00  0.00    -0.193 NA
ATOM     29  C   UNL     1      11.542  -7.119   4.959  0.00  0.00    +0.202 A 
ATOM     30  N   UNL     1      11.818  -5.847   5.111  0.00  0.00    -0.056 NA
ATOM     31  O   UNL     1      11.350  -5.191   3.942  0.00  0.00    -0.340 OA
BRANCH  29  32
ATOM     32  C   UNL     1      11.853  -8.194   5.934  0.00  0.00    +0.025 A 
ATOM     33  C   UNL     1      13.116  -8.265   6.517  0.00  0.00    +0.012 A 
ATOM     34  C   UNL     1      13.400  -9.268   7.422  0.00  0.00    +0.001 A 
ATOM     35  C   UNL     1      12.433 -10.200   7.751  0.00  0.00    +0.000 A 
ATOM     36  C   UNL     1      11.177 -10.134   7.176  0.00  0.00    +0.004 A 
ATOM     37  C   UNL     1      10.881  -9.132   6.273  0.00  0.00    -0.040 A 
ATOM     38  C   UNL     1       9.510  -9.057   5.652  0.00  0.00    +0.044 C 
ENDBRANCH  29  32
ENDBRANCH  26  27
ENDBRANCH   5  26
TORSDOF 6
