REMARK  Name = ZINC42013349
REMARK  5 active torsions:
REMARK  status: ('A' for Active; 'I' for Inactive)
REMARK    1  A    between atoms: C_1  and  C_2
REMARK    2  A    between atoms: C_3  and  C_9
REMARK    3  A    between atoms: C_4  and  C_8
REMARK    4  A    between atoms: N_5  and  C_7
REMARK    5  A    between atoms: C_13  and  C_15
REMARK                            x       y       z     vdW  Elec       q    Type
REMARK                         _______ _______ _______ _____ _____    ______ ____
ROOT
ATOM      1  C   UNL     1      -0.228  -0.370  -2.540  0.00  0.00    +0.160 A 
ATOM      2  N   UNL     1      -0.185   0.914  -2.965  0.00  0.00    -0.258 N 
ATOM      3  H   UNL     1      -0.060   1.704  -2.416  0.00  0.00    +0.191 HD
ATOM      4  N   UNL     1      -0.356   0.877  -4.358  0.00  0.00    -0.152 NA
ATOM      5  C   UNL     1      -0.490  -0.388  -4.694  0.00  0.00    +0.182 A 
ATOM      6  N   UNL     1      -0.407  -1.141  -3.591  0.00  0.00    -0.207 NA
ENDROOT
BRANCH   1   9
ATOM      7  C   UNL     1      -0.053   1.502   0.013  0.00  0.00    +0.068 C 
ATOM      8  C   UNL     1      -0.013  -0.004   0.003  0.00  0.00    +0.071 A 
ATOM      9  C   UNL     1      -0.091  -0.828  -1.139  0.00  0.00    +0.062 A 
ATOM     10  C   UNL     1      -0.019  -2.125  -0.716  0.00  0.00    +0.047 A 
ATOM     11  N   UNL     1       0.099  -2.110   0.626  0.00  0.00    -0.271 N 
ATOM     12  N   UNL     1       0.105  -0.776   1.051  0.00  0.00    -0.176 NA
ATOM     13  C   UNL     1       0.207  -3.287   1.491  0.00  0.00    +0.172 C 
ATOM     14  C   UNL     1      -0.063  -3.351  -1.591  0.00  0.00    +0.066 C 
ENDBRANCH   1   9
BRANCH   5  15
ATOM     15  C   UNL     1      -0.695  -0.896  -6.073  0.00  0.00    +0.021 A 
ATOM     16  C   UNL     1      -0.830  -2.264  -6.301  0.00  0.00    +0.011 A 
ATOM     17  C   UNL     1      -1.020  -2.732  -7.585  0.00  0.00    +0.001 A 
ATOM     18  C   UNL     1      -1.076  -1.845  -8.646  0.00  0.00    +0.000 A 
ATOM     19  C   UNL     1      -0.943  -0.486  -8.425  0.00  0.00    +0.001 A 
ATOM     20  C   UNL     1      -0.759  -0.007  -7.144  0.00  0.00    +0.011 A 
ENDBRANCH   5  15
TORSDOF 2
