REMARK  Name = ZINC23748818
REMARK  5 active torsions:
REMARK  status: ('A' for Active; 'I' for Inactive)
REMARK    1  A    between atoms: C_1  and  C_2
REMARK    2  A    between atoms: C_6  and  C_7
REMARK    3  A    between atoms: C_7  and  C_9
REMARK    4  A    between atoms: C_7  and  N_19
REMARK    5  A    between atoms: C_15  and  C_17
REMARK                            x       y       z     vdW  Elec       q    Type
REMARK                         _______ _______ _______ _____ _____    ______ ____
ROOT
ATOM      1  C   UNL     1       0.002  -0.004   0.002  0.00  0.00    +0.013 C 
ENDROOT
BRANCH   1   2
ATOM      2  C   UNL     1      -0.199  -0.276   1.471  0.00  0.00    +0.051 A 
ATOM      3  C   UNL     1       0.697  -0.652   2.391  0.00  0.00    +0.282 A 
ATOM      4  N   UNL     1       0.318  -0.850   3.697  0.00  0.00    -0.170 N 
ATOM      5  C   UNL     1      -0.995  -0.657   4.001  0.00  0.00    +0.199 A 
ATOM      6  S   UNL     1      -1.698  -0.188   2.438  0.00  0.00    -0.050 S 
ATOM      7  N   UNL     1      -1.189  -0.889   5.271  0.00  0.00    -0.205 NA
ATOM      8  C   UNL     1      -0.034  -1.235   5.836  0.00  0.00    +0.150 A 
ATOM      9  N   UNL     1       0.907  -1.227   4.931  0.00  0.00    -0.147 NA
ATOM     10  C   UNL     1       0.156  -1.582   7.290  0.00  0.00    +0.090 C 
ATOM     11  O   UNL     1       1.995  -0.836   2.031  0.00  0.00    -0.265 OA
ENDBRANCH   1   2
BRANCH   1  12
ATOM     12  N   UNL     1      -1.046  -0.685  -0.770  0.00  0.00    +0.388 N 
ATOM     13  C   UNL     1      -1.040  -2.129  -0.507  0.00  0.00    -0.077 C 
ATOM     14  C   UNL     1      -2.231  -2.783  -1.211  0.00  0.00    -0.019 C 
ATOM     15  C   UNL     1      -2.135  -2.519  -2.716  0.00  0.00    -0.004 C 
ATOM     16  C   UNL     1      -2.094  -1.008  -2.960  0.00  0.00    -0.019 C 
ATOM     17  C   UNL     1      -0.907  -0.406  -2.205  0.00  0.00    -0.077 C 
ATOM     18  H   UNL     1      -2.019  -0.289  -0.444  0.00  0.00    -0.080 HD
ENDBRANCH   1  12
BRANCH   1  24
ATOM     19  C   UNL     1       2.351   1.867  -0.645  0.00  0.00    +0.044 C 
ATOM     20  C   UNL     1       0.927   2.348  -0.538  0.00  0.00    -0.042 A 
ATOM     21  C   UNL     1       0.622   3.682  -0.732  0.00  0.00    +0.011 A 
ATOM     22  C   UNL     1      -0.669   4.083  -0.628  0.00  0.00    +0.045 A 
ATOM     23  S   UNL     1      -1.502   2.549  -0.252  0.00  0.00    -0.103 S 
ATOM     24  C   UNL     1      -0.073   1.480  -0.249  0.00  0.00    -0.016 A 
ENDBRANCH   1  24
TORSDOF 3
