REMARK  Name = ZINC45520825
REMARK  7 active torsions:
REMARK  status: ('A' for Active; 'I' for Inactive)
REMARK    1  A    between atoms: C_1  and  C_2
REMARK    2  A    between atoms: C_5  and  N_9
REMARK    3  A    between atoms: C_6  and  C_8
REMARK    4  A    between atoms: C_10  and  C_12
REMARK    5  A    between atoms: C_12  and  C_13
REMARK    6  A    between atoms: C_25  and  C_27
REMARK    7  A    between atoms: C_27  and  N_28
REMARK                            x       y       z     vdW  Elec       q    Type
REMARK                         _______ _______ _______ _____ _____    ______ ____
ROOT
ATOM      1  C   UNL     1      -0.219  -7.031  -2.866  0.00  0.00    +0.176 C 
ATOM      2  C   UNL     1      -0.037  -8.488  -3.207  0.00  0.00    +0.239 C 
ATOM      3  O   UNL     1       1.082  -8.949  -3.288  0.00  0.00    -0.273 OA
ATOM      4  N   UNL     1      -1.102  -9.284  -3.421  0.00  0.00    -0.282 N 
ATOM      5  C   UNL     1      -2.401  -8.766  -3.383  0.00  0.00    +0.055 A 
ATOM      6  C   UNL     1      -3.498  -9.609  -3.311  0.00  0.00    +0.025 A 
ATOM      7  C   UNL     1      -4.774  -9.077  -3.280  0.00  0.00    +0.002 A 
ATOM      8  C   UNL     1      -4.961  -7.707  -3.321  0.00  0.00    +0.002 A 
ATOM      9  C   UNL     1      -3.872  -6.858  -3.390  0.00  0.00    +0.025 A 
ATOM     10  C   UNL     1      -2.592  -7.384  -3.419  0.00  0.00    +0.058 A 
ATOM     11  N   UNL     1      -1.465  -6.546  -3.478  0.00  0.00    -0.256 N 
ATOM     12  C   UNL     1      -1.523  -5.339  -4.075  0.00  0.00    +0.235 C 
ATOM     13  O   UNL     1      -0.515  -4.677  -4.204  0.00  0.00    -0.274 OA
ATOM     14  H   UNL     1      -0.967 -10.227  -3.604  0.00  0.00    +0.155 HD
ENDROOT
BRANCH   1  15
ATOM     15  C   UNL     1      -0.296  -6.866  -1.347  0.00  0.00    +0.128 C 
BRANCH  15  17
ATOM     16  N   UNL     1      -0.432  -5.012   0.285  0.00  0.00    -0.285 N 
ATOM     17  C   UNL     1      -0.359  -5.400  -1.004  0.00  0.00    +0.219 C 
ATOM     18  O   UNL     1      -0.344  -4.569  -1.887  0.00  0.00    -0.275 OA
ATOM     19  H   UNL     1      -0.383  -5.673   0.994  0.00  0.00    +0.155 HD
BRANCH  16  24
ATOM     20  C   UNL     1      -1.031   0.482   1.563  0.00  0.00    +0.044 C 
ATOM     21  C   UNL     1      -0.872  -0.977   1.224  0.00  0.00    -0.050 A 
ATOM     22  C   UNL     1      -0.130  -1.352   0.118  0.00  0.00    +0.005 A 
ATOM     23  C   UNL     1       0.018  -2.688  -0.196  0.00  0.00    +0.024 A 
ATOM     24  C   UNL     1      -0.580  -3.657   0.600  0.00  0.00    +0.036 A 
ATOM     25  C   UNL     1      -1.324  -3.278   1.710  0.00  0.00    -0.029 A 
ATOM     26  C   UNL     1      -1.464  -1.940   2.021  0.00  0.00    +0.008 A 
ATOM     27  C   UNL     1      -1.973  -4.326   2.576  0.00  0.00    +0.045 C 
ENDBRANCH  16  24
ENDBRANCH  15  17
ENDBRANCH   1  15
BRANCH  12  28
ATOM     28  C   UNL     1      -2.841  -4.812  -4.583  0.00  0.00    +0.181 C 
BRANCH  28  29
ATOM     29  N   UNL     1      -2.607  -3.609  -5.393  0.00  0.00    -0.289 NA
ATOM     30  C   UNL     1      -3.877  -2.944  -5.728  0.00  0.00    +0.090 C 
ATOM     31  C   UNL     1      -3.567  -1.537  -6.238  0.00  0.00    +0.051 C 
ATOM     32  C   UNL     1      -2.514  -1.600  -7.314  0.00  0.00    -0.042 A 
ATOM     33  C   UNL     1      -2.351  -0.501  -8.145  0.00  0.00    +0.004 A 
ATOM     34  C   UNL     1      -1.395  -0.516  -9.141  0.00  0.00    +0.000 A 
ATOM     35  C   UNL     1      -0.595  -1.631  -9.310  0.00  0.00    +0.000 A 
ATOM     36  C   UNL     1      -0.757  -2.725  -8.484  0.00  0.00    +0.005 A 
ATOM     37  C   UNL     1      -1.720  -2.713  -7.485  0.00  0.00    -0.030 A 
ATOM     38  C   UNL     1      -1.867  -3.935  -6.616  0.00  0.00    +0.120 C 
ENDBRANCH  28  29
ENDBRANCH  12  28
TORSDOF 5
