REMARK  Name = ZINC35246797
REMARK  10 active torsions:
REMARK  status: ('A' for Active; 'I' for Inactive)
REMARK    1  A    between atoms: C_1  and  C_2
REMARK    2  A    between atoms: C_7  and  C_9
REMARK    3  A    between atoms: C_7  and  C_10
REMARK    4  A    between atoms: C_13  and  C_15
REMARK    5  A    between atoms: C_18  and  C_20
REMARK    6  A    between atoms: C_20  and  N_21
REMARK    7  A    between atoms: N_21  and  C_22
REMARK    8  A    between atoms: N_21  and  C_29
REMARK    9  A    between atoms: C_22  and  C_23
REMARK   10  A    between atoms: C_29  and  C_30
REMARK                            x       y       z     vdW  Elec       q    Type
REMARK                         _______ _______ _______ _____ _____    ______ ____
ROOT
ATOM      1  C   UNL     1      -6.226  -0.546   1.083  0.00  0.00    -0.002 C 
ENDROOT
BRANCH   1   5
ATOM      2  C   UNL     1      -3.548  -2.402  -0.567  0.00  0.00    +0.190 A 
ATOM      3  C   UNL     1      -4.556  -3.316  -0.678  0.00  0.00    +0.055 A 
ATOM      4  C   UNL     1      -5.688  -2.744  -0.076  0.00  0.00    +0.043 A 
ATOM      5  C   UNL     1      -5.326  -1.521   0.370  0.00  0.00    +0.090 A 
ATOM      6  O   UNL     1      -4.035  -1.320   0.077  0.00  0.00    -0.457 OA
BRANCH   2  18
ATOM      7  C   UNL     1      -0.365   1.989  -0.308  0.00  0.00    +0.013 C 
ATOM      8  C   UNL     1      -0.179   0.467  -0.214  0.00  0.00    -0.014 C 
ATOM      9  C   UNL     1       0.535  -0.120  -1.462  0.00  0.00    +0.030 C 
ATOM     10  C   UNL     1       0.139  -1.610  -1.310  0.00  0.00    +0.078 C 
ATOM     11  C   UNL     1       0.998  -2.195  -0.192  0.00  0.00    +0.029 C 
ATOM     12  C   UNL     1       0.891  -1.443   1.122  0.00  0.00    -0.033 C 
ATOM     13  C   UNL     1       0.630   0.047   1.012  0.00  0.00    +0.014 C 
ATOM     14  C   UNL     1      -0.175  -2.101   2.012  0.00  0.00    +0.011 C 
ATOM     15  C   UNL     1       2.242  -1.619   1.860  0.00  0.00    +0.011 C 
ATOM     16  N   UNL     1      -1.271  -1.584  -0.875  0.00  0.00    -0.291 N 
ATOM     17  C   UNL     1      -1.525  -0.292  -0.220  0.00  0.00    +0.115 C 
ATOM     18  C   UNL     1      -2.175  -2.568  -1.056  0.00  0.00    +0.282 C 
ATOM     19  O   UNL     1      -1.852  -3.594  -1.624  0.00  0.00    -0.267 OA
ENDBRANCH   2  18
ENDBRANCH   1   5
BRANCH   1  20
ATOM     20  N   UNL     1      -6.249  -0.860   2.518  0.00  0.00    +0.390 N 
ATOM     21  H   UNL     1      -6.508  -1.827   2.647  0.00  0.00    -0.080 HD
BRANCH  20  22
ATOM     22  C   UNL     1      -7.227   0.003   3.193  0.00  0.00    -0.042 C 
BRANCH  22  23
ATOM     23  C   UNL     1      -8.613  -0.329   2.703  0.00  0.00    -0.064 A 
ATOM     24  C   UNL     1      -9.179   0.407   1.679  0.00  0.00    +0.002 A 
ATOM     25  C   UNL     1     -10.450   0.103   1.229  0.00  0.00    +0.000 A 
ATOM     26  C   UNL     1     -11.155  -0.939   1.803  0.00  0.00    +0.000 A 
ATOM     27  C   UNL     1     -10.589  -1.676   2.827  0.00  0.00    +0.000 A 
ATOM     28  C   UNL     1      -9.316  -1.374   3.273  0.00  0.00    +0.002 A 
ENDBRANCH  22  23
ENDBRANCH  20  22
BRANCH  20  29
ATOM     29  C   UNL     1      -4.916  -0.630   3.091  0.00  0.00    -0.042 C 
BRANCH  29  30
ATOM     30  C   UNL     1      -4.906  -1.069   4.533  0.00  0.00    -0.060 A 
ATOM     31  C   UNL     1      -5.242  -0.170   5.529  0.00  0.00    +0.005 A 
ATOM     32  C   UNL     1      -5.235  -0.568   6.853  0.00  0.00    +0.050 A 
ATOM     33  C   UNL     1      -4.891  -1.868   7.185  0.00  0.00    +0.166 A 
ATOM     34  C   UNL     1      -4.553  -2.773   6.182  0.00  0.00    +0.166 A 
ATOM     35  C   UNL     1      -4.568  -2.369   4.856  0.00  0.00    +0.051 A 
ATOM     36  O   UNL     1      -4.258  -3.974   6.759  0.00  0.00    -0.453 OA
ATOM     37  C   UNL     1      -4.021  -3.684   8.149  0.00  0.00    +0.466 C 
ATOM     38  O   UNL     1      -4.807  -2.502   8.391  0.00  0.00    -0.453 OA
ENDBRANCH  29  30
ENDBRANCH  20  29
ENDBRANCH   1  20
TORSDOF 7
