REMARK  Name = ZINC04571494
REMARK  5 active torsions:
REMARK  status: ('A' for Active; 'I' for Inactive)
REMARK    1  A    between atoms: C_1  and  C_2
REMARK    2  A    between atoms: C_11  and  O_30
REMARK    3  A    between atoms: C_13  and  C_16
REMARK    4  A    between atoms: C_19  and  C_21
REMARK    5  A    between atoms: C_26  and  N_27
REMARK                            x       y       z     vdW  Elec       q    Type
REMARK                         _______ _______ _______ _____ _____    ______ ____
ROOT
ATOM      1  C   UNL     1      -0.019   1.526   0.010  0.00  0.00    +0.008 C 
ATOM      2  C   UNL     1       0.002  -0.004   0.002  0.00  0.00    -0.009 C 
ATOM      3  C   UNL     1       0.724  -0.500  -1.254  0.00  0.00    +0.008 C 
ATOM      4  C   UNL     1       0.537  -2.012  -1.399  0.00  0.00    +0.037 C 
ATOM      5  C   UNL     1       0.940  -2.682  -0.093  0.00  0.00    -0.023 A 
ATOM      6  C   UNL     1       1.023  -1.976   1.058  0.00  0.00    -0.004 A 
ATOM      7  S   UNL     1       1.517  -3.160   2.280  0.00  0.00    -0.078 S 
ATOM      8  C   UNL     1       1.614  -4.514   1.327  0.00  0.00    +0.080 A 
ATOM      9  C   UNL     1       1.261  -4.091   0.040  0.00  0.00    +0.068 A 
ATOM     10  C   UNL     1       1.246  -5.114  -1.037  0.00  0.00    +0.220 C 
ATOM     11  N   UNL     1       1.795  -6.271  -0.782  0.00  0.00    -0.220 NA
ATOM     12  C   UNL     1       2.478  -6.605   0.462  0.00  0.00    +0.260 C 
ATOM     13  N   UNL     1       1.956  -5.820   1.596  0.00  0.00    -0.311 N 
ATOM     14  C   UNL     1       0.750  -0.515   1.242  0.00  0.00    +0.046 C 
ATOM     15  H   UNL     1       1.859  -6.202   2.482  0.00  0.00    +0.149 HD
ENDROOT
BRANCH  12  16
ATOM     16  C   UNL     1       3.950  -6.322   0.307  0.00  0.00    +0.148 A 
ATOM     17  C   UNL     1       4.645  -6.390  -0.845  0.00  0.00    +0.049 A 
ATOM     18  C   UNL     1       5.979  -6.052  -0.542  0.00  0.00    +0.050 A 
ATOM     19  C   UNL     1       6.025  -5.794   0.792  0.00  0.00    +0.138 A 
ATOM     20  O   UNL     1       4.785  -5.957   1.293  0.00  0.00    -0.456 OA
BRANCH  19  21
ATOM     21  C   UNL     1       7.225  -5.399   1.558  0.00  0.00    +0.047 A 
ATOM     22  C   UNL     1       8.408  -6.129   1.434  0.00  0.00    +0.014 A 
ATOM     23  C   UNL     1       9.525  -5.755   2.153  0.00  0.00    +0.001 A 
ATOM     24  C   UNL     1       9.474  -4.658   2.995  0.00  0.00    +0.002 A 
ATOM     25  C   UNL     1       8.305  -3.930   3.122  0.00  0.00    +0.033 A 
ATOM     26  C   UNL     1       7.182  -4.290   2.405  0.00  0.00    +0.137 A 
BRANCH  26  27
ATOM     27  N   UNL     1       5.934  -3.505   2.537  0.00  0.00    +0.057 N 
ATOM     28  O   UNL     1       5.898  -2.545   3.271  0.00  0.00    -0.126 OA
ATOM     29  O   UNL     1       4.950  -3.825   1.912  0.00  0.00    -0.126 OA
ENDBRANCH  26  27
ENDBRANCH  19  21
ENDBRANCH  12  16
BRANCH  10  30
ATOM     30  O   UNL     1       0.683  -4.857  -2.240  0.00  0.00    -0.492 OA
ATOM     31  H   UNL     1       0.731  -5.595  -2.863  0.00  0.00    +0.294 HD
ENDBRANCH  10  30
TORSDOF 4
