REMARK  Name = ZINC17044722
REMARK  5 active torsions:
REMARK  status: ('A' for Active; 'I' for Inactive)
REMARK    1  A    between atoms: C_1  and  O_2
REMARK    2  A    between atoms: O_2  and  C_3
REMARK    3  A    between atoms: C_6  and  C_11
REMARK    4  A    between atoms: C_8  and  O_9
REMARK    5  A    between atoms: O_9  and  C_10
REMARK                            x       y       z     vdW  Elec       q    Type
REMARK                         _______ _______ _______ _____ _____    ______ ____
ROOT
ATOM      1  C   UNL     1       2.458   3.932  -0.000  0.00  0.00    +0.074 C 
ATOM      2  C   UNL     1       3.174   3.663   1.303  0.00  0.00    +0.069 A 
ATOM      3  C   UNL     1       2.592   3.958   2.530  0.00  0.00    +0.259 A 
ATOM      4  O   UNL     1       1.475   4.446   2.592  0.00  0.00    -0.267 OA
ATOM      5  N   UNL     1       3.294   3.691   3.655  0.00  0.00    -0.295 N 
ATOM      6  H   UNL     1       2.910   3.886   4.524  0.00  0.00    +0.172 HD
ATOM      7  C   UNL     1       4.539   3.147   3.567  0.00  0.00    +0.195 A 
ATOM      8  N   UNL     1       5.096   2.866   2.410  0.00  0.00    -0.197 NA
ATOM      9  C   UNL     1       4.452   3.107   1.252  0.00  0.00    +0.165 A 
ATOM     10  N   UNL     1       5.037   2.814   0.072  0.00  0.00    -0.236 NA
ATOM     11  C   UNL     1       4.508   3.006  -1.109  0.00  0.00    +0.032 C 
ATOM     12  C   UNL     1       3.222   3.560  -1.258  0.00  0.00    +0.112 C 
ATOM     13  C   UNL     1       2.664   3.762  -2.462  0.00  0.00    +0.143 C 
ATOM     14  C   UNL     1       3.392   3.405  -3.731  0.00  0.00    +0.075 C 
ATOM     15  C   UNL     1       4.337   2.232  -3.458  0.00  0.00    +0.013 C 
ATOM     16  C   UNL     1       5.302   2.623  -2.337  0.00  0.00    +0.052 C 
ATOM     17  O   UNL     1       1.429   4.295  -2.537  0.00  0.00    -0.297 OA
ATOM     18  N   UNL     1       5.232   2.884   4.719  0.00  0.00    -0.329 N 
ATOM     19  H   UNL     1       6.120   2.496   4.673  0.00  0.00    +0.145 HD
ATOM     20  H   UNL     1       4.835   3.085   5.580  0.00  0.00    +0.145 HD
ENDROOT
BRANCH   1  24
ATOM     21  C   UNL     1      -1.222   1.752   0.017  0.00  0.00    +0.162 A 
ATOM     22  C   UNL     1      -0.013   1.076   0.008  0.00  0.00    +0.050 A 
ATOM     23  C   UNL     1       1.175   1.783   0.000  0.00  0.00    +0.008 A 
ATOM     24  C   UNL     1       1.160   3.166   0.008  0.00  0.00    -0.035 A 
ATOM     25  C   UNL     1      -0.043   3.847   0.023  0.00  0.00    +0.053 A 
ATOM     26  C   UNL     1      -1.237   3.144   0.030  0.00  0.00    +0.162 A 
BRANCH  21  28
ATOM     27  C   UNL     1      -2.299  -0.368   0.011  0.00  0.00    +0.277 C 
ATOM     28  O   UNL     1      -2.391   1.058   0.019  0.00  0.00    -0.491 OA
ENDBRANCH  21  28
BRANCH  26  29
ATOM     29  O   UNL     1      -2.421   3.812   0.044  0.00  0.00    -0.491 OA
ATOM     30  C   UNL     1      -2.361   5.240   0.051  0.00  0.00    +0.277 C 
ENDBRANCH  26  29
ENDBRANCH   1  24
TORSDOF 3
