REMARK  Name = ZINC43619973
REMARK  8 active torsions:
REMARK  status: ('A' for Active; 'I' for Inactive)
REMARK    1  A    between atoms: C_1  and  C_2
REMARK    2  A    between atoms: C_2  and  O_3
REMARK    3  A    between atoms: O_3  and  C_4
REMARK    4  A    between atoms: C_4  and  C_6
REMARK    5  A    between atoms: C_10  and  C_11
REMARK    6  A    between atoms: C_11  and  N_12
REMARK    7  A    between atoms: C_15  and  C_24
REMARK    8  A    between atoms: C_15  and  O_30
REMARK                            x       y       z     vdW  Elec       q    Type
REMARK                         _______ _______ _______ _____ _____    ______ ____
ROOT
ATOM      1  N   UNL     1      -1.791  -5.226  -1.189  0.00  0.00    +0.386 N 
ATOM      2  C   UNL     1      -0.965  -4.155  -1.760  0.00  0.00    -0.075 C 
ATOM      3  C   UNL     1      -0.622  -4.491  -3.213  0.00  0.00    +0.021 C 
ATOM      4  C   UNL     1       0.151  -5.812  -3.257  0.00  0.00    +0.091 C 
ATOM      5  C   UNL     1      -0.689  -6.906  -2.592  0.00  0.00    +0.012 C 
ATOM      6  C   UNL     1      -1.030  -6.481  -1.162  0.00  0.00    -0.062 C 
ATOM      7  C   UNL     1      -1.871  -7.573  -0.495  0.00  0.00    -0.015 C 
ATOM      8  C   UNL     1      -3.163  -7.775  -1.288  0.00  0.00    -0.002 C 
ATOM      9  C   UNL     1      -2.824  -8.197  -2.719  0.00  0.00    +0.000 C 
ATOM     10  C   UNL     1      -1.979  -7.111  -3.388  0.00  0.00    +0.005 C 
ATOM     11  H   UNL     1      -2.618  -5.348  -1.754  0.00  0.00    -0.081 HD
ENDROOT
BRANCH   4  12
ATOM     12  C   UNL     1       0.425  -6.188  -4.690  0.00  0.00    -0.016 A 
ATOM     13  C   UNL     1       1.606  -6.825  -5.024  0.00  0.00    +0.006 A 
ATOM     14  C   UNL     1       1.857  -7.171  -6.339  0.00  0.00    +0.000 A 
ATOM     15  C   UNL     1       0.927  -6.879  -7.320  0.00  0.00    +0.000 A 
ATOM     16  C   UNL     1      -0.253  -6.243  -6.986  0.00  0.00    +0.000 A 
ATOM     17  C   UNL     1      -0.506  -5.901  -5.670  0.00  0.00    +0.006 A 
ENDBRANCH   4  12
BRANCH   4  18
ATOM     18  O   UNL     1       1.388  -5.666  -2.555  0.00  0.00    -0.384 OA
ATOM     19  H   UNL     1       1.968  -4.984  -2.920  0.00  0.00    +0.211 HD
ENDBRANCH   4  18
BRANCH   1  20
ATOM     20  C   UNL     1      -2.183  -4.863   0.179  0.00  0.00    -0.021 C 
BRANCH  20  25
ATOM     21  C   UNL     1      -4.382  -3.524   0.062  0.00  0.00    +0.098 A 
ATOM     22  C   UNL     1      -4.724  -2.152   0.070  0.00  0.00    +0.150 A 
ATOM     23  N   UNL     1      -3.621  -1.460   0.148  0.00  0.00    -0.172 NA
ATOM     24  N   UNL     1      -2.535  -2.341   0.195  0.00  0.00    -0.220 N 
ATOM     25  C   UNL     1      -3.006  -3.601   0.148  0.00  0.00    +0.044 A 
ATOM     26  C   UNL     1      -1.189  -1.975   0.281  0.00  0.00    +0.154 A 
ATOM     27  C   UNL     1      -0.777  -0.744  -0.215  0.00  0.00    +0.048 A 
ATOM     28  C   UNL     1       0.558  -0.393  -0.123  0.00  0.00    +0.005 A 
ATOM     29  C   UNL     1       1.439  -1.290   0.466  0.00  0.00    +0.020 A 
ATOM     30  C   UNL     1       0.960  -2.497   0.938  0.00  0.00    +0.113 A 
ATOM     31  N   UNL     1      -0.320  -2.801   0.840  0.00  0.00    -0.236 NA
BRANCH  21  32
ATOM     32  C   UNL     1      -5.319  -4.658  -0.016  0.00  0.00    +0.342 C 
ATOM     33  O   UNL     1      -4.895  -5.797  -0.008  0.00  0.00    -0.245 OA
BRANCH  32  34
ATOM     34  O   UNL     1      -6.645  -4.433  -0.096  0.00  0.00    -0.461 OA
BRANCH  34  36
ATOM     35  C   UNL     1      -8.954  -5.128  -0.253  0.00  0.00    +0.048 C 
ATOM     36  C   UNL     1      -7.494  -5.580  -0.168  0.00  0.00    +0.229 C 
ENDBRANCH  34  36
ENDBRANCH  32  34
ENDBRANCH  21  32
ENDBRANCH  20  25
ENDBRANCH   1  20
TORSDOF 7
