REMARK  Name = ZINC59301979
REMARK  6 active torsions:
REMARK  status: ('A' for Active; 'I' for Inactive)
REMARK    1  A    between atoms: C_1  and  C_2
REMARK    2  A    between atoms: C_2  and  C_3
REMARK    3  A    between atoms: C_8  and  N_9
REMARK    4  A    between atoms: N_12  and  N_13
REMARK    5  A    between atoms: C_14  and  C_15
REMARK    6  A    between atoms: C_18  and  N_20
REMARK                            x       y       z     vdW  Elec       q    Type
REMARK                         _______ _______ _______ _____ _____    ______ ____
ROOT
ATOM      1  N   UNL     1      -1.504  -0.317  -2.391  0.00  0.00    -0.268 N 
ATOM      2  C   UNL     1      -2.146  -0.543  -3.555  0.00  0.00    +0.323 C 
ATOM      3  O   UNL     1      -3.287  -0.965  -3.548  0.00  0.00    -0.251 OA
ATOM      4  N   UNL     1      -1.524  -0.302  -4.726  0.00  0.00    -0.190 N 
ATOM      5  H   UNL     1      -0.620   0.080  -2.395  0.00  0.00    +0.156 HD
ATOM      6  H   UNL     1      -1.986  -0.464  -5.563  0.00  0.00    +0.179 HD
ENDROOT
BRANCH   1  12
ATOM      7  C   UNL     1      -1.347  -1.123  -0.120  0.00  0.00    -0.026 A 
ATOM      8  C   UNL     1      -1.951  -1.451   1.078  0.00  0.00    +0.005 A 
ATOM      9  C   UNL     1      -3.320  -1.319   1.222  0.00  0.00    +0.000 A 
ATOM     10  C   UNL     1      -4.088  -0.858   0.168  0.00  0.00    +0.002 A 
ATOM     11  C   UNL     1      -3.490  -0.530  -1.032  0.00  0.00    +0.023 A 
ATOM     12  C   UNL     1      -2.115  -0.655  -1.179  0.00  0.00    +0.038 A 
BRANCH   7  14
ATOM     13  C   UNL     1       0.821   0.072   0.018  0.00  0.00    +0.009 C 
ATOM     14  C   UNL     1       0.145  -1.268  -0.277  0.00  0.00    +0.033 C 
ENDBRANCH   7  14
ENDBRANCH   1  12
BRANCH   4  15
ATOM     15  N   UNL     1      -0.210   0.184  -4.733  0.00  0.00    -0.183 NA
ATOM     16  C   UNL     1       0.391   0.417  -5.864  0.00  0.00    +0.176 C 
BRANCH  16  17
ATOM     17  C   UNL     1       1.764   0.925  -5.873  0.00  0.00    +0.151 A 
ATOM     18  C   UNL     1       2.504   1.215  -6.984  0.00  0.00    +0.068 A 
ATOM     19  C   UNL     1       3.754   1.670  -6.532  0.00  0.00    +0.079 A 
ATOM     20  C   UNL     1       3.722   1.638  -5.173  0.00  0.00    +0.204 A 
ATOM     21  O   UNL     1       2.516   1.193  -4.783  0.00  0.00    -0.439 OA
ATOM     22 BR   UNL     1       5.206   2.223  -7.610  0.00  0.00    -0.045 Br
BRANCH  20  23
ATOM     23  N   UNL     1       4.760   2.010  -4.330  0.00  0.00    -0.296 N 
ATOM     24  C   UNL     1       4.826   3.365  -3.760  0.00  0.00    +0.136 C 
ATOM     25  C   UNL     1       5.031   3.243  -2.246  0.00  0.00    +0.179 C 
ATOM     26  O   UNL     1       6.150   2.392  -1.989  0.00  0.00    -0.377 OA
ATOM     27  C   UNL     1       5.984   1.050  -2.453  0.00  0.00    +0.179 C 
ATOM     28  C   UNL     1       5.824   1.057  -3.974  0.00  0.00    +0.136 C 
ENDBRANCH  20  23
ENDBRANCH  16  17
ENDBRANCH   4  15
TORSDOF 5
