REMARK  Name = ZINC05487825
REMARK  6 active torsions:
REMARK  status: ('A' for Active; 'I' for Inactive)
REMARK    1  A    between atoms: C_1  and  C_2
REMARK    2  A    between atoms: C_6  and  C_9
REMARK    3  A    between atoms: C_10  and  C_11
REMARK    4  A    between atoms: C_10  and  N_50
REMARK    5  A    between atoms: C_17  and  O_29
REMARK    6  A    between atoms: C_18  and  C_22
REMARK                            x       y       z     vdW  Elec       q    Type
REMARK                         _______ _______ _______ _____ _____    ______ ____
ROOT
ATOM      1  C   UNL     1       3.831   2.715   2.323  0.00  0.00    +0.026 A 
ATOM      2  C   UNL     1       3.230   2.425   3.551  0.00  0.00    +0.184 A 
ATOM      3  O   UNL     1       3.870   2.709   4.686  0.00  0.00    -0.288 OA
ATOM      4  C   UNL     1       1.953   1.834   3.597  0.00  0.00    +0.052 A 
ATOM      5  C   UNL     1       1.292   1.540   2.448  0.00  0.00    +0.019 A 
ATOM      6  C   UNL     1       1.882   1.831   1.204  0.00  0.00    +0.060 A 
ATOM      7  C   UNL     1       1.214   1.528  -0.001  0.00  0.00    +0.138 A 
ATOM      8  C   UNL     1       1.862   1.839  -1.218  0.00  0.00    +0.060 A 
ATOM      9  C   UNL     1       3.110   2.416  -1.195  0.00  0.00    +0.207 A 
ATOM     10  O   UNL     1       3.732   2.692  -0.045  0.00  0.00    -0.462 OA
ATOM     11  C   UNL     1       3.166   2.419   1.148  0.00  0.00    +0.143 A 
ENDROOT
BRANCH   8  12
ATOM     12  C   UNL     1       1.199   1.546  -2.513  0.00  0.00    +0.007 A 
ATOM     13  C   UNL     1       1.746   0.604  -3.381  0.00  0.00    +0.010 A 
ATOM     14  C   UNL     1       1.126   0.335  -4.584  0.00  0.00    +0.001 A 
ATOM     15  C   UNL     1      -0.039   0.998  -4.928  0.00  0.00    +0.001 A 
ATOM     16  C   UNL     1      -0.588   1.933  -4.071  0.00  0.00    +0.020 A 
ATOM     17  C   UNL     1       0.022   2.207  -2.862  0.00  0.00    +0.049 A 
ATOM     18 CL   UNL     1      -0.672   3.376  -1.782  0.00  0.00    -0.083 Cl
ENDBRANCH   8  12
BRANCH   7  19
ATOM     19  O   UNL     1      -0.011   0.963   0.007  0.00  0.00    -0.505 OA
ATOM     20  H   UNL     1       0.002  -0.004   0.002  0.00  0.00    +0.292 HD
ENDBRANCH   7  19
BRANCH   1  21
ATOM     21  C   UNL     1       5.199   3.346   2.281  0.00  0.00    -0.035 C 
BRANCH  21  29
ATOM     22  C   UNL     1       5.302   7.339   3.734  0.00  0.00    +0.036 C 
ATOM     23  C   UNL     1       6.171   6.977   2.528  0.00  0.00    +0.099 C 
ATOM     24  C   UNL     1       6.366   5.459   2.477  0.00  0.00    -0.047 C 
ATOM     25  C   UNL     1       4.429   5.278   1.038  0.00  0.00    -0.047 C 
ATOM     26  C   UNL     1       4.253   6.797   1.104  0.00  0.00    +0.099 C 
ATOM     27  O   UNL     1       5.526   7.410   1.328  0.00  0.00    -0.378 OA
ATOM     28  C   UNL     1       3.668   7.301  -0.217  0.00  0.00    +0.036 C 
ATOM     29  N   UNL     1       5.046   4.817   2.299  0.00  0.00    +0.386 N 
ATOM     30  H   UNL     1       4.439   5.080   3.084  0.00  0.00    -0.081 HD
ENDBRANCH  21  29
ENDBRANCH   1  21
TORSDOF 4
