REMARK  Name = ZINC53127021
REMARK  5 active torsions:
REMARK  status: ('A' for Active; 'I' for Inactive)
REMARK    1  A    between atoms: C_2  and  S_7
REMARK    2  A    between atoms: S_7  and  N_10
REMARK    3  A    between atoms: N_10  and  C_11
REMARK    4  A    between atoms: C_11  and  C_17
REMARK    5  A    between atoms: C_17  and  O_18
REMARK                            x       y       z     vdW  Elec       q    Type
REMARK                         _______ _______ _______ _____ _____    ______ ____
ROOT
ATOM      1  N   UNL     1       1.641   4.255   1.495  0.00  0.00    -0.181 NA
ATOM      2  H   UNL     1       1.786   4.962   0.847  0.00  0.00    +0.149 HD
ENDROOT
BRANCH   1   3
ATOM      3  C   UNL     1       2.769   3.724   2.264  0.00  0.00    +0.063 C 
ATOM      4  C   UNL     1       4.075   4.310   1.724  0.00  0.00    +0.026 C 
ATOM      5  C   UNL     1       4.043   5.834   1.852  0.00  0.00    +0.002 C 
ATOM      6  C   UNL     1       3.882   6.219   3.324  0.00  0.00    +0.000 C 
ATOM      7  C   UNL     1       2.576   5.633   3.865  0.00  0.00    +0.002 C 
ATOM      8  C   UNL     1       2.609   4.109   3.736  0.00  0.00    +0.026 C 
BRANCH   3   9
ATOM      9  C   UNL     1       2.802   2.200   2.136  0.00  0.00    +0.179 C 
BRANCH   9  10
ATOM     10  O   UNL     1       2.805   1.839   0.753  0.00  0.00    -0.393 OA
ATOM     11  H   UNL     1       2.749   0.886   0.596  0.00  0.00    +0.209 HD
ENDBRANCH   9  10
ENDBRANCH   3   9
ENDBRANCH   1   3
BRANCH   1  12
ATOM     12  S   UNL     1       0.118   3.649   1.733  0.00  0.00    +0.067 S 
ATOM     13  O   UNL     1       0.232   2.233   1.678  0.00  0.00    -0.152 OA
ATOM     14  O   UNL     1      -0.748   4.378   0.874  0.00  0.00    -0.152 OA
BRANCH  12  16
ATOM     15  C   UNL     1      -0.837   5.216   3.885  0.00  0.00    +0.149 A 
ATOM     16  C   UNL     1      -0.351   4.053   3.382  0.00  0.00    +0.163 A 
ATOM     17  S   UNL     1      -0.320   3.045   4.856  0.00  0.00    -0.036 S 
ATOM     18  C   UNL     1      -0.918   4.192   5.933  0.00  0.00    +0.169 A 
ATOM     19  N   UNL     1      -1.110   5.243   5.175  0.00  0.00    -0.234 NA
ATOM     20 CL   UNL     1      -1.211   4.022   7.636  0.00  0.00    -0.054 Cl
ENDBRANCH  12  16
ENDBRANCH   1  12
TORSDOF 5
