REMARK  Name = ZINC64166484
REMARK  10 active torsions:
REMARK  status: ('A' for Active; 'I' for Inactive)
REMARK    1  A    between atoms: C_1  and  C_2
REMARK    2  A    between atoms: C_5  and  O_31
REMARK    3  A    between atoms: C_10  and  C_12
REMARK    4  A    between atoms: C_12  and  N_13
REMARK    5  A    between atoms: N_16  and  C_23
REMARK    6  A    between atoms: C_17  and  C_20
REMARK    7  A    between atoms: C_20  and  C_21
REMARK    8  A    between atoms: C_21  and  O_22
REMARK    9  A    between atoms: C_23  and  C_24
REMARK   10  A    between atoms: O_31  and  C_32
REMARK                            x       y       z     vdW  Elec       q    Type
REMARK                         _______ _______ _______ _____ _____    ______ ____
ROOT
ATOM      1  N   UNL     1       1.221  -1.597   3.201  0.00  0.00    -0.303 NA
ATOM      2  C   UNL     1       0.195  -1.378   4.230  0.00  0.00    +0.066 C 
ATOM      3  C   UNL     1       0.279  -2.492   5.276  0.00  0.00    -0.062 C 
ATOM      4  N   UNL     1       1.616  -2.492   5.885  0.00  0.00    +0.386 N 
ATOM      5  C   UNL     1       2.628  -2.737   4.849  0.00  0.00    -0.052 C 
ATOM      6  C   UNL     1       2.563  -1.625   3.799  0.00  0.00    +0.069 C 
ATOM      7  H   UNL     1       1.788  -1.597   6.318  0.00  0.00    -0.081 HD
ENDROOT
BRANCH   1   8
ATOM      8  C   UNL     1       1.135  -0.578   2.146  0.00  0.00    +0.113 C 
BRANCH   8  18
ATOM      9  C   UNL     1      -0.179   1.722   0.279  0.00  0.00    +0.042 C 
ATOM     10  C   UNL     1      -0.230   0.217   0.216  0.00  0.00    -0.040 C 
ATOM     11  C   UNL     1      -0.323  -0.546  -0.896  0.00  0.00    +0.002 A 
ATOM     12  C   UNL     1      -0.402  -0.221  -2.324  0.00  0.00    +0.055 A 
ATOM     13  C   UNL     1      -0.490  -1.221  -3.233  0.00  0.00    +0.121 A 
ATOM     14  C   UNL     1      -0.509  -2.576  -2.858  0.00  0.00    +0.047 A 
ATOM     15  C   UNL     1      -0.441  -2.975  -1.570  0.00  0.00    +0.029 A 
ATOM     16  C   UNL     1      -0.342  -1.974  -0.502  0.00  0.00    +0.043 A 
ATOM     17  N   UNL     1      -0.264  -2.088   0.800  0.00  0.00    -0.376 N 
ATOM     18  C   UNL     1      -0.180  -0.744   1.382  0.00  0.00    +0.120 C 
ATOM     19  H   UNL     1      -0.259  -2.921   1.296  0.00  0.00    +0.160 HD
BRANCH  13  20
ATOM     20  O   UNL     1      -0.564  -0.904  -4.553  0.00  0.00    -0.495 OA
ATOM     21  C   UNL     1      -0.656  -1.991  -5.476  0.00  0.00    +0.277 C 
ENDBRANCH  13  20
ENDBRANCH   8  18
ENDBRANCH   1   8
BRANCH   5  22
ATOM     22  C   UNL     1       4.018  -2.755   5.488  0.00  0.00    +0.014 C 
BRANCH  22  23
ATOM     23  C   UNL     1       5.065  -3.079   4.421  0.00  0.00    +0.154 C 
BRANCH  23  24
ATOM     24  O   UNL     1       6.346  -3.218   5.038  0.00  0.00    -0.395 OA
ATOM     25  H   UNL     1       7.061  -3.424   4.420  0.00  0.00    +0.209 HD
ENDBRANCH  23  24
ENDBRANCH  22  23
ENDBRANCH   5  22
BRANCH   4  26
ATOM     26  C   UNL     1       1.690  -3.550   6.901  0.00  0.00    -0.040 C 
BRANCH  26  27
ATOM     27  C   UNL     1       0.737  -3.234   8.025  0.00  0.00    -0.029 A 
ATOM     28  C   UNL     1       1.209  -2.664   9.193  0.00  0.00    +0.004 A 
ATOM     29  C   UNL     1       0.335  -2.374  10.223  0.00  0.00    +0.000 A 
ATOM     30  C   UNL     1      -1.012  -2.655  10.088  0.00  0.00    +0.003 A 
ATOM     31  C   UNL     1      -1.486  -3.225   8.922  0.00  0.00    +0.038 A 
ATOM     32  C   UNL     1      -0.613  -3.510   7.887  0.00  0.00    +0.125 A 
ATOM     33  F   UNL     1      -1.076  -4.063   6.744  0.00  0.00    -0.205 F 
ENDBRANCH  26  27
ENDBRANCH   4  26
TORSDOF 8
