REMARK  Name = ZINC22345429
REMARK  14 active torsions:
REMARK  status: ('A' for Active; 'I' for Inactive)
REMARK    1  A    between atoms: C_1  and  C_2
REMARK    2  A    between atoms: C_2  and  C_3
REMARK    3  A    between atoms: N_9  and  C_10
REMARK    4  A    between atoms: C_10  and  C_11
REMARK    5  A    between atoms: C_11  and  C_12
REMARK    6  A    between atoms: C_12  and  N_13
REMARK    7  A    between atoms: C_14  and  C_16
REMARK    8  A    between atoms: C_16  and  N_17
REMARK    9  A    between atoms: N_17  and  C_18
REMARK   10  A    between atoms: N_17  and  S_27
REMARK   11  A    between atoms: C_21  and  O_24
REMARK   12  A    between atoms: O_24  and  C_25
REMARK   13  A    between atoms: C_25  and  C_26
REMARK   14  A    between atoms: S_27  and  C_30
REMARK                            x       y       z     vdW  Elec       q    Type
REMARK                         _______ _______ _______ _____ _____    ______ ____
ROOT
ATOM      1  N   UNL     1      -9.577   1.035   3.971  0.00  0.00    -0.194 N 
ENDROOT
BRANCH   1   2
ATOM      2  C   UNL     1     -10.335   2.066   3.404  0.00  0.00    +0.052 A 
ATOM      3  C   UNL     1     -11.713   1.938   3.298  0.00  0.00    +0.028 A 
ATOM      4  C   UNL     1     -12.461   2.958   2.744  0.00  0.00    +0.047 A 
ATOM      5  C   UNL     1     -11.835   4.106   2.284  0.00  0.00    +0.121 A 
ATOM      6  C   UNL     1     -10.457   4.234   2.385  0.00  0.00    +0.047 A 
ATOM      7  C   UNL     1      -9.708   3.216   2.943  0.00  0.00    +0.028 A 
BRANCH   5   8
ATOM      8  O   UNL     1     -12.571   5.109   1.734  0.00  0.00    -0.492 OA
BRANCH   8   9
ATOM      9  C   UNL     1     -13.985   4.911   1.662  0.00  0.00    +0.225 C 
ATOM     10  C   UNL     1     -14.639   6.135   1.019  0.00  0.00    +0.048 C 
ENDBRANCH   8   9
ENDBRANCH   5   8
ENDBRANCH   1   2
BRANCH   1  11
ATOM     11  S   UNL     1     -10.140  -0.522   3.936  0.00  0.00    +0.075 S 
ATOM     12  O   UNL     1     -11.064  -0.596   2.858  0.00  0.00    -0.150 OA
ATOM     13  O   UNL     1      -9.002  -1.368   4.023  0.00  0.00    -0.150 OA
BRANCH  11  14
ATOM     14  C   UNL     1     -11.068  -0.773   5.412  0.00  0.00    +0.109 A 
ATOM     15  C   UNL     1     -10.422  -1.125   6.583  0.00  0.00    +0.030 A 
ATOM     16  C   UNL     1     -11.149  -1.317   7.743  0.00  0.00    +0.022 A 
ATOM     17  C   UNL     1     -12.524  -1.167   7.730  0.00  0.00    +0.041 A 
ATOM     18  C   UNL     1     -13.171  -0.821   6.557  0.00  0.00    +0.022 A 
ATOM     19  C   UNL     1     -12.442  -0.624   5.399  0.00  0.00    +0.030 A 
ATOM     20 CL   UNL     1     -13.438  -1.415   9.185  0.00  0.00    -0.084 Cl
ENDBRANCH  11  14
ENDBRANCH   1  11
BRANCH   1  21
ATOM     21  C   UNL     1      -8.285   1.333   4.594  0.00  0.00    +0.227 C 
BRANCH  21  23
ATOM     22  N   UNL     1      -5.931   1.603   3.882  0.00  0.00    -0.314 N 
ATOM     23  C   UNL     1      -7.210   1.349   3.538  0.00  0.00    +0.232 C 
ATOM     24  O   UNL     1      -7.494   1.132   2.380  0.00  0.00    -0.274 OA
ATOM     25  H   UNL     1      -5.673   1.799   4.933  0.00  0.00    +0.149 HD
BRANCH  22  26
ATOM     26  C   UNL     1      -4.886   1.618   2.856  0.00  0.00    +0.102 C 
BRANCH  26  27
ATOM     27  C   UNL     1      -3.537   1.929   3.507  0.00  0.00    +0.000 C 
BRANCH  27  28
ATOM     28  C   UNL     1      -2.445   1.945   2.436  0.00  0.00    -0.077 C 
BRANCH  28  34
ATOM     29  C   UNL     1      -0.061   2.168   2.078  0.00  0.00    -0.069 C 
ATOM     30  C   UNL     1       1.247   2.625   2.728  0.00  0.00    -0.015 C 
ATOM     31  C   UNL     1       1.556   1.727   3.929  0.00  0.00    -0.003 C 
ATOM     32  C   UNL     1       0.385   1.787   4.915  0.00  0.00    -0.019 C 
ATOM     33  C   UNL     1      -0.898   1.354   4.202  0.00  0.00    -0.078 C 
ATOM     34  N   UNL     1      -1.150   2.244   3.061  0.00  0.00    +0.382 N 
ATOM     35  H   UNL     1      -1.186   3.275   3.442  0.00  0.00    -0.081 HD
BRANCH  29  37
ATOM     36  C   UNL     1       0.684   2.897  -0.192  0.00  0.00    +0.002 C 
ATOM     37  C   UNL     1      -0.384   3.075   0.889  0.00  0.00    -0.019 C 
ENDBRANCH  29  37
ENDBRANCH  28  34
ENDBRANCH  27  28
ENDBRANCH  26  27
ENDBRANCH  22  26
ENDBRANCH  21  23
ENDBRANCH   1  21
TORSDOF 12
