REMARK  Name = ZINC40109039
REMARK  15 active torsions:
REMARK  status: ('A' for Active; 'I' for Inactive)
REMARK    1  A    between atoms: C_1  and  C_2
REMARK    2  A    between atoms: C_2  and  C_3
REMARK    3  A    between atoms: C_6  and  C_9
REMARK    4  A    between atoms: C_11  and  C_23
REMARK    5  A    between atoms: N_15  and  C_16
REMARK    6  A    between atoms: C_16  and  C_17
REMARK    7  A    between atoms: C_17  and  O_18
REMARK    8  A    between atoms: O_18  and  C_19
REMARK    9  A    between atoms: C_19  and  C_20
REMARK   10  A    between atoms: C_20  and  O_21
REMARK   11  A    between atoms: C_23  and  C_25
REMARK   12  A    between atoms: C_29  and  O_31
REMARK   13  A    between atoms: O_31  and  C_32
REMARK   14  A    between atoms: C_32  and  C_33
REMARK   15  A    between atoms: C_36  and  C_39
REMARK                            x       y       z     vdW  Elec       q    Type
REMARK                         _______ _______ _______ _____ _____    ______ ____
ROOT
ATOM      1  C   UNL     1       2.444  -1.543  -4.301  0.00  0.00    +0.145 C 
ATOM      2  C   UNL     1       3.170  -0.688  -5.314  0.00  0.00    +0.076 C 
ATOM      3  C   UNL     1       4.430  -1.174  -5.404  0.00  0.00    +0.249 C 
ATOM      4  C   UNL     1       4.574  -2.324  -4.487  0.00  0.00    +0.288 C 
ATOM      5  O   UNL     1       5.589  -2.975  -4.338  0.00  0.00    -0.266 OA
ATOM      6  N   UNL     1       3.413  -2.544  -3.840  0.00  0.00    -0.281 N 
ATOM      7  O   UNL     1       5.403  -0.684  -6.206  0.00  0.00    -0.282 OA
ENDROOT
BRANCH   1  11
ATOM      8  C   UNL     1       1.138   0.857  -1.018  0.00  0.00    -0.048 A 
ATOM      9  C   UNL     1       0.223   0.406  -1.951  0.00  0.00    +0.004 A 
ATOM     10  C   UNL     1       0.646  -0.371  -3.014  0.00  0.00    +0.006 A 
ATOM     11  C   UNL     1       1.984  -0.696  -3.143  0.00  0.00    -0.022 A 
ATOM     12  C   UNL     1       2.898  -0.243  -2.211  0.00  0.00    +0.006 A 
ATOM     13  C   UNL     1       2.476   0.537  -1.150  0.00  0.00    +0.004 A 
BRANCH   8  15
ATOM     14  C   UNL     1       0.728   3.180  -0.255  0.00  0.00    +0.009 C 
ATOM     15  C   UNL     1       0.677   1.703   0.141  0.00  0.00    +0.032 C 
ENDBRANCH   8  15
ENDBRANCH   1  11
BRANCH   2  16
ATOM     16  C   UNL     1       2.615   0.448  -6.056  0.00  0.00    +0.195 C 
ATOM     17  O   UNL     1       3.067   1.565  -5.886  0.00  0.00    -0.287 OA
BRANCH  16  18
ATOM     18  C   UNL     1       1.508   0.236  -7.013  0.00  0.00    +0.026 A 
ATOM     19  C   UNL     1       1.062  -1.057  -7.294  0.00  0.00    +0.012 A 
ATOM     20  C   UNL     1       0.028  -1.251  -8.186  0.00  0.00    +0.004 A 
ATOM     21  C   UNL     1      -0.570  -0.167  -8.804  0.00  0.00    +0.046 A 
ATOM     22  C   UNL     1      -0.134   1.122  -8.531  0.00  0.00    +0.122 A 
ATOM     23  C   UNL     1       0.900   1.329  -7.633  0.00  0.00    +0.057 A 
BRANCH  22  24
ATOM     24  O   UNL     1      -0.725   2.183  -9.142  0.00  0.00    -0.487 OA
BRANCH  24  25
ATOM     25  C   UNL     1      -1.788   1.897 -10.053  0.00  0.00    +0.264 C 
BRANCH  25  26
ATOM     26  C   UNL     1      -2.317   3.186 -10.628  0.00  0.00    -0.010 A 
ATOM     27  C   UNL     1      -3.344   3.857  -9.992  0.00  0.00    +0.007 A 
ATOM     28  C   UNL     1      -3.829   5.039 -10.519  0.00  0.00    +0.004 A 
ATOM     29  C   UNL     1      -3.286   5.550 -11.683  0.00  0.00    -0.050 A 
ATOM     30  C   UNL     1      -2.258   4.880 -12.319  0.00  0.00    +0.004 A 
ATOM     31  C   UNL     1      -1.770   3.700 -11.789  0.00  0.00    +0.007 A 
ATOM     32  C   UNL     1      -3.815   6.838 -12.259  0.00  0.00    +0.044 C 
ENDBRANCH  25  26
ENDBRANCH  24  25
ENDBRANCH  22  24
ENDBRANCH  16  18
ENDBRANCH   2  16
BRANCH   6  33
ATOM     33  C   UNL     1       3.162  -3.595  -2.850  0.00  0.00    +0.137 C 
BRANCH  33  34
ATOM     34  C   UNL     1       2.655  -4.852  -3.560  0.00  0.00    +0.179 C 
BRANCH  34  35
ATOM     35  O   UNL     1       3.684  -5.369  -4.407  0.00  0.00    -0.376 OA
BRANCH  35  36
ATOM     36  C   UNL     1       3.311  -6.550  -5.120  0.00  0.00    +0.187 C 
BRANCH  36  37
ATOM     37  C   UNL     1       4.482  -7.011  -5.990  0.00  0.00    +0.184 C 
BRANCH  37  38
ATOM     38  O   UNL     1       5.572  -7.402  -5.153  0.00  0.00    -0.393 OA
ATOM     39  H   UNL     1       6.351  -7.707  -5.638  0.00  0.00    +0.209 HD
ENDBRANCH  37  38
ENDBRANCH  36  37
ENDBRANCH  35  36
ENDBRANCH  34  35
ENDBRANCH  33  34
ENDBRANCH   6  33
TORSDOF 13
