REMARK  Name = ZINC07371739
REMARK  6 active torsions:
REMARK  status: ('A' for Active; 'I' for Inactive)
REMARK    1  A    between atoms: C_1  and  N_2
REMARK    2  A    between atoms: C_3  and  C_23
REMARK    3  A    between atoms: C_6  and  S_7
REMARK    4  A    between atoms: S_7  and  C_8
REMARK    5  A    between atoms: C_8  and  C_9
REMARK    6  A    between atoms: N_15  and  C_16
REMARK                            x       y       z     vdW  Elec       q    Type
REMARK                         _______ _______ _______ _____ _____    ______ ____
ROOT
ATOM      1  C   UNL     1       0.589  -1.962   5.228  0.00  0.00    +0.146 A 
ATOM      2  N   UNL     1       1.783  -2.039   5.789  0.00  0.00    -0.199 NA
ATOM      3  C   UNL     1       1.926  -1.797   7.090  0.00  0.00    +0.217 A 
ATOM      4  N   UNL     1       0.866  -1.478   7.825  0.00  0.00    -0.181 NA
ATOM      5  C   UNL     1      -0.333  -1.401   7.257  0.00  0.00    +0.224 A 
ATOM      6  N   UNL     1      -0.466  -1.640   5.954  0.00  0.00    -0.198 NA
ATOM      7  N   UNL     1      -1.438  -1.071   8.017  0.00  0.00    -0.284 N 
ATOM      8  N   UNL     1       3.173  -1.879   7.676  0.00  0.00    -0.327 N 
ATOM      9  H   UNL     1      -2.322  -1.088   7.619  0.00  0.00    +0.155 HD
ATOM     10  H   UNL     1       3.946  -2.112   7.139  0.00  0.00    +0.145 HD
ATOM     11  H   UNL     1       3.276  -1.702   8.624  0.00  0.00    +0.145 HD
ENDROOT
BRANCH   7  12
ATOM     12  C   UNL     1      -1.282  -0.711   9.359  0.00  0.00    +0.034 A 
ATOM     13  C   UNL     1      -0.147  -0.021   9.767  0.00  0.00    +0.023 A 
ATOM     14  C   UNL     1       0.004   0.334  11.093  0.00  0.00    +0.002 A 
ATOM     15  C   UNL     1      -0.972   0.002  12.014  0.00  0.00    +0.000 A 
ATOM     16  C   UNL     1      -2.103  -0.685  11.612  0.00  0.00    +0.002 A 
ATOM     17  C   UNL     1      -2.263  -1.037  10.286  0.00  0.00    +0.023 A 
ENDBRANCH   7  12
BRANCH   1  18
ATOM     18  C   UNL     1       0.433  -2.236   3.754  0.00  0.00    +0.153 C 
BRANCH  18  19
ATOM     19  S   UNL     1       0.643  -0.691   2.826  0.00  0.00    -0.078 S 
BRANCH  19  25
ATOM     20  C   UNL     1       0.760   1.088   0.043  0.00  0.00    +0.153 C 
ATOM     21  N   UNL     1       0.501  -0.354   0.053  0.00  0.00    -0.305 N 
ATOM     22  C   UNL     1       0.281  -1.167  -1.035  0.00  0.00    +0.165 A 
ATOM     23  N   UNL     1       0.093  -2.382  -0.576  0.00  0.00    -0.128 NA
ATOM     24  N   UNL     1       0.180  -2.385   0.706  0.00  0.00    -0.122 NA
ATOM     25  C   UNL     1       0.433  -1.172   1.144  0.00  0.00    +0.192 A 
BRANCH  22  26
ATOM     26  C   UNL     1       0.259  -0.750  -2.453  0.00  0.00    +0.019 A 
ATOM     27  C   UNL     1       0.820   0.470  -2.833  0.00  0.00    +0.011 A 
ATOM     28  C   UNL     1       0.796   0.853  -4.159  0.00  0.00    +0.001 A 
ATOM     29  C   UNL     1       0.218   0.031  -5.109  0.00  0.00    +0.000 A 
ATOM     30  C   UNL     1      -0.339  -1.180  -4.739  0.00  0.00    +0.001 A 
ATOM     31  C   UNL     1      -0.317  -1.578  -3.418  0.00  0.00    +0.011 A 
ENDBRANCH  22  26
ENDBRANCH  19  25
ENDBRANCH  18  19
ENDBRANCH   1  18
TORSDOF 5
