REMARK  Name = ZINC12064239
REMARK  7 active torsions:
REMARK  status: ('A' for Active; 'I' for Inactive)
REMARK    1  A    between atoms: C_1  and  C_2
REMARK    2  A    between atoms: C_9  and  N_15
REMARK    3  A    between atoms: C_10  and  C_11
REMARK    4  A    between atoms: N_13  and  C_14
REMARK    5  A    between atoms: C_16  and  C_18
REMARK    6  A    between atoms: C_21  and  S_24
REMARK    7  A    between atoms: S_24  and  N_27
REMARK                            x       y       z     vdW  Elec       q    Type
REMARK                         _______ _______ _______ _____ _____    ______ ____
ROOT
ATOM      1  N   UNL     1       1.929  -5.845  -1.736  0.00  0.00    -0.275 N 
ATOM      2  C   UNL     1       2.227  -6.106  -3.024  0.00  0.00    +0.249 C 
ATOM      3  O   UNL     1       2.198  -5.213  -3.848  0.00  0.00    -0.270 OA
ATOM      4  H   UNL     1       1.952  -6.558  -1.079  0.00  0.00    +0.156 HD
ENDROOT
BRANCH   1  12
ATOM      5  C   UNL     1      -0.019   1.526   0.010  0.00  0.00    +0.008 C 
ATOM      6  C   UNL     1       0.002  -0.004   0.002  0.00  0.00    -0.009 C 
ATOM      7  C   UNL     1       0.742  -0.514   1.242  0.00  0.00    +0.008 C 
ATOM      8  C   UNL     1       0.557  -2.027   1.373  0.00  0.00    +0.037 C 
ATOM      9  C   UNL     1       0.941  -2.684   0.053  0.00  0.00    -0.023 A 
ATOM     10  C   UNL     1       1.008  -1.966  -1.089  0.00  0.00    -0.004 A 
ATOM     11  S   UNL     1       1.484  -3.133  -2.331  0.00  0.00    -0.077 S 
ATOM     12  C   UNL     1       1.592  -4.557  -1.350  0.00  0.00    +0.085 A 
ATOM     13  C   UNL     1       1.258  -4.096  -0.085  0.00  0.00    +0.069 A 
ATOM     14  C   UNL     1       0.736  -0.502  -1.252  0.00  0.00    +0.046 C 
BRANCH  13  15
ATOM     15  C   UNL     1       1.226  -4.998   1.070  0.00  0.00    +0.246 C 
ATOM     16  O   UNL     1       0.198  -5.582   1.358  0.00  0.00    -0.270 OA
ATOM     17  N   UNL     1       2.336  -5.182   1.813  0.00  0.00    -0.314 N 
ATOM     18  C   UNL     1       2.304  -6.084   2.967  0.00  0.00    +0.128 C 
ATOM     19  H   UNL     1       3.156  -4.716   1.583  0.00  0.00    +0.149 HD
ENDBRANCH  13  15
ENDBRANCH   1  12
BRANCH   2  20
ATOM     20  C   UNL     1       2.587  -7.479  -3.435  0.00  0.00    +0.037 A 
ATOM     21  C   UNL     1       2.626  -8.507  -2.491  0.00  0.00    +0.015 A 
ATOM     22  C   UNL     1       2.957  -9.787  -2.882  0.00  0.00    +0.029 A 
ATOM     23  C   UNL     1       3.262 -10.052  -4.206  0.00  0.00    +0.106 A 
ATOM     24  C   UNL     1       3.231  -9.038  -5.146  0.00  0.00    +0.029 A 
ATOM     25  C   UNL     1       2.895  -7.754  -4.769  0.00  0.00    +0.015 A 
BRANCH  23  26
ATOM     26  S   UNL     1       3.690 -11.690  -4.696  0.00  0.00    +0.061 S 
ATOM     27  O   UNL     1       3.117 -12.565  -3.734  0.00  0.00    -0.153 OA
ATOM     28  O   UNL     1       3.400 -11.787  -6.084  0.00  0.00    -0.153 OA
BRANCH  26  29
ATOM     29  N   UNL     1       5.333 -11.832  -4.545  0.00  0.00    -0.177 NA
ATOM     30  C   UNL     1       6.220 -11.507  -5.671  0.00  0.00    +0.109 C 
ATOM     31  C   UNL     1       7.264 -10.486  -5.193  0.00  0.00    +0.017 C 
ATOM     32  C   UNL     1       7.987 -11.043  -3.964  0.00  0.00    +0.003 C 
ATOM     33  C   UNL     1       6.979 -11.267  -2.834  0.00  0.00    +0.017 C 
ATOM     34  C   UNL     1       5.932 -12.290  -3.284  0.00  0.00    +0.109 C 
ENDBRANCH  26  29
ENDBRANCH  23  26
ENDBRANCH   2  20
TORSDOF 5
