REMARK  Name = ZINC02368526
REMARK  10 active torsions:
REMARK  status: ('A' for Active; 'I' for Inactive)
REMARK    1  A    between atoms: C_1  and  N_2
REMARK    2  A    between atoms: N_2  and  C_3
REMARK    3  A    between atoms: N_2  and  C_4
REMARK    4  A    between atoms: C_7  and  P_10
REMARK    5  A    between atoms: P_10  and  C_12
REMARK    6  A    between atoms: P_10  and  O_28
REMARK    7  A    between atoms: C_12  and  C_14
REMARK    8  A    between atoms: C_12  and  N_21
REMARK    9  A    between atoms: N_21  and  C_22
REMARK   10  A    between atoms: O_28  and  C_29
REMARK                            x       y       z     vdW  Elec       q    Type
REMARK                         _______ _______ _______ _____ _____    ______ ____
ROOT
ATOM      1  P   UNL     1      -0.837   1.557  -1.296  0.00  0.00    +0.258 P 
ATOM      2  O   UNL     1      -1.101   3.010  -1.406  0.00  0.00    -0.284 OA
ENDROOT
BRANCH   1   6
ATOM      3  C   UNL     1       1.210   0.083  -5.120  0.00  0.00    +0.029 A 
ATOM      4  C   UNL     1       0.393  -0.774  -4.393  0.00  0.00    +0.024 A 
ATOM      5  C   UNL     1      -0.222  -0.326  -3.240  0.00  0.00    +0.015 A 
ATOM      6  C   UNL     1      -0.027   0.974  -2.810  0.00  0.00    +0.039 A 
ATOM      7  C   UNL     1       0.781   1.831  -3.535  0.00  0.00    +0.015 A 
ATOM      8  C   UNL     1       1.404   1.388  -4.685  0.00  0.00    +0.024 A 
BRANCH   3  10
ATOM      9  C   UNL     1       1.722  -1.772  -6.681  0.00  0.00    +0.129 C 
ATOM     10  N   UNL     1       1.833  -0.366  -6.286  0.00  0.00    -0.336 N 
ATOM     11  C   UNL     1       2.599   0.569  -7.114  0.00  0.00    +0.129 C 
ENDBRANCH   3  10
ENDBRANCH   1   6
BRANCH   1  12
ATOM     12  C   UNL     1       0.249   1.243   0.134  0.00  0.00    +0.193 C 
BRANCH  12  13
ATOM     13  C   UNL     1       1.594   1.879  -0.107  0.00  0.00    -0.018 A 
ATOM     14  C   UNL     1       1.792   3.213   0.197  0.00  0.00    +0.007 A 
ATOM     15  C   UNL     1       3.027   3.795  -0.019  0.00  0.00    +0.020 A 
ATOM     16  C   UNL     1       4.061   3.045  -0.550  0.00  0.00    +0.041 A 
ATOM     17  C   UNL     1       3.861   1.711  -0.859  0.00  0.00    +0.020 A 
ATOM     18  C   UNL     1       2.627   1.129  -0.637  0.00  0.00    +0.007 A 
ATOM     19 CL   UNL     1       5.611   3.777  -0.828  0.00  0.00    -0.084 Cl
ENDBRANCH  12  13
BRANCH  12  20
ATOM     20  N   UNL     1      -0.353   1.817   1.340  0.00  0.00    -0.329 N 
ATOM     21  H   UNL     1      -0.308   2.774   1.496  0.00  0.00    +0.147 HD
BRANCH  20  22
ATOM     22  C   UNL     1      -0.993   0.988   2.264  0.00  0.00    +0.028 A 
ATOM     23  C   UNL     1      -0.978  -0.390   2.090  0.00  0.00    +0.023 A 
ATOM     24  C   UNL     1      -1.607  -1.208   3.008  0.00  0.00    +0.002 A 
ATOM     25  C   UNL     1      -2.260  -0.655   4.095  0.00  0.00    +0.000 A 
ATOM     26  C   UNL     1      -2.281   0.717   4.269  0.00  0.00    +0.002 A 
ATOM     27  C   UNL     1      -1.650   1.540   3.357  0.00  0.00    +0.023 A 
ENDBRANCH  20  22
ENDBRANCH  12  20
ENDBRANCH   1  12
BRANCH   1  28
ATOM     28  O   UNL     1      -2.229   0.773  -1.096  0.00  0.00    -0.320 OA
BRANCH  28  29
ATOM     29  C   UNL     1      -3.328   0.896  -2.000  0.00  0.00    +0.126 C 
ATOM     30  C   UNL     1      -4.503   1.569  -1.286  0.00  0.00    +0.032 C 
ATOM     31  C   UNL     1      -5.680   1.700  -2.255  0.00  0.00    +0.003 C 
ATOM     32  C   UNL     1      -6.104   0.310  -2.734  0.00  0.00    +0.000 C 
ATOM     33  C   UNL     1      -4.929  -0.363  -3.448  0.00  0.00    +0.003 C 
ATOM     34  C   UNL     1      -3.752  -0.494  -2.480  0.00  0.00    +0.032 C 
ENDBRANCH  28  29
ENDBRANCH   1  28
TORSDOF 8
