REMARK  Name = ZINC36821659
REMARK  7 active torsions:
REMARK  status: ('A' for Active; 'I' for Inactive)
REMARK    1  A    between atoms: C_1  and  C_2
REMARK    2  A    between atoms: C_11  and  N_30
REMARK    3  A    between atoms: C_13  and  S_15
REMARK    4  A    between atoms: S_15  and  C_16
REMARK    5  A    between atoms: C_16  and  C_17
REMARK    6  A    between atoms: N_19  and  C_20
REMARK    7  A    between atoms: C_23  and  N_27
REMARK                            x       y       z     vdW  Elec       q    Type
REMARK                         _______ _______ _______ _____ _____    ______ ____
ROOT
ATOM      1  C   UNL     1      -2.871  -0.106  -0.192  0.00  0.00    +0.008 C 
ATOM      2  C   UNL     1      -2.321  -1.526  -0.341  0.00  0.00    -0.009 C 
ATOM      3  C   UNL     1      -1.107  -1.511  -1.275  0.00  0.00    +0.008 C 
ATOM      4  C   UNL     1      -0.705  -2.943  -1.625  0.00  0.00    +0.037 C 
ATOM      5  C   UNL     1      -0.527  -3.737  -0.334  0.00  0.00    -0.025 A 
ATOM      6  C   UNL     1      -1.070  -3.298   0.823  0.00  0.00    -0.004 A 
ATOM      7  S   UNL     1      -0.622  -4.510   2.041  0.00  0.00    -0.073 S 
ATOM      8  C   UNL     1       0.293  -5.603   1.001  0.00  0.00    +0.115 A 
ATOM      9  C   UNL     1       0.219  -4.984  -0.273  0.00  0.00    +0.051 A 
ATOM     10  C   UNL     1       0.879  -5.644  -1.350  0.00  0.00    +0.129 A 
ATOM     11  N   UNL     1       1.500  -6.781  -1.044  0.00  0.00    -0.207 NA
ATOM     12  C   UNL     1       1.528  -7.303   0.173  0.00  0.00    +0.191 A 
ATOM     13  N   UNL     1       0.930  -6.735   1.223  0.00  0.00    -0.214 NA
ATOM     14  C   UNL     1      -1.883  -2.056   1.031  0.00  0.00    +0.046 C 
ENDROOT
BRANCH  10  15
ATOM     15  N   UNL     1       0.874  -5.134  -2.635  0.00  0.00    -0.343 N 
ATOM     16  H   UNL     1       1.500  -5.473  -3.294  0.00  0.00    +0.144 HD
ATOM     17  H   UNL     1       0.244  -4.438  -2.878  0.00  0.00    +0.144 HD
ENDBRANCH  10  15
BRANCH  12  18
ATOM     18  S   UNL     1       2.394  -8.818   0.418  0.00  0.00    -0.077 S 
BRANCH  18  19
ATOM     19  C   UNL     1       3.037  -9.227  -1.229  0.00  0.00    +0.173 C 
BRANCH  19  20
ATOM     20  C   UNL     1       3.809 -10.519  -1.160  0.00  0.00    +0.228 C 
ATOM     21  O   UNL     1       3.915 -11.107  -0.104  0.00  0.00    -0.275 OA
ATOM     22  N   UNL     1       4.381 -11.022  -2.271  0.00  0.00    -0.284 N 
ATOM     23  H   UNL     1       4.368 -10.513  -3.097  0.00  0.00    +0.155 HD
BRANCH  22  24
ATOM     24  C   UNL     1       4.995 -12.280  -2.235  0.00  0.00    +0.052 A 
ATOM     25  C   UNL     1       4.681 -13.178  -1.223  0.00  0.00    +0.027 A 
ATOM     26  C   UNL     1       5.288 -14.418  -1.190  0.00  0.00    +0.034 A 
ATOM     27  C   UNL     1       6.207 -14.767  -2.163  0.00  0.00    +0.128 A 
ATOM     28  C   UNL     1       6.521 -13.876  -3.172  0.00  0.00    +0.054 A 
ATOM     29  C   UNL     1       5.914 -12.635  -3.215  0.00  0.00    +0.064 A 
ATOM     30 CL   UNL     1       6.303 -11.519  -4.486  0.00  0.00    -0.082 Cl
BRANCH  27  31
ATOM     31  N   UNL     1       6.855 -16.097  -2.124  0.00  0.00    +0.056 N 
ATOM     32  O   UNL     1       6.581 -16.877  -1.241  0.00  0.00    -0.126 OA
ATOM     33  O   UNL     1       7.658 -16.404  -2.974  0.00  0.00    -0.126 OA
ENDBRANCH  27  31
ENDBRANCH  22  24
ENDBRANCH  19  20
ENDBRANCH  18  19
ENDBRANCH  12  18
TORSDOF 6
