REMARK  Name = ZINC39983802
REMARK  9 active torsions:
REMARK  status: ('A' for Active; 'I' for Inactive)
REMARK    1  A    between atoms: C_1  and  C_2
REMARK    2  A    between atoms: C_2  and  C_4
REMARK    3  A    between atoms: C_2  and  N_17
REMARK    4  A    between atoms: C_4  and  N_6
REMARK    5  A    between atoms: C_18  and  C_20
REMARK    6  A    between atoms: C_25  and  O_33
REMARK    7  A    between atoms: C_26  and  O_31
REMARK    8  A    between atoms: O_31  and  C_32
REMARK    9  A    between atoms: O_33  and  C_34
REMARK                            x       y       z     vdW  Elec       q    Type
REMARK                         _______ _______ _______ _____ _____    ______ ____
ROOT
ATOM      1  N   UNL     1       0.679  -0.446  -1.218  0.00  0.00    -0.299 N 
ATOM      2  C   UNL     1       2.022  -0.552  -1.236  0.00  0.00    +0.259 C 
ATOM      3  O   UNL     1       2.669  -0.265  -0.246  0.00  0.00    -0.269 OA
ATOM      4  H   UNL     1       0.164  -0.675  -2.007  0.00  0.00    +0.150 HD
ENDROOT
BRANCH   2   5
ATOM      5  C   UNL     1       2.703  -1.010  -2.446  0.00  0.00    +0.104 C 
ATOM      6  N   UNL     1       2.122  -1.340  -3.570  0.00  0.00    -0.251 NA
ATOM      7  C   UNL     1       2.939  -1.604  -4.568  0.00  0.00    +0.048 C 
ATOM      8  C   UNL     1       2.686  -2.140  -5.800  0.00  0.00    +0.027 C 
ATOM      9  C   UNL     1       3.795  -2.518  -6.588  0.00  0.00    +0.045 C 
ATOM     10  C   UNL     1       5.027  -2.619  -6.053  0.00  0.00    +0.127 C 
ATOM     11  C   UNL     1       5.284  -2.343  -4.591  0.00  0.00    +0.192 C 
ATOM     12  C   UNL     1       4.353  -1.218  -4.141  0.00  0.00    +0.080 C 
ATOM     13  C   UNL     1       4.207  -1.176  -2.610  0.00  0.00    +0.073 C 
BRANCH  11  14
ATOM     14  O   UNL     1       6.645  -1.947  -4.409  0.00  0.00    -0.371 OA
ATOM     15  C   UNL     1       7.538  -3.034  -4.158  0.00  0.00    +0.195 C 
ENDBRANCH  11  14
BRANCH  10  16
ATOM     16  O   UNL     1       6.059  -2.978  -6.845  0.00  0.00    -0.497 OA
ATOM     17  C   UNL     1       5.765  -3.230  -8.220  0.00  0.00    +0.276 C 
ENDBRANCH  10  16
ENDBRANCH   2   5
BRANCH   1  19
ATOM     18  C   UNL     1      -0.029   1.543   0.016  0.00  0.00    +0.038 C 
ATOM     19  C   UNL     1      -0.003   0.013  -0.006  0.00  0.00    +0.158 C 
BRANCH  19  20
ATOM     20  C   UNL     1      -1.415  -0.514   0.007  0.00  0.00    +0.258 C 
ATOM     21  O   UNL     1      -1.813  -1.207  -0.910  0.00  0.00    -0.272 OA
BRANCH  20  22
ATOM     22  N   UNL     1      -2.225  -0.221   1.019  0.00  0.00    -0.155 NA
ATOM     23  C   UNL     1      -3.501  -0.598   0.981  0.00  0.00    +0.164 A 
ATOM     24  N   UNL     1      -4.112  -1.375   0.051  0.00  0.00    -0.335 N 
ATOM     25  H   UNL     1      -3.606  -1.726  -0.699  0.00  0.00    +0.168 HD
ATOM     26  C   UNL     1      -5.457  -1.665   0.174  0.00  0.00    +0.055 A 
ATOM     27  C   UNL     1      -6.277  -2.438  -0.661  0.00  0.00    +0.027 A 
ATOM     28  C   UNL     1      -7.609  -2.612  -0.367  0.00  0.00    +0.002 A 
ATOM     29  C   UNL     1      -8.178  -2.034   0.755  0.00  0.00    +0.001 A 
ATOM     30  C   UNL     1      -7.391  -1.267   1.596  0.00  0.00    +0.017 A 
ATOM     31  C   UNL     1      -6.059  -1.092   1.304  0.00  0.00    +0.039 A 
ATOM     32  S   UNL     1      -4.719  -0.225   2.077  0.00  0.00    -0.052 S 
ENDBRANCH  20  22
ENDBRANCH  19  20
ENDBRANCH   1  19
TORSDOF 6
