REMARK  Name = ZINC63588664
REMARK  9 active torsions:
REMARK  status: ('A' for Active; 'I' for Inactive)
REMARK    1  A    between atoms: C_1  and  C_2
REMARK    2  A    between atoms: C_5  and  C_8
REMARK    3  A    between atoms: C_8  and  N_10
REMARK    4  A    between atoms: N_12  and  C_13
REMARK    5  A    between atoms: C_16  and  C_20
REMARK    6  A    between atoms: C_18  and  C_19
REMARK    7  A    between atoms: N_21  and  C_22
REMARK    8  A    between atoms: C_22  and  C_23
REMARK    9  A    between atoms: C_23  and  C_24
REMARK                            x       y       z     vdW  Elec       q    Type
REMARK                         _______ _______ _______ _____ _____    ______ ____
ROOT
ATOM      1  N   UNL     1       0.536  -5.311   1.984  0.00  0.00    -0.143 NA
ATOM      2  C   UNL     1       0.755  -6.171   1.001  0.00  0.00    +0.194 C 
ATOM      3  N   UNL     1       0.055  -6.066  -0.166  0.00  0.00    -0.328 N 
ATOM      4  N   UNL     1       1.681  -7.161   1.155  0.00  0.00    -0.357 N 
ATOM      5  H   UNL     1       0.060  -5.232  -0.662  0.00  0.00    +0.169 HD
ATOM      6  H   UNL     1       2.148  -7.262   1.999  0.00  0.00    +0.162 HD
ENDROOT
BRANCH   3   7
ATOM      7  C   UNL     1      -0.669  -7.162  -0.648  0.00  0.00    +0.045 A 
ATOM      8  C   UNL     1      -1.314  -8.014   0.240  0.00  0.00    +0.026 A 
ATOM      9  C   UNL     1      -2.029  -9.094  -0.239  0.00  0.00    +0.005 A 
ATOM     10  C   UNL     1      -2.103  -9.328  -1.600  0.00  0.00    -0.050 A 
ATOM     11  C   UNL     1      -1.462  -8.482  -2.486  0.00  0.00    +0.008 A 
ATOM     12  C   UNL     1      -0.751  -7.396  -2.014  0.00  0.00    -0.027 A 
ATOM     13  C   UNL     1      -0.058  -6.470  -2.981  0.00  0.00    +0.046 C 
ATOM     14  C   UNL     1      -2.882 -10.509  -2.118  0.00  0.00    +0.044 C 
ENDBRANCH   3   7
BRANCH   1  15
ATOM     15  C   UNL     1      -0.474  -4.436   1.895  0.00  0.00    +0.270 C 
ATOM     16  O   UNL     1      -1.128  -4.362   0.870  0.00  0.00    -0.268 OA
BRANCH  15  21
ATOM     17  C   UNL     1      -1.725  -1.021   6.358  0.00  0.00    +0.044 C 
ATOM     18  C   UNL     1      -1.397  -1.914   5.189  0.00  0.00    -0.050 A 
ATOM     19  C   UNL     1      -2.141  -1.828   4.026  0.00  0.00    +0.004 A 
ATOM     20  C   UNL     1      -1.847  -2.644   2.953  0.00  0.00    +0.013 A 
ATOM     21  C   UNL     1      -0.796  -3.557   3.043  0.00  0.00    +0.039 A 
ATOM     22  C   UNL     1      -0.049  -3.639   4.218  0.00  0.00    +0.013 A 
ATOM     23  C   UNL     1      -0.350  -2.814   5.283  0.00  0.00    +0.004 A 
ENDBRANCH  15  21
ENDBRANCH   1  15
BRANCH   4  24
ATOM     24  C   UNL     1       1.972  -8.071   0.044  0.00  0.00    +0.120 C 
BRANCH  24  25
ATOM     25  C   UNL     1       3.078  -9.043   0.458  0.00  0.00    +0.054 C 
BRANCH  25  26
ATOM     26  C   UNL     1       3.461  -9.900  -0.722  0.00  0.00    -0.040 C 
ATOM     27  C   UNL     1       4.456  -9.665  -1.608  0.00  0.00    -0.001 A 
ATOM     28  C   UNL     1       5.441  -8.584  -1.734  0.00  0.00    +0.010 A 
ATOM     29  C   UNL     1       6.332  -8.625  -2.750  0.00  0.00    +0.001 A 
ATOM     30  C   UNL     1       6.339  -9.670  -3.684  0.00  0.00    +0.002 A 
ATOM     31  C   UNL     1       5.466 -10.698  -3.634  0.00  0.00    +0.026 A 
ATOM     32  C   UNL     1       4.484 -10.758  -2.606  0.00  0.00    +0.043 A 
ATOM     33  N   UNL     1       3.544 -11.634  -2.348  0.00  0.00    -0.380 N 
ATOM     34  C   UNL     1       2.815 -11.198  -1.151  0.00  0.00    +0.144 C 
ATOM     35  H   UNL     1       3.362 -12.438  -2.859  0.00  0.00    +0.160 HD
ENDBRANCH  25  26
ENDBRANCH  24  25
ENDBRANCH   4  24
TORSDOF 6
