REMARK  Name = ZINC09010997
REMARK  8 active torsions:
REMARK  status: ('A' for Active; 'I' for Inactive)
REMARK    1  A    between atoms: C_1  and  C_2
REMARK    2  A    between atoms: C_2  and  C_3
REMARK    3  A    between atoms: C_8  and  N_9
REMARK    4  A    between atoms: C_12  and  C_17
REMARK    5  A    between atoms: C_17  and  S_18
REMARK    6  A    between atoms: S_18  and  C_19
REMARK    7  A    between atoms: N_29  and  C_30
REMARK    8  A    between atoms: C_30  and  C_31
REMARK                            x       y       z     vdW  Elec       q    Type
REMARK                         _______ _______ _______ _____ _____    ______ ____
ROOT
ATOM      1  N   UNL     1       1.774  -0.369   7.756  0.00  0.00    -0.283 N 
ATOM      2  C   UNL     1       1.602   0.847   7.123  0.00  0.00    +0.224 A 
ATOM      3  N   UNL     1       2.080   1.032   5.894  0.00  0.00    -0.198 NA
ATOM      4  C   UNL     1       1.916   2.195   5.288  0.00  0.00    +0.146 A 
ATOM      5  N   UNL     1       1.282   3.180   5.901  0.00  0.00    -0.199 NA
ATOM      6  C   UNL     1       0.797   3.000   7.127  0.00  0.00    +0.217 A 
ATOM      7  N   UNL     1       0.960   1.833   7.740  0.00  0.00    -0.181 NA
ATOM      8  N   UNL     1       0.130   4.027   7.763  0.00  0.00    -0.327 N 
ATOM      9  H   UNL     1       2.167  -1.114   7.275  0.00  0.00    +0.155 HD
ATOM     10  H   UNL     1      -0.220   3.897   8.658  0.00  0.00    +0.145 HD
ATOM     11  H   UNL     1       0.011   4.880   7.315  0.00  0.00    +0.145 HD
ENDROOT
BRANCH   1  17
ATOM     12  C   UNL     1       1.066  -1.785   9.578  0.00  0.00    -0.026 A 
ATOM     13  C   UNL     1       0.679  -1.936  10.896  0.00  0.00    +0.005 A 
ATOM     14  C   UNL     1       0.606  -0.833  11.727  0.00  0.00    +0.000 A 
ATOM     15  C   UNL     1       0.920   0.423  11.242  0.00  0.00    +0.002 A 
ATOM     16  C   UNL     1       1.313   0.580   9.928  0.00  0.00    +0.023 A 
ATOM     17  C   UNL     1       1.382  -0.525   9.089  0.00  0.00    +0.037 A 
BRANCH  12  19
ATOM     18  C   UNL     1       2.580  -3.517   8.652  0.00  0.00    +0.009 C 
ATOM     19  C   UNL     1       1.145  -2.988   8.673  0.00  0.00    +0.033 C 
ENDBRANCH  12  19
ENDBRANCH   1  17
BRANCH   4  20
ATOM     20  C   UNL     1       2.459   2.401   3.897  0.00  0.00    +0.153 C 
BRANCH  20  21
ATOM     21  S   UNL     1       1.200   1.932   2.683  0.00  0.00    -0.080 S 
BRANCH  21  22
ATOM     22  C   UNL     1       2.077   2.263   1.191  0.00  0.00    +0.173 A 
ATOM     23  N   UNL     1       3.304   2.716   1.274  0.00  0.00    -0.223 NA
ATOM     24  C   UNL     1       4.030   2.995   0.174  0.00  0.00    +0.079 A 
ATOM     25  C   UNL     1       5.337   3.484   0.263  0.00  0.00    +0.028 A 
ATOM     26  C   UNL     1       6.037   3.754  -0.879  0.00  0.00    +0.002 A 
ATOM     27  C   UNL     1       5.470   3.550  -2.131  0.00  0.00    +0.001 A 
ATOM     28  C   UNL     1       4.194   3.073  -2.250  0.00  0.00    +0.015 A 
ATOM     29  C   UNL     1       3.456   2.788  -1.101  0.00  0.00    +0.065 A 
ATOM     30  C   UNL     1       2.082   2.274  -1.169  0.00  0.00    +0.263 A 
ATOM     31  O   UNL     1       1.533   2.076  -2.237  0.00  0.00    -0.267 OA
ATOM     32  N   UNL     1       1.448   2.030   0.002  0.00  0.00    -0.280 N 
BRANCH  32  33
ATOM     33  C   UNL     1       0.076   1.516  -0.007  0.00  0.00    +0.201 C 
BRANCH  33  34
ATOM     34  C   UNL     1       0.103   0.010  -0.020  0.00  0.00    +0.125 A 
ATOM     35  C   UNL     1       0.118  -0.785   1.065  0.00  0.00    +0.046 A 
ATOM     36  C   UNL     1       0.139  -2.119   0.595  0.00  0.00    +0.041 A 
ATOM     37  C   UNL     1       0.143  -2.058  -0.748  0.00  0.00    +0.195 A 
ATOM     38  O   UNL     1       0.121  -0.767  -1.115  0.00  0.00    -0.466 OA
ENDBRANCH  33  34
ENDBRANCH  32  33
ENDBRANCH  21  22
ENDBRANCH  20  21
ENDBRANCH   4  20
TORSDOF 7
