REMARK  Name = ZINC09763783
REMARK  8 active torsions:
REMARK  status: ('A' for Active; 'I' for Inactive)
REMARK    1  A    between atoms: C_1  and  O_2
REMARK    2  A    between atoms: O_2  and  C_3
REMARK    3  A    between atoms: C_5  and  C_12
REMARK    4  A    between atoms: C_8  and  O_9
REMARK    5  A    between atoms: O_9  and  C_10
REMARK    6  A    between atoms: C_23  and  N_30
REMARK    7  A    between atoms: C_25  and  O_28
REMARK    8  A    between atoms: O_28  and  C_29
REMARK                            x       y       z     vdW  Elec       q    Type
REMARK                         _______ _______ _______ _____ _____    ______ ____
ROOT
ATOM      1  C   UNL     1       1.143   3.596   0.010  0.00  0.00    +0.105 C 
ATOM      2  C   UNL     1       0.969   4.117  -1.401  0.00  0.00    +0.029 C 
ATOM      3  C   UNL     1       1.994   3.690  -2.458  0.00  0.00    +0.033 C 
ATOM      4  C   UNL     1       1.148   3.721  -3.733  0.00  0.00    -0.030 C 
ATOM      5  C   UNL     1      -0.132   3.528  -3.432  0.00  0.00    -0.023 C 
ATOM      6  C   UNL     1      -0.246   3.318  -1.968  0.00  0.00    +0.049 C 
ATOM      7  C   UNL     1      -1.432   3.740  -1.192  0.00  0.00    -0.014 A 
ATOM      8  C   UNL     1      -2.687   3.806  -1.763  0.00  0.00    +0.039 A 
ATOM      9  C   UNL     1      -3.782   4.189  -1.013  0.00  0.00    +0.130 A 
ATOM     10  C   UNL     1      -3.619   4.510   0.323  0.00  0.00    +0.080 A 
ATOM     11  C   UNL     1      -2.366   4.453   0.902  0.00  0.00    +0.143 A 
ATOM     12  C   UNL     1      -1.247   4.073   0.151  0.00  0.00    +0.074 A 
ATOM     13  N   UNL     1      -0.007   4.074   0.795  0.00  0.00    -0.334 N 
ATOM     14  H   UNL     1      -0.059   3.601   1.685  0.00  0.00    +0.147 HD
ENDROOT
BRANCH   1  17
ATOM     15  C   UNL     1       2.385   0.036  -0.230  0.00  0.00    +0.163 A 
ATOM     16  C   UNL     1       2.359   1.421  -0.222  0.00  0.00    +0.055 A 
ATOM     17  C   UNL     1       1.169   2.089   0.002  0.00  0.00    -0.022 A 
ATOM     18  C   UNL     1       0.004   1.378   0.219  0.00  0.00    +0.024 A 
ATOM     19  C   UNL     1       0.023  -0.005   0.212  0.00  0.00    +0.063 A 
ATOM     20  C   UNL     1       1.212  -0.680  -0.012  0.00  0.00    +0.175 A 
ATOM     21 BR   UNL     1      -1.574  -0.974   0.510  0.00  0.00    -0.046 Br
BRANCH  15  23
ATOM     22  C   UNL     1       4.718   0.178  -0.668  0.00  0.00    +0.277 C 
ATOM     23  O   UNL     1       3.554  -0.623  -0.451  0.00  0.00    -0.491 OA
ENDBRANCH  15  23
BRANCH  20  24
ATOM     24  O   UNL     1       1.233  -2.041  -0.019  0.00  0.00    -0.490 OA
ATOM     25  C   UNL     1       1.008  -2.687  -1.273  0.00  0.00    +0.277 C 
ENDBRANCH  20  24
ENDBRANCH   1  17
BRANCH   9  26
ATOM     26  N   UNL     1      -5.123   4.257  -1.635  0.00  0.00    +0.057 N 
ATOM     27  O   UNL     1      -5.264   3.974  -2.811  0.00  0.00    -0.126 OA
ATOM     28  O   UNL     1      -6.087   4.595  -0.971  0.00  0.00    -0.126 OA
ENDBRANCH   9  26
BRANCH  11  29
ATOM     29  O   UNL     1      -2.218   4.770   2.216  0.00  0.00    -0.493 OA
ATOM     30  C   UNL     1      -3.397   5.149   2.929  0.00  0.00    +0.277 C 
ENDBRANCH  11  29
TORSDOF 5
