REMARK  Name = ZINC04177365
REMARK  5 active torsions:
REMARK  status: ('A' for Active; 'I' for Inactive)
REMARK    1  A    between atoms: C_3  and  S_23
REMARK    2  A    between atoms: C_6  and  C_7
REMARK    3  A    between atoms: N_9  and  C_10
REMARK    4  A    between atoms: C_11  and  C_20
REMARK    5  A    between atoms: S_23  and  N_26
REMARK                            x       y       z     vdW  Elec       q    Type
REMARK                         _______ _______ _______ _____ _____    ______ ____
ROOT
ATOM      1  C   UNL     1       1.707  -4.424  -1.587  0.00  0.00    +0.249 C 
ATOM      2  O   UNL     1       1.930  -5.255  -0.728  0.00  0.00    -0.270 OA
ATOM      3  N   UNL     1       2.559  -4.276  -2.620  0.00  0.00    -0.275 N 
ATOM      4  H   UNL     1       2.381  -3.613  -3.305  0.00  0.00    +0.156 HD
ENDROOT
BRANCH   3   5
ATOM      5  C   UNL     1       3.691  -5.071  -2.704  0.00  0.00    +0.085 A 
ATOM      6  C   UNL     1       4.673  -5.072  -3.682  0.00  0.00    +0.068 A 
ATOM      7  C   UNL     1       5.776  -6.011  -3.534  0.00  0.00    -0.023 A 
ATOM      8  C   UNL     1       5.706  -6.805  -2.443  0.00  0.00    -0.004 A 
ATOM      9  S   UNL     1       4.218  -6.311  -1.616  0.00  0.00    -0.077 S 
ATOM     10  C   UNL     1       6.663  -7.878  -2.029  0.00  0.00    +0.043 C 
ATOM     11  C   UNL     1       8.096  -7.330  -2.090  0.00  0.00    +0.005 C 
ATOM     12  C   UNL     1       8.649  -7.580  -3.489  0.00  0.00    +0.001 C 
ATOM     13  C   UNL     1       7.527  -7.492  -4.522  0.00  0.00    +0.005 C 
ATOM     14  C   UNL     1       6.923  -6.092  -4.533  0.00  0.00    +0.037 C 
BRANCH   6  15
ATOM     15  C   UNL     1       4.605  -4.156  -4.825  0.00  0.00    +0.244 C 
ATOM     16  O   UNL     1       5.121  -3.056  -4.755  0.00  0.00    -0.270 OA
ATOM     17  N   UNL     1       3.972  -4.533  -5.954  0.00  0.00    -0.325 N 
ATOM     18  H   UNL     1       3.560  -5.410  -6.010  0.00  0.00    +0.145 HD
ATOM     19  H   UNL     1       3.927  -3.927  -6.710  0.00  0.00    +0.145 HD
ENDBRANCH   6  15
ENDBRANCH   3   5
BRANCH   1  25
ATOM     20  C   UNL     1      -0.385  -3.727  -0.428  0.00  0.00    +0.015 A 
ATOM     21  C   UNL     1      -1.510  -2.931  -0.350  0.00  0.00    +0.029 A 
ATOM     22  C   UNL     1      -1.761  -1.986  -1.329  0.00  0.00    +0.106 A 
ATOM     23  C   UNL     1      -0.891  -1.835  -2.394  0.00  0.00    +0.029 A 
ATOM     24  C   UNL     1       0.240  -2.620  -2.481  0.00  0.00    +0.015 A 
ATOM     25  C   UNL     1       0.500  -3.576  -1.497  0.00  0.00    +0.037 A 
BRANCH  22  26
ATOM     26  S   UNL     1      -3.200  -0.975  -1.222  0.00  0.00    +0.061 S 
ATOM     27  O   UNL     1      -4.139  -1.686  -0.427  0.00  0.00    -0.153 OA
ATOM     28  O   UNL     1      -3.493  -0.544  -2.544  0.00  0.00    -0.153 OA
BRANCH  26  29
ATOM     29  N   UNL     1      -2.784   0.380  -0.365  0.00  0.00    -0.177 NA
ATOM     30  C   UNL     1      -2.281   1.542  -1.038  0.00  0.00    +0.109 C 
ATOM     31  C   UNL     1      -0.749   1.592  -1.257  0.00  0.00    +0.017 C 
ATOM     32  C   UNL     1      -0.013   1.086   0.008  0.00  0.00    +0.001 C 
ATOM     33  C   UNL     1      -0.703   1.564   1.253  0.00  0.00    +0.001 C 
ATOM     34  C   UNL     1      -1.581   0.401   1.701  0.00  0.00    +0.017 C 
ATOM     35  C   UNL     1      -2.928   0.411   1.129  0.00  0.00    +0.109 C 
ENDBRANCH  26  29
ENDBRANCH  22  26
ENDBRANCH   1  25
TORSDOF 5
