REMARK  Name = ZINC35888606
REMARK  15 active torsions:
REMARK  status: ('A' for Active; 'I' for Inactive)
REMARK    1  A    between atoms: C_1  and  C_2
REMARK    2  A    between atoms: C_7  and  O_8
REMARK    3  A    between atoms: O_8  and  C_9
REMARK    4  A    between atoms: C_9  and  C_10
REMARK    5  A    between atoms: C_10  and  C_12
REMARK    6  A    between atoms: C_10  and  O_40
REMARK    7  A    between atoms: C_12  and  N_13
REMARK    8  A    between atoms: C_15  and  C_26
REMARK    9  A    between atoms: C_17  and  C_20
REMARK   10  A    between atoms: C_26  and  N_27
REMARK   11  A    between atoms: N_27  and  C_28
REMARK   12  A    between atoms: C_28  and  C_29
REMARK   13  A    between atoms: C_29  and  C_30
REMARK   14  A    between atoms: C_29  and  C_31
REMARK   15  A    between atoms: C_32  and  C_34
REMARK                            x       y       z     vdW  Elec       q    Type
REMARK                         _______ _______ _______ _____ _____    ______ ____
ROOT
ATOM      1  N   UNL     1      -4.700  -0.106   7.824  0.00  0.00    +0.382 N 
ATOM      2  C   UNL     1      -3.393  -0.698   8.210  0.00  0.00    -0.073 C 
ATOM      3  C   UNL     1      -3.234  -0.350   9.705  0.00  0.00    -0.005 C 
ATOM      4  C   UNL     1      -4.671  -0.132  10.221  0.00  0.00    +0.005 C 
ATOM      5  C   UNL     1      -5.578  -0.367   8.993  0.00  0.00    -0.070 C 
ATOM      6  H   UNL     1      -4.606   0.887   7.667  0.00  0.00    -0.082 HD
ENDROOT
BRANCH   4   7
ATOM      7  C   UNL     1      -4.993  -1.123  11.309  0.00  0.00    -0.046 A 
ATOM      8  C   UNL     1      -5.092  -0.701  12.622  0.00  0.00    +0.004 A 
ATOM      9  C   UNL     1      -5.387  -1.611  13.620  0.00  0.00    +0.000 A 
ATOM     10  C   UNL     1      -5.584  -2.942  13.306  0.00  0.00    +0.000 A 
ATOM     11  C   UNL     1      -5.486  -3.365  11.993  0.00  0.00    +0.000 A 
ATOM     12  C   UNL     1      -5.195  -2.454  10.994  0.00  0.00    +0.004 A 
ENDBRANCH   4   7
BRANCH   1  13
ATOM     13  C   UNL     1      -5.230  -0.768   6.625  0.00  0.00    -0.044 C 
BRANCH  13  14
ATOM     14  C   UNL     1      -6.560  -0.121   6.231  0.00  0.00    +0.135 C 
BRANCH  14  15
ATOM     15  O   UNL     1      -7.493  -0.259   7.304  0.00  0.00    -0.390 OA
ATOM     16  H   UNL     1      -7.683  -1.176   7.545  0.00  0.00    +0.210 HD
ENDBRANCH  14  15
BRANCH  14  17
ATOM     17  C   UNL     1      -7.112  -0.810   4.982  0.00  0.00    +0.258 C 
BRANCH  17  18
ATOM     18  O   UNL     1      -8.292  -0.132   4.546  0.00  0.00    -0.489 OA
BRANCH  18  25
ATOM     19  C   UNL     1     -10.627   1.193   3.669  0.00  0.00    +0.047 C 
ATOM     20  C   UNL     1     -10.063  -0.012   2.962  0.00  0.00    -0.009 A 
ATOM     21  C   UNL     1     -10.688  -0.508   1.834  0.00  0.00    +0.007 A 
ATOM     22  C   UNL     1     -10.171  -1.614   1.186  0.00  0.00    +0.000 A 
ATOM     23  C   UNL     1      -9.027  -2.227   1.664  0.00  0.00    +0.004 A 
ATOM     24  C   UNL     1      -8.398  -1.735   2.791  0.00  0.00    +0.046 A 
ATOM     25  C   UNL     1      -8.912  -0.622   3.441  0.00  0.00    +0.124 A 
ENDBRANCH  18  25
ENDBRANCH  17  18
ENDBRANCH  14  17
ENDBRANCH  13  14
ENDBRANCH   1  13
BRANCH   3  26
ATOM     26  C   UNL     1      -2.569  -1.508  10.452  0.00  0.00    +0.110 C 
BRANCH  26  27
ATOM     27  N   UNL     1      -1.178  -1.638  10.012  0.00  0.00    -0.297 N 
ATOM     28  C   UNL     1      -0.873  -2.434   8.968  0.00  0.00    +0.247 C 
ATOM     29  O   UNL     1      -1.733  -3.125   8.460  0.00  0.00    -0.270 OA
BRANCH  28  30
ATOM     30  C   UNL     1       0.508  -2.466   8.442  0.00  0.00    +0.037 A 
ATOM     31  C   UNL     1       1.588  -2.602   9.315  0.00  0.00    +0.013 A 
ATOM     32  C   UNL     1       2.875  -2.632   8.817  0.00  0.00    +0.001 A 
ATOM     33  C   UNL     1       3.095  -2.526   7.455  0.00  0.00    +0.000 A 
ATOM     34  C   UNL     1       2.029  -2.389   6.584  0.00  0.00    +0.001 A 
ATOM     35  C   UNL     1       0.737  -2.365   7.069  0.00  0.00    +0.013 A 
ENDBRANCH  28  30
BRANCH  27  36
ATOM     36  C   UNL     1      -0.118  -0.903  10.707  0.00  0.00    +0.111 C 
BRANCH  36  37
ATOM     37  C   UNL     1      -0.278  -1.085  12.218  0.00  0.00    +0.000 C 
ATOM     38  C   UNL     1      -0.128  -2.566  12.572  0.00  0.00    +0.009 C 
ATOM     39  C   UNL     1       0.798  -0.275  12.946  0.00  0.00    +0.009 C 
ENDBRANCH  36  37
ENDBRANCH  27  36
ENDBRANCH  26  27
ENDBRANCH   3  26
TORSDOF 12
