REMARK  Name = ZINC02393273
REMARK  8 active torsions:
REMARK  status: ('A' for Active; 'I' for Inactive)
REMARK    1  A    between atoms: C_1  and  C_2
REMARK    2  A    between atoms: C_2  and  C_3
REMARK    3  A    between atoms: C_3  and  C_4
REMARK    4  A    between atoms: C_4  and  N_5
REMARK    5  A    between atoms: C_16  and  C_32
REMARK    6  A    between atoms: N_18  and  C_26
REMARK    7  A    between atoms: C_21  and  N_25
REMARK    8  A    between atoms: C_22  and  C_23
REMARK                            x       y       z     vdW  Elec       q    Type
REMARK                         _______ _______ _______ _____ _____    ______ ____
ROOT
ATOM      1  N   UNL     1      -2.819   4.809   0.069  0.00  0.00    -0.270 N 
ATOM      2  C   UNL     1      -1.704   4.065  -0.273  0.00  0.00    +0.041 A 
ATOM      3  C   UNL     1      -1.611   2.715  -0.616  0.00  0.00    +0.024 A 
ATOM      4  C   UNL     1      -0.350   2.222  -0.914  0.00  0.00    +0.002 A 
ATOM      5  C   UNL     1       0.773   3.023  -0.888  0.00  0.00    +0.000 A 
ATOM      6  C   UNL     1       0.693   4.371  -0.554  0.00  0.00    +0.007 A 
ATOM      7  C   UNL     1      -0.556   4.868  -0.251  0.00  0.00    -0.001 A 
ATOM      8  C   UNL     1      -1.013   6.236   0.141  0.00  0.00    +0.145 C 
ATOM      9  C   UNL     1      -2.507   6.097   0.329  0.00  0.00    +0.240 C 
ATOM     10  O   UNL     1      -3.280   6.975   0.651  0.00  0.00    -0.274 OA
ATOM     11  C   UNL     1      -0.366   6.687   1.419  0.00  0.00    +0.067 A 
ATOM     12  C   UNL     1      -0.537   6.211   2.723  0.00  0.00    +0.102 A 
ATOM     13  N   UNL     1       0.242   6.917   3.521  0.00  0.00    -0.163 NA
ATOM     14  N   UNL     1       0.931   7.862   2.744  0.00  0.00    -0.199 N 
ATOM     15  C   UNL     1       0.545   7.705   1.458  0.00  0.00    +0.231 A 
ATOM     16  O   UNL     1       0.931   8.382   0.349  0.00  0.00    -0.423 OA
ATOM     17  C   UNL     1       0.207   8.218  -0.777  0.00  0.00    +0.201 C 
ATOM     18  C   UNL     1      -0.715   7.240  -0.939  0.00  0.00    +0.110 C 
ENDROOT
BRANCH  14  19
ATOM     19  C   UNL     1       1.854   8.802   3.219  0.00  0.00    +0.069 A 
ATOM     20  C   UNL     1       2.952   9.152   2.443  0.00  0.00    +0.028 A 
ATOM     21  C   UNL     1       3.857  10.084   2.911  0.00  0.00    +0.002 A 
ATOM     22  C   UNL     1       3.678  10.660   4.155  0.00  0.00    +0.000 A 
ATOM     23  C   UNL     1       2.590  10.309   4.933  0.00  0.00    +0.002 A 
ATOM     24  C   UNL     1       1.677   9.382   4.468  0.00  0.00    +0.028 A 
ENDBRANCH  14  19
BRANCH  12  25
ATOM     25  C   UNL     1      -1.437   5.106   3.137  0.00  0.00    +0.003 A 
ATOM     26  C   UNL     1      -2.419   5.327   4.100  0.00  0.00    +0.010 A 
ATOM     27  C   UNL     1      -3.257   4.298   4.477  0.00  0.00    +0.001 A 
ATOM     28  C   UNL     1      -3.116   3.044   3.909  0.00  0.00    +0.000 A 
ATOM     29  C   UNL     1      -2.139   2.817   2.956  0.00  0.00    +0.001 A 
ATOM     30  C   UNL     1      -1.299   3.841   2.568  0.00  0.00    +0.010 A 
ENDBRANCH  12  25
BRANCH  17  31
ATOM     31  N   UNL     1       0.417   9.090  -1.816  0.00  0.00    -0.328 N 
ATOM     32  H   UNL     1       1.072   9.800  -1.728  0.00  0.00    +0.145 HD
ATOM     33  H   UNL     1      -0.090   8.996  -2.638  0.00  0.00    +0.145 HD
ENDBRANCH  17  31
BRANCH  18  34
ATOM     34  C   UNL     1      -1.430   7.159  -2.178  0.00  0.00    +0.102 C 
ATOM     35  N   UNL     1      -1.997   7.095  -3.160  0.00  0.00    -0.191 NA
ENDBRANCH  18  34
BRANCH   1  36
ATOM     36  C   UNL     1      -4.176   4.264   0.141  0.00  0.00    +0.114 C 
BRANCH  36  37
ATOM     37  C   UNL     1      -4.470   3.815   1.574  0.00  0.00    +0.019 C 
BRANCH  37  39
ATOM     38  C   UNL     1      -6.231   2.950   3.120  0.00  0.00    +0.004 C 
ATOM     39  C   UNL     1      -5.938   3.399   1.688  0.00  0.00    -0.002 C 
ENDBRANCH  37  39
ENDBRANCH  36  37
ENDBRANCH   1  36
TORSDOF 7
