REMARK  Name = ZINC01728428
REMARK  6 active torsions:
REMARK  status: ('A' for Active; 'I' for Inactive)
REMARK    1  A    between atoms: C_1  and  C_2
REMARK    2  A    between atoms: C_5  and  S_8
REMARK    3  A    between atoms: S_8  and  N_11
REMARK    4  A    between atoms: N_11  and  C_12
REMARK    5  A    between atoms: N_11  and  C_13
REMARK    6  A    between atoms: C_16  and  C_20
REMARK                            x       y       z     vdW  Elec       q    Type
REMARK                         _______ _______ _______ _____ _____    ______ ____
ROOT
ATOM      1  C   UNL     1      -1.348   1.339  -0.263  0.00  0.00    +0.054 A 
ATOM      2  C   UNL     1      -0.232   0.515  -0.377  0.00  0.00    +0.045 A 
ATOM      3  C   UNL     1       1.008   1.062  -0.628  0.00  0.00    +0.056 A 
ATOM      4  C   UNL     1       1.144   2.448  -0.762  0.00  0.00    +0.073 A 
ATOM      5  C   UNL     1       0.021   3.273  -0.641  0.00  0.00    +0.056 A 
ATOM      6  C   UNL     1      -1.215   2.719  -0.390  0.00  0.00    +0.045 A 
ATOM      7 CL   UNL     1       0.183   4.994  -0.806  0.00  0.00    -0.083 Cl
ATOM      8 CL   UNL     1       2.397   0.033  -0.779  0.00  0.00    -0.083 Cl
ENDROOT
BRANCH   4   9
ATOM      9  C   UNL     1       2.468   3.037  -1.032  0.00  0.00    +0.244 C 
ATOM     10  O   UNL     1       2.841   3.197  -2.178  0.00  0.00    -0.270 OA
ATOM     11  N   UNL     1       3.266   3.399  -0.007  0.00  0.00    -0.325 N 
ATOM     12  H   UNL     1       2.969   3.271   0.907  0.00  0.00    +0.145 HD
ATOM     13  H   UNL     1       4.137   3.787  -0.184  0.00  0.00    +0.145 HD
ENDBRANCH   4   9
BRANCH   1  14
ATOM     14  N   UNL     1      -2.598   0.782  -0.015  0.00  0.00    -0.206 N 
ATOM     15  C   UNL     1      -2.881  -0.595  -0.428  0.00  0.00    +0.157 C 
BRANCH  14  16
ATOM     16  S   UNL     1      -3.766   1.676   0.746  0.00  0.00    +0.074 S 
ATOM     17  O   UNL     1      -4.642   0.749   1.373  0.00  0.00    -0.150 OA
ATOM     18  O   UNL     1      -3.091   2.696   1.469  0.00  0.00    -0.150 OA
BRANCH  16  23
ATOM     19  C   UNL     1      -6.975   4.443  -3.549  0.00  0.00    +0.044 C 
ATOM     20  C   UNL     1      -6.174   3.752  -2.476  0.00  0.00    -0.050 A 
ATOM     21  C   UNL     1      -6.470   2.449  -2.124  0.00  0.00    +0.005 A 
ATOM     22  C   UNL     1      -5.735   1.815  -1.140  0.00  0.00    +0.029 A 
ATOM     23  C   UNL     1      -4.703   2.484  -0.509  0.00  0.00    +0.109 A 
ATOM     24  C   UNL     1      -4.410   3.789  -0.858  0.00  0.00    +0.029 A 
ATOM     25  C   UNL     1      -5.143   4.422  -1.845  0.00  0.00    +0.005 A 
ENDBRANCH  16  23
ENDBRANCH  14  16
ENDBRANCH   1  14
TORSDOF 4
