REMARK  Name = ZINC36142648
REMARK  3 active torsions:
REMARK  status: ('A' for Active; 'I' for Inactive)
REMARK    1  A    between atoms: C_1  and  C_2
REMARK    2  A    between atoms: C_2  and  C_3
REMARK    3  A    between atoms: C_7  and  N_9
REMARK                            x       y       z     vdW  Elec       q    Type
REMARK                         _______ _______ _______ _____ _____    ______ ____
ROOT
ATOM      1  C   UNL     1       0.731  -0.503   1.223  0.00  0.00    -0.045 A 
ATOM      2  C   UNL     1       2.093  -0.708   1.173  0.00  0.00    +0.018 A 
ATOM      3  C   UNL     1       2.767  -1.170   2.307  0.00  0.00    +0.061 A 
ATOM      4  C   UNL     1       2.062  -1.424   3.493  0.00  0.00    +0.152 A 
ATOM      5  C   UNL     1       0.684  -1.213   3.523  0.00  0.00    +0.068 A 
ATOM      6  C   UNL     1       0.030  -0.749   2.393  0.00  0.00    +0.030 A 
ATOM      7  O   UNL     1       2.704  -1.861   4.603  0.00  0.00    -0.483 OA
ATOM      8  C   UNL     1       3.973  -2.489   4.461  0.00  0.00    +0.118 C 
ATOM      9  C   UNL     1       4.604  -2.718   5.847  0.00  0.00    +0.048 C 
ATOM     10  C   UNL     1       4.239  -4.184   6.192  0.00  0.00    +0.004 C 
ATOM     11  C   UNL     1       4.361  -4.899   4.823  0.00  0.00    +0.004 C 
ATOM     12  C   UNL     1       3.815  -3.870   3.809  0.00  0.00    +0.048 C 
ATOM     13  C   UNL     1       4.905  -1.619   3.612  0.00  0.00    +0.127 C 
ATOM     14  C   UNL     1       4.222  -1.400   2.274  0.00  0.00    +0.171 C 
ATOM     15  O   UNL     1       4.842  -1.414   1.231  0.00  0.00    -0.292 OA
ENDROOT
BRANCH   5  16
ATOM     16  N   UNL     1      -0.037  -1.465   4.696  0.00  0.00    -0.355 N 
ATOM     17  H   UNL     1       0.421  -1.786   5.488  0.00  0.00    +0.142 HD
ATOM     18  H   UNL     1      -0.996  -1.319   4.716  0.00  0.00    +0.142 HD
ENDBRANCH   5  16
BRANCH   1  20
ATOM     19  C   UNL     1      -0.019   1.526   0.010  0.00  0.00    +0.009 C 
ATOM     20  C   UNL     1       0.002  -0.004   0.002  0.00  0.00    +0.032 C 
ENDBRANCH   1  20
TORSDOF 2
