REMARK  Name = ZINC39273170
REMARK  11 active torsions:
REMARK  status: ('A' for Active; 'I' for Inactive)
REMARK    1  A    between atoms: C_1  and  C_2
REMARK    2  A    between atoms: C_2  and  O_3
REMARK    3  A    between atoms: O_3  and  C_4
REMARK    4  A    between atoms: C_4  and  C_6
REMARK    5  A    between atoms: C_7  and  C_39
REMARK    6  A    between atoms: C_14  and  C_15
REMARK    7  A    between atoms: C_20  and  C_21
REMARK    8  A    between atoms: C_28  and  C_30
REMARK    9  A    between atoms: C_33  and  N_36
REMARK   10  A    between atoms: N_36  and  C_37
REMARK   11  A    between atoms: N_36  and  C_38
REMARK                            x       y       z     vdW  Elec       q    Type
REMARK                         _______ _______ _______ _____ _____    ______ ____
ROOT
ATOM      1  C   UNL     1      -2.792  -2.429   0.237  0.00  0.00    +0.085 C 
ATOM      2  C   UNL     1      -2.974  -3.744  -0.086  0.00  0.00    +0.053 C 
ATOM      3  N   UNL     1      -4.194  -4.226  -0.292  0.00  0.00    -0.228 NA
ATOM      4  C   UNL     1      -5.297  -3.527  -0.210  0.00  0.00    +0.178 A 
ATOM      5  N   UNL     1      -5.338  -2.187   0.103  0.00  0.00    -0.275 N 
ATOM      6  C   UNL     1      -6.528  -1.575   0.158  0.00  0.00    +0.268 A 
ATOM      7  O   UNL     1      -6.614  -0.393   0.430  0.00  0.00    -0.266 OA
ATOM      8  C   UNL     1      -7.732  -2.383  -0.124  0.00  0.00    +0.077 A 
ATOM      9  C   UNL     1      -9.020  -2.017  -0.134  0.00  0.00    +0.009 C 
ATOM     10  S   UNL     1      -7.004  -3.982  -0.446  0.00  0.00    -0.046 S 
ATOM     11  C   UNL     1      -4.015  -1.550   0.358  0.00  0.00    +0.162 C 
ATOM     12  C   UNL     1      -1.780  -4.655  -0.211  0.00  0.00    +0.066 C 
ENDROOT
BRANCH  11  13
ATOM     13  C   UNL     1      -3.862  -0.406  -0.610  0.00  0.00    -0.020 A 
ATOM     14  C   UNL     1      -4.152  -0.593  -1.950  0.00  0.00    +0.008 A 
ATOM     15  C   UNL     1      -4.013   0.453  -2.840  0.00  0.00    +0.023 A 
ATOM     16  C   UNL     1      -3.580   1.694  -2.389  0.00  0.00    +0.029 A 
ATOM     17  C   UNL     1      -3.289   1.878  -1.044  0.00  0.00    +0.023 A 
ATOM     18  C   UNL     1      -3.436   0.829  -0.158  0.00  0.00    +0.008 A 
BRANCH  16  19
ATOM     19  N   UNL     1      -3.437   2.754  -3.288  0.00  0.00    -0.336 N 
ATOM     20  C   UNL     1      -3.744   2.558  -4.707  0.00  0.00    +0.129 C 
ATOM     21  C   UNL     1      -2.981   4.062  -2.811  0.00  0.00    +0.129 C 
ENDBRANCH  16  19
ENDBRANCH  11  13
BRANCH   9  22
ATOM     22  C   UNL     1     -10.089  -3.030  -0.453  0.00  0.00    +0.107 C 
ATOM     23  C   UNL     1     -10.932  -2.565  -1.624  0.00  0.00    +0.121 C 
ATOM     24  N   UNL     1     -12.139  -2.447  -1.172  0.00  0.00    -0.161 NA
ATOM     25  N   UNL     1     -12.237  -2.775   0.176  0.00  0.00    -0.153 NA
ATOM     26  C   UNL     1     -11.085  -3.131   0.684  0.00  0.00    +0.083 C 
BRANCH  26  27
ATOM     27  C   UNL     1     -10.812  -3.544   2.070  0.00  0.00    -0.001 A 
ATOM     28  C   UNL     1      -9.514  -3.891   2.457  0.00  0.00    +0.010 A 
ATOM     29  C   UNL     1      -9.266  -4.277   3.757  0.00  0.00    +0.001 A 
ATOM     30  C   UNL     1     -10.298  -4.322   4.678  0.00  0.00    +0.000 A 
ATOM     31  C   UNL     1     -11.585  -3.981   4.303  0.00  0.00    +0.001 A 
ATOM     32  C   UNL     1     -11.848  -3.586   3.008  0.00  0.00    +0.010 A 
ENDBRANCH  26  27
ENDBRANCH   9  22
BRANCH   1  33
ATOM     33  C   UNL     1      -1.504  -1.911   0.457  0.00  0.00    +0.339 C 
ATOM     34  O   UNL     1      -0.541  -2.657   0.470  0.00  0.00    -0.245 OA
BRANCH  33  35
ATOM     35  O   UNL     1      -1.335  -0.585   0.652  0.00  0.00    -0.462 OA
BRANCH  35  37
ATOM     36  C   UNL     1      -0.005   1.389   1.070  0.00  0.00    +0.048 C 
ATOM     37  C   UNL     1       0.002  -0.127   0.869  0.00  0.00    +0.229 C 
ENDBRANCH  35  37
ENDBRANCH  33  35
ENDBRANCH   1  33
TORSDOF 7
