REMARK  Name = ZINC36007144
REMARK  13 active torsions:
REMARK  status: ('A' for Active; 'I' for Inactive)
REMARK    1  A    between atoms: C_1  and  C_2
REMARK    2  A    between atoms: C_2  and  C_3
REMARK    3  A    between atoms: C_3  and  N_4
REMARK    4  A    between atoms: N_4  and  C_5
REMARK    5  A    between atoms: N_4  and  C_17
REMARK    6  A    between atoms: C_5  and  C_6
REMARK    7  A    between atoms: N_8  and  C_9
REMARK    8  A    between atoms: C_17  and  C_18
REMARK    9  A    between atoms: N_20  and  C_21
REMARK   10  A    between atoms: N_20  and  C_29
REMARK   11  A    between atoms: C_29  and  C_31
REMARK   12  A    between atoms: C_29  and  C_32
REMARK   13  A    between atoms: C_32  and  C_33
REMARK                            x       y       z     vdW  Elec       q    Type
REMARK                         _______ _______ _______ _____ _____    ______ ____
ROOT
ATOM      1  N   UNL     1       0.723  -0.840  -0.721  0.00  0.00    +0.391 N 
ATOM      2  H   UNL     1       1.189  -1.060   0.147  0.00  0.00    -0.080 HD
ENDROOT
BRANCH   1   3
ATOM      3  C   UNL     1       0.889   0.590  -1.017  0.00  0.00    -0.078 C 
BRANCH   3   5
ATOM      4  C   UNL     1       0.707   2.896  -0.073  0.00  0.00    +0.002 C 
ATOM      5  C   UNL     1       0.406   1.417   0.176  0.00  0.00    -0.022 C 
ENDBRANCH   3   5
ENDBRANCH   1   3
BRANCH   1   6
ATOM      6  C   UNL     1      -0.707  -1.153  -0.603  0.00  0.00    +0.020 C 
BRANCH   6   7
ATOM      7  C   UNL     1      -0.873  -2.568  -0.112  0.00  0.00    +0.201 C 
ATOM      8  O   UNL     1       0.104  -3.251   0.111  0.00  0.00    -0.278 OA
ATOM      9  N   UNL     1      -2.107  -3.075   0.079  0.00  0.00    -0.286 N 
ATOM     10  H   UNL     1      -2.888  -2.561  -0.181  0.00  0.00    +0.155 HD
BRANCH   9  11
ATOM     11  C   UNL     1      -2.262  -4.343   0.651  0.00  0.00    +0.052 A 
ATOM     12  C   UNL     1      -1.311  -4.826   1.540  0.00  0.00    +0.026 A 
ATOM     13  C   UNL     1      -1.466  -6.078   2.103  0.00  0.00    +0.022 A 
ATOM     14  C   UNL     1      -2.568  -6.851   1.782  0.00  0.00    +0.042 A 
ATOM     15  C   UNL     1      -3.518  -6.373   0.896  0.00  0.00    +0.041 A 
ATOM     16  C   UNL     1      -3.371  -5.119   0.334  0.00  0.00    +0.064 A 
ATOM     17 CL   UNL     1      -4.566  -4.516  -0.771  0.00  0.00    -0.082 Cl
ATOM     18 CL   UNL     1      -2.759  -8.425   2.491  0.00  0.00    -0.083 Cl
ENDBRANCH   9  11
ENDBRANCH   6   7
ENDBRANCH   1   6
BRANCH   1  19
ATOM     19  C   UNL     1       1.310  -1.636  -1.807  0.00  0.00    +0.019 C 
BRANCH  19  20
ATOM     20  C   UNL     1       2.800  -1.407  -1.849  0.00  0.00    +0.200 C 
ATOM     21  O   UNL     1       3.361  -0.891  -0.906  0.00  0.00    -0.278 OA
ATOM     22  N   UNL     1       3.508  -1.776  -2.935  0.00  0.00    -0.296 N 
BRANCH  22  23
ATOM     23  C   UNL     1       2.816  -2.281  -4.123  0.00  0.00    +0.099 C 
ATOM     24  C   UNL     1       1.991  -3.523  -3.745  0.00  0.00    +0.046 C 
ATOM     25  C   UNL     1       1.034  -3.847  -4.927  0.00  0.00    +0.168 C 
ATOM     26  S   UNL     1       0.498  -2.150  -5.403  0.00  0.00    -0.029 S 
ATOM     27  O   UNL     1      -0.699  -1.831  -4.707  0.00  0.00    -0.174 OA
ATOM     28  O   UNL     1       0.536  -2.033  -6.818  0.00  0.00    -0.174 OA
ATOM     29  C   UNL     1       1.883  -1.180  -4.683  0.00  0.00    +0.188 C 
ENDBRANCH  22  23
BRANCH  22  30
ATOM     30  C   UNL     1       4.969  -1.671  -2.927  0.00  0.00    +0.073 C 
ATOM     31  C   UNL     1       5.374  -0.206  -2.750  0.00  0.00    +0.028 C 
BRANCH  30  32
ATOM     32  C   UNL     1       5.533  -2.499  -1.771  0.00  0.00    +0.019 C 
ATOM     33  C   UNL     1       5.236  -3.981  -2.012  0.00  0.00    +0.005 C 
ENDBRANCH  30  32
ENDBRANCH  22  30
ENDBRANCH  19  20
ENDBRANCH   1  19
TORSDOF 10
