REMARK  Name = ZINC39678473
REMARK  6 active torsions:
REMARK  status: ('A' for Active; 'I' for Inactive)
REMARK    1  A    between atoms: C_3  and  C_11
REMARK    2  A    between atoms: C_5  and  O_7
REMARK    3  A    between atoms: O_7  and  C_8
REMARK    4  A    between atoms: C_11  and  N_12
REMARK    5  A    between atoms: C_13  and  C_15
REMARK    6  A    between atoms: C_26  and  C_28
REMARK                            x       y       z     vdW  Elec       q    Type
REMARK                         _______ _______ _______ _____ _____    ______ ____
ROOT
ATOM      1  C   UNL     1       5.656   3.360   3.706  0.00  0.00    +0.100 C 
ATOM      2  C   UNL     1       5.846   1.886   4.127  0.00  0.00    +0.121 C 
ATOM      3  N   UNL     1       7.288   1.619   3.918  0.00  0.00    -0.296 N 
ATOM      4  C   UNL     1       7.961   2.862   4.364  0.00  0.00    +0.115 C 
ATOM      5  C   UNL     1       7.046   3.999   3.867  0.00  0.00    -0.004 C 
ATOM      6  C   UNL     1       6.995   5.124   4.896  0.00  0.00    -0.010 C 
ATOM      7  C   UNL     1       8.374   5.782   4.996  0.00  0.00    -0.082 C 
ATOM      8  N   UNL     1       8.763   6.310   3.683  0.00  0.00    +0.379 N 
ATOM      9  C   UNL     1       8.900   5.209   2.722  0.00  0.00    -0.082 C 
ATOM     10  C   UNL     1       7.543   4.527   2.525  0.00  0.00    -0.010 C 
ATOM     11  C   UNL     1       7.860   0.500   3.431  0.00  0.00    +0.247 C 
ATOM     12  O   UNL     1       7.165  -0.394   2.987  0.00  0.00    -0.270 OA
ATOM     13  H   UNL     1       8.056   6.952   3.357  0.00  0.00    -0.086 HD
ATOM     14  H   UNL     1       9.643   6.795   3.764  0.00  0.00    -0.086 HD
ENDROOT
BRANCH  11  15
ATOM     15  C   UNL     1       9.331   0.358   3.438  0.00  0.00    +0.037 A 
ATOM     16  C   UNL     1      10.106   1.131   4.304  0.00  0.00    +0.014 A 
ATOM     17  C   UNL     1      11.478   0.995   4.305  0.00  0.00    +0.016 A 
ATOM     18  C   UNL     1      12.088   0.093   3.450  0.00  0.00    +0.018 A 
ATOM     19  C   UNL     1      11.325  -0.677   2.588  0.00  0.00    +0.016 A 
ATOM     20  C   UNL     1       9.951  -0.554   2.582  0.00  0.00    +0.014 A 
ATOM     21 BR   UNL     1      13.970  -0.088   3.458  0.00  0.00    -0.050 Br
ENDBRANCH  11  15
BRANCH   1  23
ATOM     22  N   UNL     1       4.535   4.529   1.837  0.00  0.00    -0.311 N 
ATOM     23  C   UNL     1       5.204   3.443   2.271  0.00  0.00    +0.218 C 
ATOM     24  O   UNL     1       5.443   2.532   1.507  0.00  0.00    -0.275 OA
ATOM     25  H   UNL     1       4.344   5.258   2.448  0.00  0.00    +0.149 HD
BRANCH  22  26
ATOM     26  C   UNL     1       4.095   4.609   0.442  0.00  0.00    +0.139 C 
BRANCH  26  29
ATOM     27  C   UNL     1       3.425   8.231  -0.393  0.00  0.00    +0.004 A 
ATOM     28  C   UNL     1       4.083   7.032  -0.184  0.00  0.00    +0.005 A 
ATOM     29  C   UNL     1       3.376   5.914   0.216  0.00  0.00    -0.027 A 
ATOM     30  C   UNL     1       2.010   5.991   0.408  0.00  0.00    +0.051 A 
ATOM     31  C   UNL     1       1.348   7.192   0.201  0.00  0.00    +0.127 A 
ATOM     32  C   UNL     1       2.060   8.314  -0.201  0.00  0.00    +0.046 A 
BRANCH  31  33
ATOM     33  O   UNL     1       0.004   7.271   0.389  0.00  0.00    -0.434 OA
BRANCH  33  34
ATOM     34  C   UNL     1      -0.610   8.540   0.157  0.00  0.00    +0.541 C 
ATOM     35  F   UNL     1      -0.053   9.493   1.016  0.00  0.00    -0.166 F 
ATOM     36  F   UNL     1      -0.394   8.926  -1.171  0.00  0.00    -0.166 F 
ENDBRANCH  33  34
ENDBRANCH  31  33
ENDBRANCH  26  29
ENDBRANCH  22  26
ENDBRANCH   1  23
TORSDOF 6
