REMARK  Name = ZINC35316013
REMARK  9 active torsions:
REMARK  status: ('A' for Active; 'I' for Inactive)
REMARK    1  A    between atoms: C_1  and  C_2
REMARK    2  A    between atoms: C_5  and  S_8
REMARK    3  A    between atoms: S_8  and  N_11
REMARK    4  A    between atoms: N_11  and  C_12
REMARK    5  A    between atoms: C_12  and  C_14
REMARK    6  A    between atoms: C_12  and  C_15
REMARK    7  A    between atoms: C_15  and  N_17
REMARK    8  A    between atoms: C_20  and  C_24
REMARK    9  A    between atoms: C_24  and  C_25
REMARK                            x       y       z     vdW  Elec       q    Type
REMARK                         _______ _______ _______ _____ _____    ______ ____
ROOT
ATOM      1  C   UNL     1       3.908  -4.404   0.629  0.00  0.00    +0.257 C 
ATOM      2  O   UNL     1       4.160  -4.442  -0.561  0.00  0.00    -0.272 OA
ENDROOT
BRANCH   1   3
ATOM      3  N   UNL     1       4.863  -4.104   1.500  0.00  0.00    -0.144 NA
ATOM      4  C   UNL     1       6.099  -3.843   1.072  0.00  0.00    +0.215 A 
ATOM      5  N   UNL     1       7.170  -3.523   1.846  0.00  0.00    -0.313 N 
ATOM      6  C   UNL     1       8.250  -3.333   1.024  0.00  0.00    +0.134 A 
ATOM      7  N   UNL     1       7.884  -3.522  -0.203  0.00  0.00    -0.158 NA
ATOM      8  H   UNL     1       7.169  -3.443   2.812  0.00  0.00    +0.170 HD
ATOM      9  N   UNL     1       6.522  -3.853  -0.210  0.00  0.00    -0.247 N 
ATOM     10  H   UNL     1       5.983  -4.052  -0.992  0.00  0.00    +0.192 HD
BRANCH   6  11
ATOM     11  C   UNL     1       9.640  -2.963   1.476  0.00  0.00    +0.111 C 
BRANCH  11  12
ATOM     12  C   UNL     1      10.544  -2.846   0.276  0.00  0.00    -0.040 A 
ATOM     13  C   UNL     1      11.232  -3.954  -0.182  0.00  0.00    +0.004 A 
ATOM     14  C   UNL     1      12.061  -3.847  -1.283  0.00  0.00    +0.000 A 
ATOM     15  C   UNL     1      12.202  -2.632  -1.926  0.00  0.00    +0.000 A 
ATOM     16  C   UNL     1      11.514  -1.524  -1.469  0.00  0.00    +0.000 A 
ATOM     17  C   UNL     1      10.681  -1.632  -0.371  0.00  0.00    +0.004 A 
ENDBRANCH  11  12
ENDBRANCH   6  11
ENDBRANCH   1   3
BRANCH   1  18
ATOM     18  C   UNL     1       2.512  -4.699   1.113  0.00  0.00    +0.161 C 
ATOM     19  C   UNL     1       2.542  -5.903   2.056  0.00  0.00    +0.035 C 
BRANCH  18  20
ATOM     20  N   UNL     1       1.651  -4.999  -0.034  0.00  0.00    -0.178 NA
ATOM     21  H   UNL     1       2.011  -5.473  -0.800  0.00  0.00    +0.149 HD
BRANCH  20  22
ATOM     22  S   UNL     1       0.063  -4.530  -0.023  0.00  0.00    +0.059 S 
ATOM     23  O   UNL     1      -0.476  -4.950   1.223  0.00  0.00    -0.153 OA
ATOM     24  O   UNL     1      -0.490  -4.937  -1.267  0.00  0.00    -0.153 OA
BRANCH  22  29
ATOM     25  C   UNL     1      -0.018   1.503   0.010  0.00  0.00    +0.044 C 
ATOM     26  C   UNL     1       0.002  -0.004   0.002  0.00  0.00    -0.050 A 
ATOM     27  C   UNL     1       0.006  -0.689  -1.199  0.00  0.00    +0.005 A 
ATOM     28  C   UNL     1       0.025  -2.071  -1.206  0.00  0.00    +0.029 A 
ATOM     29  C   UNL     1       0.040  -2.768  -0.013  0.00  0.00    +0.105 A 
ATOM     30  C   UNL     1       0.037  -2.084   1.188  0.00  0.00    +0.029 A 
ATOM     31  C   UNL     1       0.023  -0.702   1.195  0.00  0.00    +0.005 A 
ENDBRANCH  22  29
ENDBRANCH  20  22
ENDBRANCH  18  20
ENDBRANCH   1  18
TORSDOF 7
