REMARK  Name = ZINC42529830
REMARK  8 active torsions:
REMARK  status: ('A' for Active; 'I' for Inactive)
REMARK    1  A    between atoms: C_1  and  C_2
REMARK    2  A    between atoms: C_2  and  C_3
REMARK    3  A    between atoms: C_2  and  N_4
REMARK    4  A    between atoms: N_4  and  C_5
REMARK    5  A    between atoms: C_5  and  C_6
REMARK    6  A    between atoms: C_6  and  C_7
REMARK    7  A    between atoms: N_8  and  O_9
REMARK    8  A    between atoms: N_13  and  C_14
REMARK                            x       y       z     vdW  Elec       q    Type
REMARK                         _______ _______ _______ _____ _____    ______ ____
ROOT
ATOM      1  N   UNL     1      -1.440  -0.277  -0.215  0.00  0.00    -0.282 N 
ATOM      2  C   UNL     1      -2.332   0.069   0.734  0.00  0.00    +0.307 C 
ATOM      3  O   UNL     1      -3.523  -0.062   0.526  0.00  0.00    -0.252 OA
ATOM      4  N   UNL     1      -1.905   0.561   1.913  0.00  0.00    -0.268 N 
ATOM      5  H   UNL     1      -0.960   0.729   2.055  0.00  0.00    +0.156 HD
ENDROOT
BRANCH   4   6
ATOM      6  C   UNL     1      -2.824   0.830   2.934  0.00  0.00    +0.055 A 
ATOM      7  C   UNL     1      -4.090   0.261   2.898  0.00  0.00    +0.044 A 
ATOM      8  C   UNL     1      -4.995   0.529   3.908  0.00  0.00    +0.043 A 
ATOM      9  C   UNL     1      -4.642   1.364   4.953  0.00  0.00    +0.021 A 
ATOM     10  C   UNL     1      -3.382   1.932   4.992  0.00  0.00    +0.023 A 
ATOM     11  C   UNL     1      -2.470   1.663   3.988  0.00  0.00    +0.062 A 
ATOM     12 CL   UNL     1      -0.886   2.372   4.041  0.00  0.00    -0.082 Cl
ATOM     13 CL   UNL     1      -6.578  -0.183   3.864  0.00  0.00    -0.083 Cl
ENDBRANCH   4   6
BRANCH   1  15
ATOM     14  C   UNL     1       0.772  -1.320  -0.184  0.00  0.00    +0.028 C 
ATOM     15  C   UNL     1      -0.013  -0.019  -0.008  0.00  0.00    +0.071 C 
ATOM     16  C   UNL     1       0.472   1.012  -1.030  0.00  0.00    +0.028 C 
ENDBRANCH   1  15
BRANCH   1  17
ATOM     17  C   UNL     1      -1.897  -0.912  -1.454  0.00  0.00    +0.117 C 
BRANCH  17  18
ATOM     18  C   UNL     1      -1.910  -2.432  -1.273  0.00  0.00    +0.093 C 
BRANCH  18  19
ATOM     19  C   UNL     1      -2.380  -3.085  -2.547  0.00  0.00    +0.133 C 
ATOM     20  N   UNL     1      -2.696  -2.358  -3.567  0.00  0.00    -0.077 NA
ATOM     21  N   UNL     1      -2.474  -4.457  -2.623  0.00  0.00    -0.344 N 
ATOM     22  H   UNL     1      -2.237  -5.003  -1.857  0.00  0.00    +0.144 HD
ATOM     23  H   UNL     1      -2.777  -4.878  -3.443  0.00  0.00    +0.144 HD
BRANCH  20  24
ATOM     24  O   UNL     1      -3.137  -2.972  -4.764  0.00  0.00    -0.408 OA
ATOM     25  H   UNL     1      -3.350  -2.348  -5.471  0.00  0.00    +0.328 HD
ENDBRANCH  20  24
ENDBRANCH  18  19
ENDBRANCH  17  18
ENDBRANCH   1  17
TORSDOF 6
