REMARK  Name = ZINC58021123
REMARK  2 active torsions:
REMARK  status: ('A' for Active; 'I' for Inactive)
REMARK    1  A    between atoms: C_4  and  N_18
REMARK    2  A    between atoms: C_6  and  C_7
REMARK                            x       y       z     vdW  Elec       q    Type
REMARK                         _______ _______ _______ _____ _____    ______ ____
ROOT
ATOM      1  C   UNL     1      -1.266  -0.762   0.011  0.00  0.00    +0.169 A 
ATOM      2  N   UNL     1      -1.395  -2.057   0.195  0.00  0.00    -0.128 NA
ATOM      3  N   UNL     1      -2.639  -2.385   0.141  0.00  0.00    -0.121 NA
ATOM      4  C   UNL     1      -3.360  -1.324  -0.079  0.00  0.00    +0.201 A 
ATOM      5  N   UNL     1      -2.539  -0.235  -0.169  0.00  0.00    -0.273 N 
ATOM      6  C   UNL     1      -3.117   1.014  -0.397  0.00  0.00    +0.037 A 
ATOM      7  C   UNL     1      -4.445   1.077  -0.511  0.00  0.00    +0.013 A 
ATOM      8  S   UNL     1      -4.968  -0.613  -0.320  0.00  0.00    -0.052 S 
ATOM      9  C   UNL     1      -4.939   2.475  -0.748  0.00  0.00    +0.044 C 
ATOM     10  C   UNL     1      -3.751   3.378  -0.346  0.00  0.00    +0.011 C 
ATOM     11  C   UNL     1      -2.555   2.430  -0.565  0.00  0.00    +0.055 C 
ENDROOT
BRANCH   1  17
ATOM     12  C   UNL     1       0.132   1.134  -0.796  0.00  0.00    +0.013 A 
ATOM     13  C   UNL     1       1.317   1.841  -0.802  0.00  0.00    +0.022 A 
ATOM     14  C   UNL     1       2.379   1.426  -0.020  0.00  0.00    +0.062 A 
ATOM     15  C   UNL     1       2.260   0.293   0.779  0.00  0.00    +0.044 A 
ATOM     16  C   UNL     1       1.073  -0.423   0.792  0.00  0.00    +0.035 A 
ATOM     17  C   UNL     1       0.002  -0.004   0.002  0.00  0.00    +0.021 A 
ATOM     18 CL   UNL     1       3.867   2.321  -0.035  0.00  0.00    -0.082 Cl
BRANCH  15  19
ATOM     19  N   UNL     1       3.336  -0.123   1.568  0.00  0.00    -0.357 N 
ATOM     20  H   UNL     1       4.166   0.379   1.559  0.00  0.00    +0.142 HD
ATOM     21  H   UNL     1       3.252  -0.912   2.125  0.00  0.00    +0.142 HD
ENDBRANCH  15  19
ENDBRANCH   1  17
TORSDOF 2
