REMARK  Name = ZINC14579188
REMARK  10 active torsions:
REMARK  status: ('A' for Active; 'I' for Inactive)
REMARK    1  A    between atoms: C_1  and  C_2
REMARK    2  A    between atoms: C_2  and  C_3
REMARK    3  A    between atoms: C_2  and  C_4
REMARK    4  A    between atoms: C_4  and  C_5
REMARK    5  A    between atoms: C_5  and  N_6
REMARK    6  A    between atoms: N_6  and  C_7
REMARK    7  A    between atoms: C_8  and  N_23
REMARK    8  A    between atoms: N_9  and  C_16
REMARK    9  A    between atoms: C_16  and  C_17
REMARK   10  A    between atoms: C_24  and  C_26
REMARK                            x       y       z     vdW  Elec       q    Type
REMARK                         _______ _______ _______ _____ _____    ______ ____
ROOT
ATOM      1  C   UNL     1       1.154   2.095   0.780  0.00  0.00    +0.140 A 
ATOM      2  C   UNL     1       0.617   1.282  -0.198  0.00  0.00    +0.128 A 
ATOM      3  N   UNL     1       0.924  -0.058  -0.201  0.00  0.00    -0.276 N 
ATOM      4  C   UNL     1       1.738  -0.572   0.740  0.00  0.00    +0.331 A 
ATOM      5  O   UNL     1       1.997  -1.760   0.721  0.00  0.00    -0.246 OA
ATOM      6  N   UNL     1       2.270   0.204   1.700  0.00  0.00    -0.273 N 
ATOM      7  H   UNL     1       2.873  -0.203   2.387  0.00  0.00    +0.173 HD
ATOM      8  C   UNL     1       2.002   1.524   1.748  0.00  0.00    +0.277 A 
ATOM      9  O   UNL     1       2.485   2.217   2.626  0.00  0.00    -0.266 OA
ENDROOT
BRANCH   1  10
ATOM     10  N   UNL     1       0.858   3.473   0.810  0.00  0.00    -0.260 N 
ATOM     11  C   UNL     1       1.848   4.378   0.680  0.00  0.00    +0.253 C 
ATOM     12  O   UNL     1       1.601   5.566   0.764  0.00  0.00    -0.270 OA
BRANCH  11  13
ATOM     13  C   UNL     1       3.234   3.927   0.437  0.00  0.00    +0.055 A 
ATOM     14  C   UNL     1       4.320   4.736   0.798  0.00  0.00    +0.017 A 
ATOM     15  C   UNL     1       5.597   4.268   0.550  0.00  0.00    +0.041 A 
ATOM     16  C   UNL     1       5.761   3.026  -0.043  0.00  0.00    +0.129 A 
ATOM     17  N   UNL     1       4.718   2.286  -0.372  0.00  0.00    -0.243 NA
ATOM     18  C   UNL     1       3.483   2.687  -0.151  0.00  0.00    +0.125 A 
ATOM     19 CL   UNL     1       7.362   2.434  -0.357  0.00  0.00    -0.062 Cl
ENDBRANCH  11  13
BRANCH  10  20
ATOM     20  C   UNL     1      -0.526   3.922   0.981  0.00  0.00    +0.114 C 
BRANCH  20  21
ATOM     21  C   UNL     1      -0.802   4.171   2.465  0.00  0.00    +0.022 C 
BRANCH  21  23
ATOM     22  C   UNL     1      -3.202   3.514   2.239  0.00  0.00    +0.007 C 
ATOM     23  C   UNL     1      -2.247   4.639   2.644  0.00  0.00    -0.016 C 
ATOM     24  C   UNL     1      -2.486   5.008   4.110  0.00  0.00    +0.007 C 
ENDBRANCH  21  23
ENDBRANCH  20  21
ENDBRANCH  10  20
ENDBRANCH   1  10
BRANCH   2  25
ATOM     25  N   UNL     1      -0.215   1.807  -1.158  0.00  0.00    -0.343 N 
ATOM     26  H   UNL     1      -0.692   1.216  -1.762  0.00  0.00    +0.144 HD
ATOM     27  H   UNL     1      -0.325   2.768  -1.232  0.00  0.00    +0.144 HD
ENDBRANCH   2  25
BRANCH   3  28
ATOM     28  C   UNL     1       0.361  -0.932  -1.233  0.00  0.00    +0.163 C 
BRANCH  28  29
ATOM     29  C   UNL     1      -0.955  -1.490  -0.756  0.00  0.00    -0.028 A 
ATOM     30  C   UNL     1      -0.988  -2.685  -0.061  0.00  0.00    +0.005 A 
ATOM     31  C   UNL     1      -2.194  -3.194   0.381  0.00  0.00    +0.000 A 
ATOM     32  C   UNL     1      -3.369  -2.514   0.119  0.00  0.00    +0.000 A 
ATOM     33  C   UNL     1      -3.337  -1.323  -0.581  0.00  0.00    +0.000 A 
ATOM     34  C   UNL     1      -2.129  -0.810  -1.018  0.00  0.00    +0.005 A 
ENDBRANCH  28  29
ENDBRANCH   3  28
TORSDOF 8
