REMARK  Name = ZINC43216312
REMARK  9 active torsions:
REMARK  status: ('A' for Active; 'I' for Inactive)
REMARK    1  A    between atoms: C_4  and  C_7
REMARK    2  A    between atoms: C_7  and  O_8
REMARK    3  A    between atoms: O_8  and  C_9
REMARK    4  A    between atoms: C_9  and  C_11
REMARK    5  A    between atoms: C_11  and  C_13
REMARK    6  A    between atoms: C_11  and  N_24
REMARK    7  A    between atoms: C_13  and  C_14
REMARK    8  A    between atoms: C_25  and  C_27
REMARK    9  A    between atoms: C_30  and  C_32
REMARK                            x       y       z     vdW  Elec       q    Type
REMARK                         _______ _______ _______ _____ _____    ______ ____
ROOT
ATOM      1  C   UNL     1       5.821  -1.885   2.850  0.00  0.00    +0.186 C 
ENDROOT
BRANCH   1   2
ATOM      2  N   UNL     1       7.097  -2.599   2.757  0.00  0.00    -0.297 N 
ATOM      3  C   UNL     1       7.503  -3.390   3.770  0.00  0.00    +0.266 C 
ATOM      4  O   UNL     1       6.809  -3.511   4.761  0.00  0.00    -0.268 OA
ATOM      5  H   UNL     1       7.650  -2.502   1.966  0.00  0.00    +0.150 HD
BRANCH   3   6
ATOM      6  C   UNL     1       8.787  -4.108   3.675  0.00  0.00    +0.163 A 
ATOM      7  C   UNL     1       9.318  -4.941   4.612  0.00  0.00    +0.230 A 
ATOM      8  O   UNL     1      10.491  -5.378   4.126  0.00  0.00    -0.447 OA
ATOM      9  C   UNL     1      10.676  -4.827   2.918  0.00  0.00    +0.197 A 
ATOM     10  N   UNL     1       9.661  -4.068   2.634  0.00  0.00    -0.208 NA
BRANCH   9  11
ATOM     11  C   UNL     1      11.871  -5.056   2.029  0.00  0.00    +0.058 C 
ATOM     12  C   UNL     1      11.980  -6.546   1.692  0.00  0.00    +0.009 C 
ATOM     13  C   UNL     1      13.240  -6.779   0.854  0.00  0.00    -0.018 C 
ATOM     14  C   UNL     1      14.460  -6.268   1.624  0.00  0.00    -0.083 C 
ATOM     15  N   UNL     1      14.308  -4.833   1.893  0.00  0.00    +0.380 N 
ATOM     16  C   UNL     1      13.142  -4.608   2.755  0.00  0.00    -0.070 C 
ATOM     17  H   UNL     1      15.137  -4.489   2.353  0.00  0.00    -0.086 HD
ATOM     18  H   UNL     1      14.180  -4.340   1.022  0.00  0.00    -0.086 HD
ENDBRANCH   9  11
ENDBRANCH   3   6
ENDBRANCH   1   2
BRANCH   1  19
ATOM     19  C   UNL     1       5.304  -1.597   1.464  0.00  0.00    +0.328 C 
ATOM     20  O   UNL     1       5.936  -1.951   0.498  0.00  0.00    -0.249 OA
BRANCH  19  21
ATOM     21  O   UNL     1       4.141  -0.946   1.304  0.00  0.00    -0.459 OA
BRANCH  21  22
ATOM     22  C   UNL     1       3.711  -0.707  -0.038  0.00  0.00    +0.267 C 
BRANCH  22  26
ATOM     23  C   UNL     1      -0.017   1.378   0.010  0.00  0.00    +0.000 A 
ATOM     24  C   UNL     1       1.171   2.086   0.002  0.00  0.00    +0.000 A 
ATOM     25  C   UNL     1       2.377   1.411  -0.013  0.00  0.00    +0.007 A 
ATOM     26  C   UNL     1       2.396   0.029  -0.020  0.00  0.00    -0.010 A 
ATOM     27  C   UNL     1       1.208  -0.679  -0.012  0.00  0.00    +0.007 A 
ATOM     28  C   UNL     1       0.002  -0.004   0.002  0.00  0.00    +0.000 A 
ENDBRANCH  22  26
ENDBRANCH  21  22
ENDBRANCH  19  21
ENDBRANCH   1  19
BRANCH   1  29
ATOM     29  C   UNL     1       6.028  -0.568   3.602  0.00  0.00    +0.071 C 
BRANCH  29  30
ATOM     30  C   UNL     1       6.427  -0.860   5.025  0.00  0.00    -0.020 A 
ATOM     31  C   UNL     1       5.607  -0.930   6.086  0.00  0.00    +0.087 A 
ATOM     32  N   UNL     1       6.327  -1.214   7.214  0.00  0.00    -0.360 N 
ATOM     33  H   UNL     1       5.953  -1.315   8.104  0.00  0.00    +0.165 HD
ATOM     34  C   UNL     1       7.662  -1.336   6.899  0.00  0.00    +0.047 A 
ATOM     35  C   UNL     1       7.782  -1.125   5.513  0.00  0.00    +0.003 A 
ATOM     36  C   UNL     1       9.037  -1.194   4.904  0.00  0.00    +0.010 A 
ATOM     37  C   UNL     1      10.143  -1.470   5.659  0.00  0.00    +0.001 A 
ATOM     38  C   UNL     1      10.029  -1.682   7.025  0.00  0.00    +0.002 A 
ATOM     39  C   UNL     1       8.802  -1.610   7.648  0.00  0.00    +0.026 A 
ENDBRANCH  29  30
ENDBRANCH   1  29
TORSDOF 9
