REMARK  Name = ZINC49508241
REMARK  3 active torsions:
REMARK  status: ('A' for Active; 'I' for Inactive)
REMARK    1  A    between atoms: C_12  and  N_17
REMARK    2  A    between atoms: C_18  and  C_20
REMARK    3  A    between atoms: C_21  and  C_22
REMARK                            x       y       z     vdW  Elec       q    Type
REMARK                         _______ _______ _______ _____ _____    ______ ____
ROOT
ATOM      1  C   UNL     1       0.299   1.812   0.190  0.00  0.00    +0.002 A 
ATOM      2  C   UNL     1       1.559   2.366   0.072  0.00  0.00    +0.004 A 
ATOM      3  C   UNL     1       2.671   1.548   0.007  0.00  0.00    +0.048 A 
ATOM      4  C   UNL     1       2.527   0.168   0.052  0.00  0.00    +0.150 A 
ATOM      5  C   UNL     1       1.259  -0.392   0.148  0.00  0.00    +0.076 A 
ATOM      6  C   UNL     1       0.147   0.440   0.229  0.00  0.00    +0.027 A 
ATOM      7  N   UNL     1       1.067  -1.773   0.126  0.00  0.00    -0.278 N 
ATOM      8  C   UNL     1       1.829  -2.679   0.724  0.00  0.00    +0.252 C 
ATOM      9  O   UNL     1       1.504  -3.846   0.615  0.00  0.00    -0.270 OA
ATOM     10  C   UNL     1       3.035  -2.380   1.507  0.00  0.00    +0.081 A 
ATOM     11  C   UNL     1       3.307  -3.111   2.668  0.00  0.00    +0.040 A 
ATOM     12  C   UNL     1       4.455  -2.849   3.396  0.00  0.00    +0.035 A 
ATOM     13  C   UNL     1       5.339  -1.862   2.974  0.00  0.00    +0.027 A 
ATOM     14  C   UNL     1       5.072  -1.131   1.834  0.00  0.00    +0.049 A 
ATOM     15  C   UNL     1       3.919  -1.374   1.102  0.00  0.00    +0.141 A 
ATOM     16  O   UNL     1       3.638  -0.609   0.021  0.00  0.00    -0.453 OA
ATOM     17  H   UNL     1       0.304  -2.102  -0.373  0.00  0.00    +0.155 HD
ENDROOT
BRANCH  12  18
ATOM     18  N   UNL     1       4.726  -3.579   4.560  0.00  0.00    -0.282 N 
ATOM     19  C   UNL     1       5.361  -2.989   5.593  0.00  0.00    +0.241 C 
ATOM     20  O   UNL     1       5.614  -1.798   5.552  0.00  0.00    -0.270 OA
ATOM     21  H   UNL     1       4.456  -4.508   4.624  0.00  0.00    +0.155 HD
BRANCH  19  22
ATOM     22  C   UNL     1       5.734  -3.753   6.723  0.00  0.00    +0.068 C 
ATOM     23  C   UNL     1       6.374  -3.160   7.762  0.00  0.00    +0.020 C 
BRANCH  23  24
ATOM     24  C   UNL     1       6.747  -3.925   8.893  0.00  0.00    +0.012 A 
ATOM     25  C   UNL     1       7.396  -3.516  10.052  0.00  0.00    +0.015 A 
ATOM     26  C   UNL     1       7.625  -4.499  10.985  0.00  0.00    +0.008 A 
ATOM     27  C   UNL     1       7.216  -5.765  10.722  0.00  0.00    +0.046 A 
ATOM     28  S   UNL     1       6.501  -5.663   9.206  0.00  0.00    -0.097 S 
ENDBRANCH  23  24
ENDBRANCH  19  22
ENDBRANCH  12  18
TORSDOF 3
