REMARK  Name = ZINC67612279
REMARK  10 active torsions:
REMARK  status: ('A' for Active; 'I' for Inactive)
REMARK    1  A    between atoms: C_1  and  C_2
REMARK    2  A    between atoms: C_5  and  C_8
REMARK    3  A    between atoms: C_8  and  C_10
REMARK    4  A    between atoms: C_8  and  N_13
REMARK    5  A    between atoms: N_16  and  C_17
REMARK    6  A    between atoms: C_17  and  C_18
REMARK    7  A    between atoms: C_18  and  C_20
REMARK    8  A    between atoms: C_18  and  O_28
REMARK    9  A    between atoms: C_20  and  N_21
REMARK   10  A    between atoms: C_24  and  C_27
REMARK                            x       y       z     vdW  Elec       q    Type
REMARK                         _______ _______ _______ _____ _____    ______ ____
ROOT
ATOM      1  N   UNL     1      -1.364  -4.567   0.736  0.00  0.00    -0.292 N 
ATOM      2  C   UNL     1      -1.799  -5.842   0.694  0.00  0.00    +0.300 C 
ATOM      3  O   UNL     1      -1.552  -6.537  -0.272  0.00  0.00    -0.253 OA
ATOM      4  N   UNL     1      -2.508  -6.346   1.723  0.00  0.00    -0.297 N 
ATOM      5  H   UNL     1      -1.561  -4.012   1.506  0.00  0.00    +0.151 HD
ATOM      6  H   UNL     1      -2.705  -5.791   2.494  0.00  0.00    +0.150 HD
ENDROOT
BRANCH   1   7
ATOM      7  C   UNL     1      -0.593  -4.019  -0.383  0.00  0.00    +0.108 C 
BRANCH   7  12
ATOM      8  C   UNL     1      -1.193   1.727  -0.504  0.00  0.00    +0.044 C 
ATOM      9  C   UNL     1      -1.037   0.229  -0.472  0.00  0.00    -0.050 A 
ATOM     10  C   UNL     1      -1.032  -0.491  -1.653  0.00  0.00    +0.004 A 
ATOM     11  C   UNL     1      -0.888  -1.865  -1.624  0.00  0.00    +0.006 A 
ATOM     12  C   UNL     1      -0.749  -2.521  -0.415  0.00  0.00    -0.027 A 
ATOM     13  C   UNL     1      -0.752  -1.801   0.765  0.00  0.00    +0.006 A 
ATOM     14  C   UNL     1      -0.892  -0.426   0.736  0.00  0.00    +0.004 A 
ENDBRANCH   7  12
BRANCH   7  15
ATOM     15  C   UNL     1       0.885  -4.375  -0.207  0.00  0.00    +0.014 C 
ATOM     16  C   UNL     1       1.599  -5.031  -1.390  0.00  0.00    +0.006 C 
ATOM     17  C   UNL     1       1.252  -5.859  -0.151  0.00  0.00    +0.006 C 
ENDBRANCH   7  15
ENDBRANCH   1   7
BRANCH   4  18
ATOM     18  C   UNL     1      -2.981  -7.731   1.678  0.00  0.00    +0.135 C 
BRANCH  18  19
ATOM     19  C   UNL     1      -3.753  -8.049   2.960  0.00  0.00    +0.115 C 
BRANCH  19  20
ATOM     20  O   UNL     1      -4.935  -7.247   3.015  0.00  0.00    -0.392 OA
ATOM     21  H   UNL     1      -5.541  -7.389   2.275  0.00  0.00    +0.210 HD
ENDBRANCH  19  20
BRANCH  19  22
ATOM     22  C   UNL     1      -4.140  -9.529   2.970  0.00  0.00    -0.046 C 
BRANCH  22  23
ATOM     23  N   UNL     1      -4.870  -9.837   4.207  0.00  0.00    +0.381 N 
ATOM     24  C   UNL     1      -5.373 -11.214   4.146  0.00  0.00    -0.078 C 
ATOM     25  C   UNL     1      -6.203 -11.513   5.397  0.00  0.00    -0.016 C 
ATOM     26  C   UNL     1      -5.325 -11.343   6.639  0.00  0.00    -0.018 C 
ATOM     27  C   UNL     1      -4.746  -9.925   6.652  0.00  0.00    -0.016 C 
ATOM     28  C   UNL     1      -3.969  -9.685   5.356  0.00  0.00    -0.078 C 
ATOM     29  C   UNL     1      -6.168 -11.563   7.896  0.00  0.00    +0.007 C 
ATOM     30  H   UNL     1      -5.648  -9.201   4.304  0.00  0.00    -0.082 HD
ENDBRANCH  22  23
ENDBRANCH  19  22
ENDBRANCH  18  19
ENDBRANCH   4  18
TORSDOF 8
