REMARK  Name = ZINC51059098
REMARK  6 active torsions:
REMARK  status: ('A' for Active; 'I' for Inactive)
REMARK    1  A    between atoms: C_1  and  C_2
REMARK    2  A    between atoms: C_5  and  S_8
REMARK    3  A    between atoms: S_8  and  O_11
REMARK    4  A    between atoms: O_11  and  C_12
REMARK    5  A    between atoms: C_15  and  C_18
REMARK    6  A    between atoms: C_28  and  C_30
REMARK                            x       y       z     vdW  Elec       q    Type
REMARK                         _______ _______ _______ _____ _____    ______ ____
ROOT
ATOM      1  C   UNL     1       4.103  -4.366   4.883  0.00  0.00    +0.024 C 
ATOM      2  C   UNL     1       4.015  -5.360   5.832  0.00  0.00    +0.079 C 
ATOM      3  C   UNL     1       4.589  -5.195   7.197  0.00  0.00    +0.132 C 
ATOM      4  N   UNL     1       4.638  -4.049   7.821  0.00  0.00    -0.385 N 
ATOM      5  N   UNL     1       5.075  -6.400   7.749  0.00  0.00    -0.154 N 
ATOM      6  C   UNL     1       4.554  -7.579   7.261  0.00  0.00    +0.181 C 
ATOM      7  N   UNL     1       3.717  -7.731   6.265  0.00  0.00    -0.152 NA
ATOM      8  C   UNL     1       3.337  -6.650   5.552  0.00  0.00    +0.273 C 
ATOM      9  O   UNL     1       2.466  -6.730   4.700  0.00  0.00    -0.268 OA
ATOM     10  S   UNL     1       5.325  -8.786   8.306  0.00  0.00    -0.038 S 
ATOM     11  C   UNL     1       6.354  -7.663   9.242  0.00  0.00    +0.103 C 
ATOM     12  N   UNL     1       6.021  -6.506   8.746  0.00  0.00    -0.169 NA
ATOM     13  H   UNL     1       4.290  -3.249   7.396  0.00  0.00    +0.157 HD
ATOM     14  H   UNL     1       5.024  -3.997   8.710  0.00  0.00    +0.157 HD
ENDROOT
BRANCH   1  18
ATOM     15  C   UNL     1       2.912  -5.133   0.900  0.00  0.00    +0.157 A 
ATOM     16  C   UNL     1       2.667  -3.887   1.468  0.00  0.00    +0.049 A 
ATOM     17  C   UNL     1       3.050  -3.633   2.755  0.00  0.00    +0.011 A 
ATOM     18  C   UNL     1       3.690  -4.632   3.503  0.00  0.00    -0.024 A 
ATOM     19  C   UNL     1       3.933  -5.886   2.925  0.00  0.00    +0.011 A 
ATOM     20  C   UNL     1       3.541  -6.130   1.639  0.00  0.00    +0.049 A 
BRANCH  15  21
ATOM     21  O   UNL     1       2.530  -5.379  -0.379  0.00  0.00    -0.342 OA
BRANCH  21  22
ATOM     22  S   UNL     1       1.119  -5.935  -0.507  0.00  0.00    +0.151 S 
ATOM     23  O   UNL     1       0.939  -6.840   0.574  0.00  0.00    -0.131 OA
ATOM     24  O   UNL     1       0.959  -6.327  -1.863  0.00  0.00    -0.131 OA
BRANCH  22  29
ATOM     25  C   UNL     1      -2.698  -1.357   0.427  0.00  0.00    +0.044 C 
ATOM     26  C   UNL     1      -1.745  -2.500   0.194  0.00  0.00    -0.050 A 
ATOM     27  C   UNL     1      -1.297  -2.777  -1.085  0.00  0.00    +0.005 A 
ATOM     28  C   UNL     1      -0.423  -3.826  -1.298  0.00  0.00    +0.031 A 
ATOM     29  C   UNL     1       0.005  -4.598  -0.234  0.00  0.00    +0.128 A 
ATOM     30  C   UNL     1      -0.442  -4.320   1.044  0.00  0.00    +0.031 A 
ATOM     31  C   UNL     1      -1.313  -3.268   1.259  0.00  0.00    +0.005 A 
ENDBRANCH  22  29
ENDBRANCH  21  22
ENDBRANCH  15  21
ENDBRANCH   1  18
BRANCH  11  32
ATOM     32  C   UNL     1       7.351  -7.975  10.328  0.00  0.00    +0.046 C 
ATOM     33  C   UNL     1       8.396  -6.860  10.397  0.00  0.00    +0.010 C 
ATOM     34  C   UNL     1       9.408  -7.177  11.500  0.00  0.00    +0.001 C 
ATOM     35  C   UNL     1       8.683  -7.281  12.843  0.00  0.00    +0.000 C 
ATOM     36  C   UNL     1       7.638  -8.396  12.774  0.00  0.00    +0.001 C 
ATOM     37  C   UNL     1       6.626  -8.079  11.672  0.00  0.00    +0.010 C 
ENDBRANCH  11  32
TORSDOF 5
