REMARK  Name = ZINC04166882
REMARK  7 active torsions:
REMARK  status: ('A' for Active; 'I' for Inactive)
REMARK    1  A    between atoms: C_1  and  C_2
REMARK    2  A    between atoms: C_2  and  O_3
REMARK    3  A    between atoms: O_3  and  C_4
REMARK    4  A    between atoms: C_7  and  C_10
REMARK    5  A    between atoms: C_17  and  N_33
REMARK    6  A    between atoms: C_18  and  C_31
REMARK    7  A    between atoms: C_24  and  C_27
REMARK                            x       y       z     vdW  Elec       q    Type
REMARK                         _______ _______ _______ _____ _____    ______ ____
ROOT
ATOM      1  C   UNL     1      -1.998  -6.073  -0.011  0.00  0.00    +0.101 A 
ATOM      2  C   UNL     1      -2.955  -6.791   0.712  0.00  0.00    +0.066 A 
ATOM      3  C   UNL     1      -2.786  -8.118   0.433  0.00  0.00    +0.224 A 
ATOM      4  N   UNL     1      -1.759  -8.227  -0.434  0.00  0.00    -0.246 N 
ATOM      5  H   UNL     1      -1.414  -9.053  -0.807  0.00  0.00    +0.192 HD
ATOM      6  N   UNL     1      -1.282  -6.936  -0.706  0.00  0.00    -0.171 NA
ATOM      7  O   UNL     1      -3.566  -9.083   0.981  0.00  0.00    -0.423 OA
ATOM      8  C   UNL     1      -4.698  -8.702   1.607  0.00  0.00    +0.201 C 
ATOM      9  C   UNL     1      -4.972  -7.420   1.947  0.00  0.00    +0.110 C 
ATOM     10  C   UNL     1      -4.018  -6.296   1.652  0.00  0.00    +0.146 C 
ATOM     11  C   UNL     1      -3.420  -5.747   2.907  0.00  0.00    +0.013 A 
ATOM     12  C   UNL     1      -3.801  -4.400   2.964  0.00  0.00    +0.039 A 
ATOM     13  C   UNL     1      -3.394  -3.599   4.032  0.00  0.00    +0.024 A 
ATOM     14  C   UNL     1      -2.612  -4.194   5.010  0.00  0.00    +0.006 A 
ATOM     15  C   UNL     1      -2.244  -5.522   4.944  0.00  0.00    -0.036 A 
ATOM     16  C   UNL     1      -2.644  -6.332   3.884  0.00  0.00    +0.027 A 
ATOM     17 BR   UNL     1      -2.143  -8.153   3.789  0.00  0.00    -0.050 Br
ATOM     18  C   UNL     1      -1.393  -6.108   6.040  0.00  0.00    +0.045 C 
ATOM     19  N   UNL     1      -4.576  -4.072   1.866  0.00  0.00    -0.284 N 
ATOM     20  C   UNL     1      -4.757  -5.126   1.041  0.00  0.00    +0.238 C 
ATOM     21  O   UNL     1      -5.391  -5.133   0.007  0.00  0.00    -0.274 OA
ATOM     22  H   UNL     1      -4.947  -3.190   1.707  0.00  0.00    +0.155 HD
ENDROOT
BRANCH   1  26
ATOM     23  C   UNL     1      -1.497  -1.848   0.008  0.00  0.00    +0.121 A 
ATOM     24  C   UNL     1      -1.564  -2.543   1.208  0.00  0.00    +0.046 A 
ATOM     25  C   UNL     1      -1.726  -3.913   1.204  0.00  0.00    +0.013 A 
ATOM     26  C   UNL     1      -1.824  -4.599  -0.005  0.00  0.00    +0.003 A 
ATOM     27  C   UNL     1      -1.757  -3.898  -1.208  0.00  0.00    +0.013 A 
ATOM     28  C   UNL     1      -1.599  -2.528  -1.198  0.00  0.00    +0.046 A 
BRANCH  23  29
ATOM     29  O   UNL     1      -1.337  -0.499   0.014  0.00  0.00    -0.492 OA
BRANCH  29  31
ATOM     30  C   UNL     1      -1.063   1.644   1.096  0.00  0.00    +0.048 C 
ATOM     31  C   UNL     1      -1.238   0.137   1.290  0.00  0.00    +0.225 C 
ENDBRANCH  29  31
ENDBRANCH  23  29
ENDBRANCH   1  26
BRANCH   8  32
ATOM     32  N   UNL     1      -5.624  -9.667   1.916  0.00  0.00    -0.328 N 
ATOM     33  H   UNL     1      -5.455 -10.593   1.684  0.00  0.00    +0.145 HD
ATOM     34  H   UNL     1      -6.448  -9.422   2.367  0.00  0.00    +0.145 HD
ENDBRANCH   8  32
BRANCH   9  35
ATOM     35  C   UNL     1      -6.207  -7.127   2.609  0.00  0.00    +0.102 C 
ATOM     36  N   UNL     1      -7.188  -6.894   3.134  0.00  0.00    -0.191 NA
ENDBRANCH   9  35
TORSDOF 5
