REMARK  Name = ZINC12155312
REMARK  7 active torsions:
REMARK  status: ('A' for Active; 'I' for Inactive)
REMARK    1  A    between atoms: C_1  and  C_2
REMARK    2  A    between atoms: C_14  and  C_15
REMARK    3  A    between atoms: C_14  and  N_54
REMARK    4  A    between atoms: N_17  and  C_18
REMARK    5  A    between atoms: C_18  and  C_19
REMARK    6  A    between atoms: C_22  and  C_24
REMARK    7  A    between atoms: C_24  and  C_25
REMARK                            x       y       z     vdW  Elec       q    Type
REMARK                         _______ _______ _______ _____ _____    ______ ____
ROOT
ATOM      1  C   UNL     1      -4.798   4.017  -1.714  0.00  0.00    +0.197 C 
ATOM      2  O   UNL     1      -4.104   3.025  -1.642  0.00  0.00    -0.278 OA
ATOM      3  N   UNL     1      -6.109   3.903  -2.006  0.00  0.00    -0.311 N 
ATOM      4  H   UNL     1      -6.664   4.696  -2.063  0.00  0.00    +0.149 HD
ENDROOT
BRANCH   1   5
ATOM      5  C   UNL     1      -4.195   5.378  -1.478  0.00  0.00    +0.019 C 
BRANCH   5  18
ATOM      6  C   UNL     1       0.021   7.818  -1.440  0.00  0.00    +0.050 C 
ATOM      7  C   UNL     1      -0.578   6.422  -1.254  0.00  0.00    +0.154 C 
ATOM      8  C   UNL     1      -2.087   6.528  -1.224  0.00  0.00    -0.033 C 
ATOM      9  C   UNL     1      -2.559   4.535   0.094  0.00  0.00    -0.038 C 
ATOM     10  C   UNL     1      -1.242   3.787   0.034  0.00  0.00    -0.021 A 
ATOM     11  C   UNL     1      -1.231   2.407   0.021  0.00  0.00    +0.025 A 
ATOM     12  C   UNL     1      -0.021   1.732   0.012  0.00  0.00    +0.041 A 
ATOM     13  C   UNL     1       1.168   2.439   0.004  0.00  0.00    +0.023 A 
ATOM     14  C   UNL     1       1.155   3.821   0.003  0.00  0.00    +0.047 A 
ATOM     15  C   UNL     1      -0.057   4.496   0.010  0.00  0.00    +0.122 A 
ATOM     16  O   UNL     1      -0.084   5.857  -0.033  0.00  0.00    -0.491 OA
ATOM     17 CL   UNL     1       0.002  -0.004   0.002  0.00  0.00    -0.084 Cl
ATOM     18  N   UNL     1      -2.757   5.210  -1.211  0.00  0.00    +0.391 N 
ATOM     19  H   UNL     1      -2.349   4.625  -1.950  0.00  0.00    -0.081 HD
ENDBRANCH   5  18
ENDBRANCH   1   5
BRANCH   3  20
ATOM     20  C   UNL     1      -6.696   2.580  -2.235  0.00  0.00    +0.160 C 
BRANCH  20  21
ATOM     21  C   UNL     1      -8.164   2.728  -2.540  0.00  0.00    +0.066 A 
ATOM     22  C   UNL     1      -8.605   2.788  -3.823  0.00  0.00    +0.071 A 
ATOM     23  S   UNL     1     -10.364   2.954  -3.557  0.00  0.00    -0.080 S 
ATOM     24  C   UNL     1     -10.332   2.935  -1.821  0.00  0.00    +0.083 A 
ATOM     25  N   UNL     1      -9.050   2.806  -1.569  0.00  0.00    -0.247 NA
BRANCH  24  26
ATOM     26  C   UNL     1     -11.481   3.039  -0.852  0.00  0.00    +0.098 C 
BRANCH  26  27
ATOM     27  C   UNL     1     -11.725   4.487  -0.515  0.00  0.00    -0.041 A 
ATOM     28  C   UNL     1     -11.076   5.066   0.559  0.00  0.00    +0.004 A 
ATOM     29  C   UNL     1     -11.296   6.396   0.865  0.00  0.00    +0.000 A 
ATOM     30  C   UNL     1     -12.173   7.144   0.103  0.00  0.00    +0.000 A 
ATOM     31  C   UNL     1     -12.826   6.564  -0.968  0.00  0.00    +0.000 A 
ATOM     32  C   UNL     1     -12.602   5.236  -1.277  0.00  0.00    +0.004 A 
ENDBRANCH  26  27
ENDBRANCH  24  26
ENDBRANCH  20  21
ENDBRANCH   3  20
TORSDOF 6
