REMARK  Name = ZINC02355799
REMARK  3 active torsions:
REMARK  status: ('A' for Active; 'I' for Inactive)
REMARK    1  A    between atoms: C_7  and  C_19
REMARK    2  A    between atoms: N_9  and  C_10
REMARK    3  A    between atoms: C_10  and  C_11
REMARK                            x       y       z     vdW  Elec       q    Type
REMARK                         _______ _______ _______ _____ _____    ______ ____
ROOT
ATOM      1  C   UNL     1       0.335   1.277   1.113  0.00  0.00    +0.001 A 
ATOM      2  C   UNL     1       1.502   1.979   0.851  0.00  0.00    +0.002 A 
ATOM      3  C   UNL     1       2.601   1.340   0.319  0.00  0.00    +0.026 A 
ATOM      4  C   UNL     1       2.544  -0.022   0.038  0.00  0.00    +0.050 A 
ATOM      5  C   UNL     1       1.362  -0.729   0.304  0.00  0.00    +0.007 A 
ATOM      6  C   UNL     1       0.260  -0.072   0.842  0.00  0.00    +0.010 A 
ATOM      7  C   UNL     1       1.628  -2.125  -0.099  0.00  0.00    +0.001 A 
ATOM      8  C   UNL     1       2.931  -2.147  -0.569  0.00  0.00    +0.095 A 
ATOM      9  N   UNL     1       3.460  -0.913  -0.485  0.00  0.00    -0.342 N 
ENDROOT
BRANCH   7  10
ATOM     10  C   UNL     1       0.737  -3.213  -0.022  0.00  0.00    +0.028 C 
ATOM     11  C   UNL     1       1.175  -4.436   0.477  0.00  0.00    +0.101 C 
ATOM     12  C   UNL     1       2.496  -4.579   1.115  0.00  0.00    +0.255 C 
ATOM     13  N   UNL     1       2.845  -5.801   1.574  0.00  0.00    -0.262 N 
ATOM     14  C   UNL     1       2.017  -6.848   1.452  0.00  0.00    +0.164 C 
ATOM     15  N   UNL     1       0.816  -6.774   0.885  0.00  0.00    -0.154 NA
ATOM     16  C   UNL     1       0.339  -5.641   0.398  0.00  0.00    +0.274 C 
ATOM     17  O   UNL     1      -0.887  -5.595  -0.167  0.00  0.00    -0.268 OA
ATOM     18  S   UNL     1       2.534  -8.364   2.058  0.00  0.00    -0.016 S 
ATOM     19  O   UNL     1       3.248  -3.628   1.225  0.00  0.00    -0.270 OA
ATOM     20  H   UNL     1       3.709  -5.922   1.998  0.00  0.00    +0.157 HD
ENDBRANCH   7  10
BRANCH   9  21
ATOM     21  C   UNL     1       4.822  -0.563  -0.894  0.00  0.00    +0.157 C 
BRANCH  21  22
ATOM     22  C   UNL     1       5.735  -0.613   0.305  0.00  0.00    -0.026 A 
ATOM     23  C   UNL     1       5.919   0.516   1.081  0.00  0.00    +0.007 A 
ATOM     24  C   UNL     1       6.756   0.471   2.180  0.00  0.00    +0.022 A 
ATOM     25  C   UNL     1       7.409  -0.704   2.504  0.00  0.00    +0.059 A 
ATOM     26  C   UNL     1       7.225  -1.835   1.727  0.00  0.00    +0.060 A 
ATOM     27  C   UNL     1       6.383  -1.790   0.631  0.00  0.00    +0.026 A 
ATOM     28 CL   UNL     1       8.045  -3.310   2.133  0.00  0.00    -0.082 Cl
ATOM     29 CL   UNL     1       8.461  -0.761   3.884  0.00  0.00    -0.082 Cl
ENDBRANCH  21  22
ENDBRANCH   9  21
TORSDOF 3
