REMARK  Name = ZINC20975036
REMARK  8 active torsions:
REMARK  status: ('A' for Active; 'I' for Inactive)
REMARK    1  A    between atoms: C_1  and  C_2
REMARK    2  A    between atoms: C_2  and  C_3
REMARK    3  A    between atoms: C_3  and  C_5
REMARK    4  A    between atoms: C_3  and  C_6
REMARK    5  A    between atoms: C_9  and  N_12
REMARK    6  A    between atoms: C_22  and  S_23
REMARK    7  A    between atoms: S_23  and  C_24
REMARK    8  A    between atoms: C_24  and  C_25
REMARK                            x       y       z     vdW  Elec       q    Type
REMARK                         _______ _______ _______ _____ _____    ______ ____
ROOT
ATOM      1  N   UNL     1      -2.894   2.509   7.165  0.00  0.00    -0.255 N 
ATOM      2  C   UNL     1      -3.431   1.543   7.945  0.00  0.00    +0.267 A 
ATOM      3  O   UNL     1      -3.305   0.364   7.667  0.00  0.00    -0.267 OA
ATOM      4  C   UNL     1      -4.173   1.968   9.139  0.00  0.00    +0.065 A 
ATOM      5  C   UNL     1      -4.763   1.047  10.004  0.00  0.00    +0.017 A 
ATOM      6  C   UNL     1      -5.444   1.491  11.103  0.00  0.00    +0.021 A 
ATOM      7  C   UNL     1      -5.555   2.851  11.369  0.00  0.00    +0.043 A 
ATOM      8  C   UNL     1      -4.982   3.782  10.531  0.00  0.00    +0.048 A 
ATOM      9  C   UNL     1      -4.280   3.353   9.400  0.00  0.00    +0.080 A 
ATOM     10  N   UNL     1      -3.702   4.232   8.549  0.00  0.00    -0.223 NA
ATOM     11  C   UNL     1      -3.040   3.829   7.493  0.00  0.00    +0.177 A 
ATOM     12 CL   UNL     1      -6.427   3.383  12.773  0.00  0.00    -0.083 Cl
ENDROOT
BRANCH   1  16
ATOM     13  C   UNL     1      -0.762   1.453   3.743  0.00  0.00    -0.044 A 
ATOM     14  C   UNL     1      -0.106   1.576   4.954  0.00  0.00    +0.006 A 
ATOM     15  C   UNL     1      -0.809   1.931   6.089  0.00  0.00    +0.026 A 
ATOM     16  C   UNL     1      -2.177   2.154   6.014  0.00  0.00    +0.052 A 
ATOM     17  C   UNL     1      -2.834   2.025   4.798  0.00  0.00    +0.026 A 
ATOM     18  C   UNL     1      -2.124   1.674   3.666  0.00  0.00    +0.006 A 
BRANCH  13  19
ATOM     19  C   UNL     1       0.009   1.071   2.506  0.00  0.00    +0.016 C 
ATOM     20  C   UNL     1       0.668  -0.294   2.717  0.00  0.00    +0.012 C 
BRANCH  19  22
ATOM     21  C   UNL     1       1.788   1.800   0.910  0.00  0.00    +0.004 C 
ATOM     22  C   UNL     1       1.088   2.120   2.232  0.00  0.00    +0.004 C 
ENDBRANCH  19  22
ENDBRANCH  13  19
ENDBRANCH   1  16
BRANCH  11  23
ATOM     23  S   UNL     1      -2.311   5.042   6.443  0.00  0.00    -0.078 S 
BRANCH  23  24
ATOM     24  C   UNL     1      -2.798   6.549   7.319  0.00  0.00    +0.173 C 
BRANCH  24  25
ATOM     25  C   UNL     1      -2.269   7.752   6.581  0.00  0.00    +0.231 C 
ATOM     26  O   UNL     1      -1.627   7.605   5.564  0.00  0.00    -0.274 OA
ATOM     27  N   UNL     1      -2.511   8.991   7.053  0.00  0.00    -0.240 N 
ATOM     28  C   UNL     1      -2.038  10.067   6.393  0.00  0.00    +0.303 C 
ATOM     29  O   UNL     1      -1.394   9.919   5.373  0.00  0.00    -0.253 OA
ATOM     30  N   UNL     1      -2.279  11.306   6.864  0.00  0.00    -0.313 N 
ATOM     31  H   UNL     1      -3.094   9.124   7.976  0.00  0.00    +0.159 HD
ATOM     32  H   UNL     1      -1.893  12.184   6.326  0.00  0.00    +0.146 HD
ATOM     33  H   UNL     1      -2.862  11.440   7.787  0.00  0.00    +0.146 HD
ENDBRANCH  24  25
ENDBRANCH  23  24
ENDBRANCH  11  23
TORSDOF 6
