REMARK  Name = ZINC55027152
REMARK  8 active torsions:
REMARK  status: ('A' for Active; 'I' for Inactive)
REMARK    1  A    between atoms: C_1  and  C_2
REMARK    2  A    between atoms: C_2  and  C_3
REMARK    3  A    between atoms: C_2  and  C_4
REMARK    4  A    between atoms: C_2  and  N_5
REMARK    5  A    between atoms: C_6  and  C_8
REMARK    6  A    between atoms: C_8  and  N_9
REMARK    7  A    between atoms: C_12  and  N_15
REMARK    8  A    between atoms: N_18  and  C_19
REMARK                            x       y       z     vdW  Elec       q    Type
REMARK                         _______ _______ _______ _____ _____    ______ ____
ROOT
ATOM      1  N   UNL     1       4.055  -0.110  -2.677  0.00  0.00    +0.385 N 
ATOM      2  C   UNL     1       4.796  -0.685  -1.548  0.00  0.00    -0.076 C 
ATOM      3  C   UNL     1       6.208  -0.097  -1.507  0.00  0.00    +0.004 C 
ATOM      4  C   UNL     1       6.931  -0.427  -2.816  0.00  0.00    +0.071 C 
ATOM      5  C   UNL     1       6.112   0.113  -3.991  0.00  0.00    +0.004 C 
ATOM      6  C   UNL     1       4.703  -0.483  -3.940  0.00  0.00    -0.076 C 
ATOM      7  H   UNL     1       4.042   0.895  -2.591  0.00  0.00    -0.081 HD
ENDROOT
BRANCH   4   8
ATOM      8  N   UNL     1       8.256   0.198  -2.814  0.00  0.00    -0.297 N 
ATOM      9  C   UNL     1       9.247  -0.322  -3.565  0.00  0.00    +0.300 C 
ATOM     10  O   UNL     1       9.041  -1.310  -4.244  0.00  0.00    -0.253 OA
ATOM     11  N   UNL     1      10.466   0.253  -3.564  0.00  0.00    -0.297 N 
ATOM     12  H   UNL     1       8.421   0.985  -2.272  0.00  0.00    +0.151 HD
ATOM     13  H   UNL     1      10.630   1.040  -3.022  0.00  0.00    +0.151 HD
BRANCH  11  14
ATOM     14  C   UNL     1      11.543  -0.312  -4.381  0.00  0.00    +0.074 C 
ATOM     15  C   UNL     1      12.234  -1.437  -3.607  0.00  0.00    +0.022 C 
ATOM     16  C   UNL     1      13.359  -2.027  -4.459  0.00  0.00    +0.002 C 
ATOM     17  C   UNL     1      14.377  -0.933  -4.788  0.00  0.00    +0.000 C 
ATOM     18  C   UNL     1      13.687   0.191  -5.562  0.00  0.00    +0.002 C 
ATOM     19  C   UNL     1      12.562   0.781  -4.709  0.00  0.00    +0.022 C 
ENDBRANCH  11  14
ENDBRANCH   4   8
BRANCH   1  20
ATOM     20  C   UNL     1       2.677  -0.618  -2.667  0.00  0.00    +0.019 C 
BRANCH  20  22
ATOM     21  N   UNL     1       0.688  -0.476  -1.203  0.00  0.00    -0.312 N 
ATOM     22  C   UNL     1       1.972  -0.132  -1.427  0.00  0.00    +0.197 C 
ATOM     23  O   UNL     1       2.559   0.569  -0.630  0.00  0.00    -0.278 OA
ATOM     24  H   UNL     1       0.218  -1.037  -1.840  0.00  0.00    +0.149 HD
BRANCH  21  26
ATOM     25  C   UNL     1      -0.019   1.526   0.010  0.00  0.00    +0.031 C 
ATOM     26  C   UNL     1       0.002  -0.004   0.002  0.00  0.00    +0.026 C 
ATOM     27  C   UNL     1       0.742  -0.511   1.242  0.00  0.00    +0.031 C 
ATOM     28  C   UNL     1      -1.433  -0.534   0.013  0.00  0.00    +0.031 C 
ENDBRANCH  21  26
ENDBRANCH  20  22
ENDBRANCH   1  20
TORSDOF 5
