REMARK  Name = ZINC12132708
REMARK  7 active torsions:
REMARK  status: ('A' for Active; 'I' for Inactive)
REMARK    1  A    between atoms: C_1  and  C_2
REMARK    2  A    between atoms: C_2  and  C_4
REMARK    3  A    between atoms: C_2  and  N_26
REMARK    4  A    between atoms: C_13  and  C_14
REMARK    5  A    between atoms: C_13  and  N_57
REMARK    6  A    between atoms: C_17  and  C_19
REMARK    7  A    between atoms: C_27  and  C_29
REMARK                            x       y       z     vdW  Elec       q    Type
REMARK                         _______ _______ _______ _____ _____    ______ ____
ROOT
ATOM      1  C   UNL     1       5.558  -0.738  -4.468  0.00  0.00    +0.154 A 
ATOM      2  N   UNL     1       5.149  -1.966  -4.650  0.00  0.00    -0.132 NA
ATOM      3  N   UNL     1       4.202  -2.236  -3.821  0.00  0.00    -0.134 NA
ATOM      4  C   UNL     1       3.970  -1.198  -3.072  0.00  0.00    +0.132 A 
ATOM      5  N   UNL     1       4.812  -0.214  -3.472  0.00  0.00    -0.315 N 
ATOM      6  C   UNL     1       4.875   1.141  -2.924  0.00  0.00    +0.106 C 
ATOM      7  C   UNL     1       4.407   1.116  -1.465  0.00  0.00    -0.056 C 
ATOM      8  C   UNL     1       2.222   0.250  -2.094  0.00  0.00    -0.070 C 
ATOM      9  C   UNL     1       2.975  -1.076  -1.947  0.00  0.00    +0.058 C 
ATOM     10  N   UNL     1       2.946   1.347  -1.415  0.00  0.00    +0.386 N 
ATOM     11  H   UNL     1       2.735   2.230  -1.896  0.00  0.00    -0.081 HD
ENDROOT
BRANCH   1  13
ATOM     12  C   UNL     1       6.151   0.340  -6.621  0.00  0.00    +0.036 C 
ATOM     13  C   UNL     1       6.656  -0.038  -5.227  0.00  0.00    +0.138 C 
BRANCH  13  14
ATOM     14  N   UNL     1       7.810  -0.931  -5.351  0.00  0.00    -0.305 N 
ATOM     15  C   UNL     1       9.045  -0.418  -5.518  0.00  0.00    +0.217 C 
ATOM     16  O   UNL     1       9.201   0.784  -5.565  0.00  0.00    -0.275 OA
ATOM     17  H   UNL     1       7.686  -1.893  -5.314  0.00  0.00    +0.149 HD
BRANCH  15  18
ATOM     18  C   UNL     1      10.232  -1.337  -5.646  0.00  0.00    +0.075 C 
ATOM     19  C   UNL     1      11.245  -1.347  -4.498  0.00  0.00    +0.013 C 
ATOM     20  C   UNL     1      11.607  -0.693  -5.833  0.00  0.00    +0.013 C 
ENDBRANCH  15  18
ENDBRANCH  13  14
ENDBRANCH   1  13
BRANCH  10  21
ATOM     21  C   UNL     1       2.500   1.449  -0.014  0.00  0.00    -0.003 C 
BRANCH  21  22
ATOM     22  C   UNL     1       1.060   1.892   0.002  0.00  0.00    +0.089 A 
ATOM     23  C   UNL     1      -0.013   1.076   0.008  0.00  0.00    +0.043 A 
ATOM     24  C   UNL     1      -1.157   1.898   0.017  0.00  0.00    +0.050 A 
ATOM     25  C   UNL     1      -0.715   3.184   0.026  0.00  0.00    +0.135 A 
ATOM     26  O   UNL     1       0.632   3.164   0.013  0.00  0.00    -0.462 OA
BRANCH  25  27
ATOM     27  C   UNL     1      -1.565   4.393   0.041  0.00  0.00    +0.019 A 
ATOM     28  C   UNL     1      -0.980   5.661   0.042  0.00  0.00    +0.011 A 
ATOM     29  C   UNL     1      -1.778   6.786   0.056  0.00  0.00    +0.002 A 
ATOM     30  C   UNL     1      -3.156   6.660   0.067  0.00  0.00    +0.020 A 
ATOM     31  C   UNL     1      -3.743   5.406   0.065  0.00  0.00    +0.042 A 
ATOM     32  C   UNL     1      -2.955   4.272   0.047  0.00  0.00    +0.031 A 
ATOM     33 CL   UNL     1      -5.473   5.259   0.080  0.00  0.00    -0.084 Cl
ENDBRANCH  25  27
ENDBRANCH  21  22
ENDBRANCH  10  21
TORSDOF 6
