REMARK  Name = ZINC24298450
REMARK  11 active torsions:
REMARK  status: ('A' for Active; 'I' for Inactive)
REMARK    1  A    between atoms: C_1  and  C_2
REMARK    2  A    between atoms: C_2  and  C_4
REMARK    3  A    between atoms: C_2  and  O_28
REMARK    4  A    between atoms: N_6  and  N_7
REMARK    5  A    between atoms: C_8  and  C_10
REMARK    6  A    between atoms: C_10  and  C_11
REMARK    7  A    between atoms: C_11  and  C_12
REMARK    8  A    between atoms: C_12  and  C_13
REMARK    9  A    between atoms: C_13  and  C_14
REMARK   10  A    between atoms: C_14  and  N_15
REMARK   11  A    between atoms: O_28  and  C_29
REMARK                            x       y       z     vdW  Elec       q    Type
REMARK                         _______ _______ _______ _____ _____    ______ ____
ROOT
ATOM      1  N   UNL     1       2.505  -0.252  -2.807  0.00  0.00    -0.234 N 
ATOM      2  C   UNL     1       3.806   0.031  -3.017  0.00  0.00    +0.229 C 
ATOM      3  O   UNL     1       4.476   0.504  -2.124  0.00  0.00    -0.274 OA
ATOM      4  H   UNL     1       1.969  -0.629  -3.521  0.00  0.00    +0.173 HD
ENDROOT
BRANCH   1   7
ATOM      5  C   UNL     1       0.626  -0.282  -1.345  0.00  0.00    +0.270 C 
ATOM      6  O   UNL     1      -0.044  -0.755  -2.238  0.00  0.00    -0.270 OA
ATOM      7  N   UNL     1       1.927   0.000  -1.555  0.00  0.00    -0.231 N 
ATOM      8  H   UNL     1       2.463   0.378  -0.841  0.00  0.00    +0.173 HD
BRANCH   5  10
ATOM      9  C   UNL     1       0.004   1.495   0.269  0.00  0.00    +0.062 C 
ATOM     10  C   UNL     1       0.005  -0.012   0.001  0.00  0.00    +0.257 C 
BRANCH  10  11
ATOM     11  O   UNL     1      -1.339  -0.499   0.012  0.00  0.00    -0.480 OA
BRANCH  11  12
ATOM     12  C   UNL     1      -1.869  -0.818   1.222  0.00  0.00    +0.122 A 
ATOM     13  C   UNL     1      -3.124  -1.405   1.297  0.00  0.00    +0.048 A 
ATOM     14  C   UNL     1      -3.662  -1.729   2.527  0.00  0.00    +0.042 A 
ATOM     15  C   UNL     1      -2.951  -1.467   3.686  0.00  0.00    +0.124 A 
ATOM     16  C   UNL     1      -1.699  -0.880   3.613  0.00  0.00    +0.042 A 
ATOM     17  C   UNL     1      -1.155  -0.561   2.383  0.00  0.00    +0.048 A 
ATOM     18  F   UNL     1      -3.478  -1.784   4.888  0.00  0.00    -0.205 F 
ENDBRANCH  11  12
ENDBRANCH  10  11
ENDBRANCH   5  10
ENDBRANCH   1   7
BRANCH   2  19
ATOM     19  C   UNL     1       4.427  -0.239  -4.363  0.00  0.00    +0.097 C 
BRANCH  19  20
ATOM     20  C   UNL     1       5.902   0.168  -4.335  0.00  0.00    +0.009 C 
BRANCH  20  21
ATOM     21  C   UNL     1       6.533  -0.107  -5.702  0.00  0.00    +0.002 C 
BRANCH  21  22
ATOM     22  C   UNL     1       8.007   0.301  -5.674  0.00  0.00    +0.022 C 
BRANCH  22  23
ATOM     23  C   UNL     1       8.638   0.026  -7.040  0.00  0.00    +0.127 C 
BRANCH  23  24
ATOM     24  N   UNL     1      10.050   0.416  -7.014  0.00  0.00    -0.288 N 
ATOM     25  C   UNL     1      10.395   1.678  -7.350  0.00  0.00    +0.262 A 
ATOM     26  O   UNL     1       9.550   2.491  -7.672  0.00  0.00    -0.267 OA
ATOM     27  C   UNL     1      11.822   2.045  -7.315  0.00  0.00    +0.063 A 
ATOM     28  C   UNL     1      12.258   3.325  -7.646  0.00  0.00    +0.015 A 
ATOM     29  C   UNL     1      13.605   3.618  -7.597  0.00  0.00    +0.001 A 
ATOM     30  C   UNL     1      14.521   2.648  -7.221  0.00  0.00    +0.002 A 
ATOM     31  C   UNL     1      14.102   1.375  -6.890  0.00  0.00    +0.026 A 
ATOM     32  C   UNL     1      12.752   1.062  -6.933  0.00  0.00    +0.053 A 
ATOM     33  N   UNL     1      12.289  -0.205  -6.607  0.00  0.00    -0.335 N 
ATOM     34  H   UNL     1      12.919  -0.893  -6.342  0.00  0.00    +0.168 HD
ATOM     35  C   UNL     1      10.976  -0.486  -6.651  0.00  0.00    +0.161 A 
ATOM     36  S   UNL     1      10.461  -2.064  -6.231  0.00  0.00    -0.013 S 
ENDBRANCH  23  24
ENDBRANCH  22  23
ENDBRANCH  21  22
ENDBRANCH  20  21
ENDBRANCH  19  20
ENDBRANCH   2  19
TORSDOF 10
