REMARK  Name = ZINC63712200
REMARK  8 active torsions:
REMARK  status: ('A' for Active; 'I' for Inactive)
REMARK    1  A    between atoms: C_7  and  C_10
REMARK    2  A    between atoms: C_10  and  C_11
REMARK    3  A    between atoms: C_11  and  N_12
REMARK    4  A    between atoms: C_13  and  C_15
REMARK    5  A    between atoms: C_15  and  C_16
REMARK    6  A    between atoms: C_16  and  C_17
REMARK    7  A    between atoms: N_32  and  C_33
REMARK    8  A    between atoms: C_33  and  C_34
REMARK                            x       y       z     vdW  Elec       q    Type
REMARK                         _______ _______ _______ _____ _____    ______ ____
ROOT
ATOM      1  C   UNL     1      -2.941  -8.220  -4.058  0.00  0.00    +0.217 C 
ATOM      2  N   UNL     1      -4.281  -7.798  -3.629  0.00  0.00    -0.166 NA
ATOM      3  N   UNL     1      -5.144  -8.103  -4.457  0.00  0.00    -0.147 NA
ATOM      4  C   UNL     1      -4.572  -8.813  -5.596  0.00  0.00    +0.311 C 
ATOM      5  N   UNL     1      -3.104  -8.736  -5.410  0.00  0.00    -0.267 N 
ATOM      6  C   UNL     1      -2.209  -9.042  -6.410  0.00  0.00    +0.047 A 
ATOM      7  C   UNL     1      -0.950  -9.564  -6.204  0.00  0.00    +0.024 A 
ATOM      8  C   UNL     1      -0.142  -9.850  -7.290  0.00  0.00    +0.002 A 
ATOM      9  C   UNL     1      -0.591  -9.616  -8.580  0.00  0.00    +0.001 A 
ATOM     10  C   UNL     1      -1.846  -9.088  -8.805  0.00  0.00    +0.015 A 
ATOM     11  C   UNL     1      -2.667  -8.787  -7.724  0.00  0.00    +0.058 A 
ATOM     12  C   UNL     1      -4.001  -8.184  -7.890  0.00  0.00    +0.251 C 
ATOM     13  O   UNL     1      -4.302  -7.677  -8.954  0.00  0.00    -0.270 OA
ATOM     14  N   UNL     1      -4.917  -8.195  -6.875  0.00  0.00    -0.254 N 
ENDROOT
BRANCH   1  15
ATOM     15  C   UNL     1      -1.986  -7.025  -4.059  0.00  0.00    +0.058 C 
BRANCH  15  16
ATOM     16  C   UNL     1      -1.752  -6.557  -2.622  0.00  0.00    +0.099 C 
BRANCH  16  18
ATOM     17  N   UNL     1      -0.458  -4.798  -1.460  0.00  0.00    -0.315 N 
ATOM     18  C   UNL     1      -0.811  -5.380  -2.623  0.00  0.00    +0.213 C 
ATOM     19  O   UNL     1      -0.371  -4.957  -3.671  0.00  0.00    -0.276 OA
ATOM     20  H   UNL     1      -0.810  -5.136  -0.622  0.00  0.00    +0.149 HD
BRANCH  17  21
ATOM     21  C   UNL     1       0.457  -3.653  -1.462  0.00  0.00    +0.108 C 
BRANCH  21  22
ATOM     22  C   UNL     1       0.691  -3.186  -0.024  0.00  0.00    +0.052 C 
BRANCH  22  29
ATOM     23  C   UNL     1      -0.016   1.348   0.009  0.00  0.00    +0.001 A 
ATOM     24  C   UNL     1       1.166   2.101   0.002  0.00  0.00    +0.002 A 
ATOM     25  C   UNL     1       2.391   1.535  -0.013  0.00  0.00    +0.026 A 
ATOM     26  C   UNL     1       2.529   0.120  -0.022  0.00  0.00    +0.043 A 
ATOM     27  N   UNL     1       3.587  -0.654  -0.037  0.00  0.00    -0.380 N 
ATOM     28  C   UNL     1       3.143  -2.053  -0.041  0.00  0.00    +0.144 C 
ATOM     29  C   UNL     1       1.631  -2.008  -0.025  0.00  0.00    -0.040 C 
ATOM     30  C   UNL     1       1.295  -0.698  -0.014  0.00  0.00    -0.001 A 
ATOM     31  C   UNL     1       0.002  -0.004   0.002  0.00  0.00    +0.010 A 
ATOM     32  H   UNL     1       4.509  -0.353  -0.045  0.00  0.00    +0.160 HD
ENDBRANCH  22  29
ENDBRANCH  21  22
ENDBRANCH  17  21
ENDBRANCH  16  18
ENDBRANCH  15  16
ENDBRANCH   1  15
BRANCH  14  33
ATOM     33  C   UNL     1      -6.234  -7.578  -7.051  0.00  0.00    +0.147 C 
BRANCH  33  34
ATOM     34  C   UNL     1      -6.166  -6.126  -6.652  0.00  0.00    -0.030 A 
ATOM     35  C   UNL     1      -6.418  -5.757  -5.344  0.00  0.00    +0.006 A 
ATOM     36  C   UNL     1      -6.355  -4.426  -4.977  0.00  0.00    +0.020 A 
ATOM     37  C   UNL     1      -6.041  -3.463  -5.920  0.00  0.00    +0.041 A 
ATOM     38  C   UNL     1      -5.789  -3.833  -7.229  0.00  0.00    +0.020 A 
ATOM     39  C   UNL     1      -5.846  -5.165  -7.593  0.00  0.00    +0.006 A 
ATOM     40 CL   UNL     1      -5.963  -1.791  -5.460  0.00  0.00    -0.084 Cl
ENDBRANCH  33  34
ENDBRANCH  14  33
TORSDOF 8
