REMARK  Name = ZINC21659826
REMARK  8 active torsions:
REMARK  status: ('A' for Active; 'I' for Inactive)
REMARK    1  A    between atoms: C_1  and  C_2
REMARK    2  A    between atoms: C_5  and  C_7
REMARK    3  A    between atoms: C_7  and  C_9
REMARK    4  A    between atoms: C_7  and  N_24
REMARK    5  A    between atoms: C_9  and  N_10
REMARK    6  A    between atoms: C_11  and  C_13
REMARK    7  A    between atoms: C_14  and  C_23
REMARK    8  A    between atoms: C_27  and  C_30
REMARK                            x       y       z     vdW  Elec       q    Type
REMARK                         _______ _______ _______ _____ _____    ______ ____
ROOT
ATOM      1  C   UNL     1      -0.865   1.530  -3.626  0.00  0.00    +0.097 C 
ENDROOT
BRANCH   1   2
ATOM      2  N   UNL     1      -2.182   0.916  -3.440  0.00  0.00    -0.310 N 
ATOM      3  C   UNL     1      -3.092   0.959  -4.433  0.00  0.00    +0.280 C 
ATOM      4  O   UNL     1      -2.820   1.506  -5.484  0.00  0.00    -0.267 OA
ATOM      5  H   UNL     1      -2.428   0.421  -2.489  0.00  0.00    +0.149 HD
BRANCH   3   6
ATOM      6  C   UNL     1      -4.413   0.343  -4.245  0.00  0.00    +0.193 A 
ATOM      7  C   UNL     1      -5.407   0.330  -5.171  0.00  0.00    +0.008 A 
ATOM      8  C   UNL     1      -6.524  -0.387  -4.555  0.00  0.00    +0.025 A 
ATOM      9  C   UNL     1      -7.809  -0.735  -4.978  0.00  0.00    +0.027 A 
ATOM     10  C   UNL     1      -8.637  -1.421  -4.135  0.00  0.00    +0.019 A 
ATOM     11  C   UNL     1      -8.208  -1.775  -2.862  0.00  0.00    +0.019 A 
ATOM     12  C   UNL     1      -6.944  -1.442  -2.426  0.00  0.00    +0.048 A 
ATOM     13  C   UNL     1      -6.085  -0.743  -3.267  0.00  0.00    +0.136 A 
ATOM     14  O   UNL     1      -4.824  -0.289  -3.126  0.00  0.00    -0.450 OA
ATOM     15 BR   UNL     1     -10.378  -1.893  -4.704  0.00  0.00    -0.050 Br
ATOM     16  C   UNL     1      -5.367   0.928  -6.553  0.00  0.00    +0.048 C 
ENDBRANCH   3   6
ENDBRANCH   1   2
BRANCH   1  17
ATOM     17  C   UNL     1       0.012   1.238  -2.407  0.00  0.00    +0.016 C 
BRANCH  17  18
ATOM     18  N   UNL     1      -0.681   1.681  -1.189  0.00  0.00    +0.387 N 
ATOM     19  C   UNL     1      -1.124   3.075  -1.314  0.00  0.00    -0.078 C 
ATOM     20  C   UNL     1      -1.964   3.456  -0.092  0.00  0.00    -0.015 C 
ATOM     21  C   UNL     1      -1.123   3.279   1.175  0.00  0.00    -0.018 C 
ATOM     22  C   UNL     1      -0.634   1.830   1.256  0.00  0.00    -0.015 C 
ATOM     23  C   UNL     1       0.168   1.497  -0.005  0.00  0.00    -0.078 C 
ATOM     24  C   UNL     1      -1.976   3.600   2.404  0.00  0.00    +0.007 C 
ATOM     25  H   UNL     1      -1.576   1.055  -1.061  0.00  0.00    -0.081 HD
ENDBRANCH  17  18
BRANCH  17  30
ATOM     26  C   UNL     1       3.424   4.951  -2.308  0.00  0.00    +0.086 C 
ATOM     27  C   UNL     1       2.802   3.591  -2.496  0.00  0.00    +0.102 A 
ATOM     28  C   UNL     1       3.441   2.486  -2.922  0.00  0.00    +0.044 A 
ATOM     29  C   UNL     1       2.485   1.444  -2.945  0.00  0.00    +0.043 A 
ATOM     30  C   UNL     1       1.319   1.976  -2.538  0.00  0.00    +0.093 A 
ATOM     31  O   UNL     1       1.517   3.276  -2.265  0.00  0.00    -0.466 OA
ENDBRANCH  17  30
ENDBRANCH   1  17
TORSDOF 5
