REMARK  Name = ZINC25673413
REMARK  4 active torsions:
REMARK  status: ('A' for Active; 'I' for Inactive)
REMARK    1  A    between atoms: C_1  and  C_2
REMARK    2  A    between atoms: C_2  and  C_4
REMARK    3  A    between atoms: C_2  and  N_13
REMARK    4  A    between atoms: C_14  and  C_16
REMARK                            x       y       z     vdW  Elec       q    Type
REMARK                         _______ _______ _______ _____ _____    ______ ____
ROOT
ATOM      1  N   UNL     1      -1.770   8.579   0.062  0.00  0.00    -0.304 N 
ATOM      2  C   UNL     1      -2.447   7.413   0.063  0.00  0.00    +0.261 C 
ATOM      3  O   UNL     1      -3.664   7.417   0.074  0.00  0.00    -0.269 OA
ATOM      4  H   UNL     1      -0.670   8.575   0.052  0.00  0.00    +0.150 HD
ENDROOT
BRANCH   2   5
ATOM      5  C   UNL     1      -1.716   6.138   0.050  0.00  0.00    +0.103 A 
ATOM      6  C   UNL     1      -2.285   4.904   0.049  0.00  0.00    +0.041 A 
ATOM      7  C   UNL     1      -1.240   3.948   0.034  0.00  0.00    +0.001 A 
ATOM      8  C   UNL     1      -1.218   2.547   0.022  0.00  0.00    +0.025 A 
ATOM      9  C   UNL     1      -0.024   1.887   0.012  0.00  0.00    +0.019 A 
ATOM     10  C   UNL     1       1.174   2.592   0.005  0.00  0.00    +0.017 A 
ATOM     11  C   UNL     1       1.178   3.969   0.012  0.00  0.00    +0.027 A 
ATOM     12  C   UNL     1      -0.028   4.664   0.026  0.00  0.00    +0.047 A 
ATOM     13  N   UNL     1      -0.341   6.003   0.036  0.00  0.00    -0.351 N 
ATOM     14  H   UNL     1       0.299   6.897   0.035  0.00  0.00    +0.166 HD
ATOM     15 BR   UNL     1       0.002  -0.004   0.002  0.00  0.00    -0.050 Br
ENDBRANCH   2   5
BRANCH   1  17
ATOM     16  C   UNL     1      -2.875  10.237  -1.356  0.00  0.00    +0.033 C 
ATOM     17  C   UNL     1      -2.499   9.850   0.076  0.00  0.00    +0.101 C 
BRANCH  17  18
ATOM     18  C   UNL     1      -1.626  10.923   0.673  0.00  0.00    -0.024 A 
ATOM     19  C   UNL     1      -0.279  10.966   0.367  0.00  0.00    +0.009 A 
ATOM     20  C   UNL     1       0.526  11.949   0.913  0.00  0.00    +0.050 A 
ATOM     21  C   UNL     1      -0.017  12.893   1.769  0.00  0.00    +0.166 A 
ATOM     22  C   UNL     1      -1.374  12.850   2.077  0.00  0.00    +0.167 A 
ATOM     23  C   UNL     1      -2.176  11.865   1.522  0.00  0.00    +0.055 A 
ATOM     24  O   UNL     1      -1.661  13.876   2.930  0.00  0.00    -0.453 OA
ATOM     25  C   UNL     1      -0.553  14.790   2.819  0.00  0.00    +0.466 C 
ATOM     26  O   UNL     1       0.547  13.947   2.429  0.00  0.00    -0.453 OA
ENDBRANCH  17  18
ENDBRANCH   1  17
TORSDOF 3
