REMARK  Name = ZINC43153540
REMARK  4 active torsions:
REMARK  status: ('A' for Active; 'I' for Inactive)
REMARK    1  A    between atoms: N_7  and  C_17
REMARK    2  A    between atoms: C_10  and  C_15
REMARK    3  A    between atoms: C_15  and  N_16
REMARK    4  A    between atoms: C_17  and  C_18
REMARK                            x       y       z     vdW  Elec       q    Type
REMARK                         _______ _______ _______ _____ _____    ______ ____
ROOT
ATOM      1  C   UNL     1       0.411  -3.631  -1.102  0.00  0.00    +0.060 A 
ATOM      2  C   UNL     1       1.139  -4.712  -1.595  0.00  0.00    +0.025 A 
ATOM      3  C   UNL     1       0.838  -5.234  -2.820  0.00  0.00    +0.012 A 
ATOM      4  C   UNL     1      -0.214  -4.650  -3.551  0.00  0.00    +0.001 A 
ATOM      5  C   UNL     1      -0.583  -5.132  -4.816  0.00  0.00    +0.014 A 
ATOM      6  C   UNL     1      -1.610  -4.545  -5.495  0.00  0.00    -0.042 A 
ATOM      7  C   UNL     1      -2.300  -3.463  -4.946  0.00  0.00    -0.041 A 
ATOM      8  C   UNL     1      -1.964  -2.971  -3.719  0.00  0.00    +0.032 A 
ATOM      9  C   UNL     1      -0.913  -3.553  -2.991  0.00  0.00    +0.072 A 
ATOM     10  N   UNL     1      -0.571  -3.093  -1.783  0.00  0.00    -0.250 NA
ATOM     11  C   UNL     1      -3.385  -3.012  -5.907  0.00  0.00    +0.056 C 
ATOM     12  C   UNL     1      -3.020  -3.655  -7.248  0.00  0.00    +0.083 C 
ATOM     13  C   UNL     1      -2.191  -4.881  -6.856  0.00  0.00    +0.056 C 
ATOM     14  C   UNL     1      -4.237  -4.030  -8.040  0.00  0.00    +0.008 A 
ATOM     15  C   UNL     1      -5.322  -4.845  -7.800  0.00  0.00    +0.009 A 
ATOM     16  C   UNL     1      -6.291  -4.963  -8.788  0.00  0.00    +0.020 A 
ATOM     17  C   UNL     1      -6.131  -4.262  -9.967  0.00  0.00    +0.113 A 
ATOM     18  N   UNL     1      -5.082  -3.491 -10.166  0.00  0.00    -0.240 NA
ATOM     19  C   UNL     1      -4.129  -3.347  -9.250  0.00  0.00    +0.129 A 
ATOM     20  N   UNL     1      -2.960  -2.591  -9.271  0.00  0.00    -0.269 N 
ATOM     21  C   UNL     1      -2.251  -2.714  -8.132  0.00  0.00    +0.230 C 
ATOM     22  O   UNL     1      -1.198  -2.172  -7.871  0.00  0.00    -0.274 OA
ATOM     23  H   UNL     1      -2.688  -2.038 -10.020  0.00  0.00    +0.156 HD
ENDROOT
BRANCH   1  24
ATOM     24  C   UNL     1       0.758  -3.070   0.253  0.00  0.00    +0.169 C 
BRANCH  24  31
ATOM     25  C   UNL     1      -0.017   1.387   0.010  0.00  0.00    +0.004 A 
ATOM     26  C   UNL     1       1.131   2.167   0.003  0.00  0.00    +0.024 A 
ATOM     27  C   UNL     1       2.372   1.563  -0.054  0.00  0.00    +0.039 A 
ATOM     28  C   UNL     1       2.368   0.184  -0.171  0.00  0.00    +0.009 A 
ATOM     29  C   UNL     1       1.250  -0.625  -0.057  0.00  0.00    +0.043 A 
ATOM     30  C   UNL     1       0.002  -0.004   0.002  0.00  0.00    +0.024 A 
ATOM     31  N   UNL     1       1.669  -1.934   0.092  0.00  0.00    -0.265 N 
ATOM     32  C   UNL     1       3.026  -2.046   0.072  0.00  0.00    +0.229 C 
ATOM     33  O   UNL     1       3.673  -3.036   0.341  0.00  0.00    -0.274 OA
ATOM     34  C   UNL     1       3.569  -0.706  -0.347  0.00  0.00    +0.069 C 
ATOM     35  C   UNL     1       4.642  -0.115   0.564  0.00  0.00    +0.115 C 
ATOM     36  C   UNL     1       4.702   1.379   0.346  0.00  0.00    +0.218 C 
ATOM     37  O   UNL     1       5.781   1.924   0.448  0.00  0.00    -0.275 OA
ATOM     38  N   UNL     1       3.631   2.149   0.044  0.00  0.00    -0.285 N 
ATOM     39  H   UNL     1       3.740   3.101  -0.103  0.00  0.00    +0.155 HD
BRANCH  34  40
ATOM     40  C   UNL     1       4.027  -0.734  -1.806  0.00  0.00    -0.065 C 
BRANCH  40  41
ATOM     41  N   UNL     1       5.198  -1.611  -1.935  0.00  0.00    +0.379 N 
ATOM     42  H   UNL     1       5.946  -1.262  -1.354  0.00  0.00    -0.090 HD
ATOM     43  H   UNL     1       4.953  -2.545  -1.642  0.00  0.00    -0.090 HD
ATOM     44  H   UNL     1       5.501  -1.630  -2.897  0.00  0.00    -0.090 HD
ENDBRANCH  40  41
ENDBRANCH  34  40
ENDBRANCH  24  31
ENDBRANCH   1  24
TORSDOF 4
