REMARK  Name = ZINC52813660
REMARK  5 active torsions:
REMARK  status: ('A' for Active; 'I' for Inactive)
REMARK    1  A    between atoms: C_1  and  C_2
REMARK    2  A    between atoms: C_4  and  N_18
REMARK    3  A    between atoms: C_7  and  O_8
REMARK    4  A    between atoms: O_8  and  C_9
REMARK    5  A    between atoms: C_15  and  C_17
REMARK                            x       y       z     vdW  Elec       q    Type
REMARK                         _______ _______ _______ _____ _____    ______ ____
ROOT
ATOM      1  C   UNL     1      -0.018   1.503   0.010  0.00  0.00    +0.049 C 
ATOM      2  C   UNL     1       0.002  -0.004   0.002  0.00  0.00    +0.013 A 
ATOM      3  C   UNL     1       0.006  -0.698  -1.195  0.00  0.00    +0.032 A 
ATOM      4  C   UNL     1       0.025  -2.091  -1.155  0.00  0.00    +0.043 A 
ATOM      5  C   UNL     1       0.039  -2.730   0.076  0.00  0.00    +0.137 A 
ATOM      6  N   UNL     1       0.035  -2.035   1.197  0.00  0.00    -0.219 NA
ATOM      7  C   UNL     1       0.023  -0.713   1.196  0.00  0.00    +0.218 A 
ENDROOT
BRANCH   4   8
ATOM      8  N   UNL     1       0.029  -2.834  -2.341  0.00  0.00    -0.357 N 
ATOM      9  H   UNL     1       0.019  -2.381  -3.198  0.00  0.00    +0.142 HD
ATOM     10  H   UNL     1       0.042  -3.804  -2.305  0.00  0.00    +0.142 HD
ENDBRANCH   4   8
BRANCH   7  11
ATOM     11  O   UNL     1       0.026  -0.041   2.375  0.00  0.00    -0.473 OA
BRANCH  11  12
ATOM     12  C   UNL     1       0.048  -0.826   3.569  0.00  0.00    +0.178 C 
ATOM     13  C   UNL     1      -1.387  -1.125   4.009  0.00  0.00    +0.045 C 
ATOM     14  C   UNL     1      -2.123   0.190   4.276  0.00  0.00    +0.004 C 
ATOM     15  C   UNL     1      -1.401   0.963   5.382  0.00  0.00    +0.000 C 
ATOM     16  C   UNL     1       0.033   1.262   4.942  0.00  0.00    +0.007 C 
ATOM     17  C   UNL     1       0.769  -0.052   4.675  0.00  0.00    +0.027 C 
ATOM     18  C   UNL     1       2.204   0.247   4.234  0.00  0.00    +0.011 C 
ENDBRANCH  11  12
ENDBRANCH   7  11
TORSDOF 3
