REMARK  Name = ZINC45023603
REMARK  6 active torsions:
REMARK  status: ('A' for Active; 'I' for Inactive)
REMARK    1  A    between atoms: C_1  and  N_2
REMARK    2  A    between atoms: N_2  and  C_3
REMARK    3  A    between atoms: N_2  and  S_18
REMARK    4  A    between atoms: C_6  and  O_9
REMARK    5  A    between atoms: O_9  and  C_10
REMARK    6  A    between atoms: S_18  and  C_21
REMARK                            x       y       z     vdW  Elec       q    Type
REMARK                         _______ _______ _______ _____ _____    ______ ____
ROOT
ATOM      1  C   UNL     1      -0.048  -0.541   1.276  0.00  0.00    +0.051 A 
ATOM      2  C   UNL     1       0.155  -1.900   1.480  0.00  0.00    +0.028 A 
ATOM      3  C   UNL     1       0.071  -2.427   2.754  0.00  0.00    +0.048 A 
ATOM      4  C   UNL     1      -0.216  -1.599   3.830  0.00  0.00    +0.130 A 
ATOM      5  C   UNL     1      -0.419  -0.242   3.627  0.00  0.00    +0.048 A 
ATOM      6  C   UNL     1      -0.329   0.287   2.355  0.00  0.00    +0.028 A 
ENDROOT
BRANCH   1   8
ATOM      7  C   UNL     1       1.145   0.887  -0.364  0.00  0.00    +0.157 C 
ATOM      8  N   UNL     1       0.038  -0.007  -0.014  0.00  0.00    -0.206 N 
BRANCH   8   9
ATOM      9  S   UNL     1      -1.112  -0.384  -1.144  0.00  0.00    +0.074 S 
ATOM     10  O   UNL     1      -2.230  -0.894  -0.431  0.00  0.00    -0.150 OA
ATOM     11  O   UNL     1      -1.209   0.736  -2.014  0.00  0.00    -0.150 OA
BRANCH   9  12
ATOM     12  C   UNL     1      -0.478  -1.716  -2.107  0.00  0.00    +0.109 A 
ATOM     13  C   UNL     1       0.382  -1.460  -3.159  0.00  0.00    +0.031 A 
ATOM     14  C   UNL     1       0.880  -2.504  -3.915  0.00  0.00    +0.040 A 
ATOM     15  C   UNL     1       0.517  -3.807  -3.619  0.00  0.00    +0.124 A 
ATOM     16  C   UNL     1      -0.345  -4.062  -2.566  0.00  0.00    +0.040 A 
ATOM     17  C   UNL     1      -0.837  -3.017  -1.808  0.00  0.00    +0.031 A 
ATOM     18  F   UNL     1       1.003  -4.828  -4.358  0.00  0.00    -0.205 F 
ENDBRANCH   9  12
ENDBRANCH   8   9
ENDBRANCH   1   8
BRANCH   4  19
ATOM     19  O   UNL     1      -0.299  -2.119   5.084  0.00  0.00    -0.438 OA
BRANCH  19  20
ATOM     20  C   UNL     1       0.856  -2.412   5.729  0.00  0.00    +0.226 A 
ATOM     21  C   UNL     1       0.834  -2.858   7.049  0.00  0.00    +0.107 A 
ATOM     22  C   UNL     1       2.038  -3.146   7.668  0.00  0.00    +0.138 A 
ATOM     23  N   UNL     1       3.167  -2.990   6.992  0.00  0.00    -0.203 NA
ATOM     24  C   UNL     1       3.156  -2.563   5.738  0.00  0.00    +0.217 A 
ATOM     25  N   UNL     1       2.024  -2.283   5.110  0.00  0.00    -0.179 NA
ATOM     26  N   UNL     1       4.356  -2.412   5.066  0.00  0.00    -0.327 N 
ATOM     27 CL   UNL     1       2.068  -3.705   9.312  0.00  0.00    -0.062 Cl
ATOM     28  H   UNL     1       5.192  -2.617   5.513  0.00  0.00    +0.145 HD
ATOM     29  H   UNL     1       4.361  -2.100   4.147  0.00  0.00    +0.145 HD
ENDBRANCH  19  20
ENDBRANCH   4  19
TORSDOF 5
