REMARK  Name = ZINC35379148
REMARK  7 active torsions:
REMARK  status: ('A' for Active; 'I' for Inactive)
REMARK    1  A    between atoms: C_1  and  C_2
REMARK    2  A    between atoms: C_7  and  S_8
REMARK    3  A    between atoms: S_8  and  N_11
REMARK    4  A    between atoms: C_15  and  C_18
REMARK    5  A    between atoms: C_23  and  C_26
REMARK    6  A    between atoms: C_26  and  C_27
REMARK    7  A    between atoms: C_34  and  C_39
REMARK                            x       y       z     vdW  Elec       q    Type
REMARK                         _______ _______ _______ _____ _____    ______ ____
ROOT
ATOM      1  N   UNL     1       1.607   1.138   2.613  0.00  0.00    -0.176 NA
ATOM      2  C   UNL     1       2.929   0.572   2.916  0.00  0.00    +0.109 C 
ATOM      3  C   UNL     1       3.856   0.819   1.721  0.00  0.00    +0.018 C 
ATOM      4  C   UNL     1       3.872   2.314   1.394  0.00  0.00    +0.015 C 
ATOM      5  C   UNL     1       2.462   2.770   1.013  0.00  0.00    +0.091 C 
ATOM      6  C   UNL     1       1.520   2.543   2.193  0.00  0.00    +0.122 C 
ENDROOT
BRANCH   5   7
ATOM      7  C   UNL     1       2.486   4.234   0.658  0.00  0.00    +0.220 C 
ATOM      8  O   UNL     1       2.200   5.065   1.494  0.00  0.00    -0.275 OA
ATOM      9  N   UNL     1       2.824   4.621  -0.588  0.00  0.00    -0.301 N 
ATOM     10  C   UNL     1       3.074   3.625  -1.638  0.00  0.00    +0.108 C 
ATOM     11  C   UNL     1       4.451   3.893  -2.254  0.00  0.00    +0.023 C 
ATOM     12  C   UNL     1       4.516   5.345  -2.736  0.00  0.00    -0.004 C 
ATOM     13  C   UNL     1       4.328   6.287  -1.545  0.00  0.00    +0.023 C 
ATOM     14  C   UNL     1       2.944   6.047  -0.922  0.00  0.00    +0.108 C 
BRANCH  12  15
ATOM     15  C   UNL     1       5.878   5.606  -3.382  0.00  0.00    +0.038 C 
BRANCH  15  16
ATOM     16  C   UNL     1       5.898   6.996  -3.965  0.00  0.00    -0.047 A 
ATOM     17  C   UNL     1       5.491   7.204  -5.270  0.00  0.00    +0.003 A 
ATOM     18  C   UNL     1       5.510   8.479  -5.804  0.00  0.00    +0.000 A 
ATOM     19  C   UNL     1       5.935   9.545  -5.034  0.00  0.00    +0.000 A 
ATOM     20  C   UNL     1       6.341   9.337  -3.730  0.00  0.00    +0.000 A 
ATOM     21  C   UNL     1       6.319   8.063  -3.194  0.00  0.00    +0.003 A 
ENDBRANCH  15  16
ENDBRANCH  12  15
ENDBRANCH   5   7
BRANCH   1  22
ATOM     22  S   UNL     1       0.242   0.208   2.736  0.00  0.00    +0.061 S 
ATOM     23  O   UNL     1      -0.854   1.107   2.839  0.00  0.00    -0.153 OA
ATOM     24  O   UNL     1       0.512  -0.780   3.721  0.00  0.00    -0.153 OA
BRANCH  22  31
ATOM     25  C   UNL     1      -0.490   1.548   0.132  0.00  0.00    +0.046 C 
ATOM     26  C   UNL     1      -0.284   0.057   0.064  0.00  0.00    -0.022 A 
ATOM     27  C   UNL     1      -0.429  -0.605  -1.142  0.00  0.00    +0.032 A 
ATOM     28  C   UNL     1      -0.240  -1.975  -1.202  0.00  0.00    +0.076 A 
ATOM     29  C   UNL     1       0.094  -2.684  -0.049  0.00  0.00    +0.145 A 
ATOM     30  C   UNL     1       0.238  -2.015   1.154  0.00  0.00    +0.076 A 
ATOM     31  C   UNL     1       0.053  -0.645   1.206  0.00  0.00    +0.112 A 
ATOM     32  O   UNL     1       0.275  -4.030  -0.119  0.00  0.00    -0.478 OA
ATOM     33  C   UNL     1      -0.526  -4.737  -1.070  0.00  0.00    +0.256 C 
ATOM     34  C   UNL     1      -0.504  -4.011  -2.391  0.00  0.00    +0.258 C 
ATOM     35  O   UNL     1      -0.596  -4.632  -3.429  0.00  0.00    -0.271 OA
ATOM     36  N   UNL     1      -0.381  -2.666  -2.414  0.00  0.00    -0.280 N 
ATOM     37  C   UNL     1       0.032  -6.149  -1.256  0.00  0.00    +0.062 C 
ATOM     38  H   UNL     1      -0.390  -2.185  -3.257  0.00  0.00    +0.155 HD
ENDBRANCH  22  31
ENDBRANCH   1  22
TORSDOF 5
