REMARK  Name = ZINC10216033
REMARK  8 active torsions:
REMARK  status: ('A' for Active; 'I' for Inactive)
REMARK    1  A    between atoms: C_4  and  O_31
REMARK    2  A    between atoms: C_5  and  N_7
REMARK    3  A    between atoms: C_8  and  C_10
REMARK    4  A    between atoms: C_15  and  C_16
REMARK    5  A    between atoms: C_15  and  N_63
REMARK    6  A    between atoms: N_18  and  C_19
REMARK    7  A    between atoms: N_18  and  C_25
REMARK    8  A    between atoms: C_19  and  C_20
REMARK                            x       y       z     vdW  Elec       q    Type
REMARK                         _______ _______ _______ _____ _____    ______ ____
ROOT
ATOM      1  C   UNL     1      -2.825   1.995  -0.246  0.00  0.00    +0.072 C 
ATOM      2  C   UNL     1      -2.687   0.750  -1.127  0.00  0.00    -0.006 C 
ATOM      3  C   UNL     1      -3.797  -0.242  -0.777  0.00  0.00    -0.077 C 
ATOM      4  C   UNL     1      -5.280   1.559  -0.121  0.00  0.00    -0.077 C 
ATOM      5  C   UNL     1      -4.214   2.606  -0.453  0.00  0.00    -0.006 C 
ATOM      6  N   UNL     1      -5.108   0.398  -1.020  0.00  0.00    +0.385 N 
ATOM      7  H   UNL     1      -5.145   0.722  -1.993  0.00  0.00    -0.081 HD
ENDROOT
BRANCH   1   9
ATOM      8  N   UNL     1      -0.465   2.682  -0.527  0.00  0.00    -0.282 N 
ATOM      9  C   UNL     1      -1.770   3.002  -0.628  0.00  0.00    +0.220 C 
ATOM     10  O   UNL     1      -2.096   4.100  -1.027  0.00  0.00    -0.275 OA
ATOM     11  H   UNL     1      -0.204   1.772  -0.316  0.00  0.00    +0.155 HD
BRANCH   8  16
ATOM     12  C   UNL     1       1.157   5.971  -0.822  0.00  0.00    +0.002 A 
ATOM     13  C   UNL     1       2.451   5.601  -1.140  0.00  0.00    +0.004 A 
ATOM     14  C   UNL     1       2.783   4.264  -1.256  0.00  0.00    +0.047 A 
ATOM     15  C   UNL     1       1.820   3.290  -1.049  0.00  0.00    +0.138 A 
ATOM     16  C   UNL     1       0.515   3.662  -0.733  0.00  0.00    +0.075 A 
ATOM     17  C   UNL     1       0.189   5.005  -0.618  0.00  0.00    +0.027 A 
BRANCH  15  18
ATOM     18  O   UNL     1       2.146   1.974  -1.157  0.00  0.00    -0.505 OA
ATOM     19  H   UNL     1       2.038   1.615  -2.048  0.00  0.00    +0.292 HD
ENDBRANCH  15  18
ENDBRANCH   8  16
ENDBRANCH   1   9
BRANCH   6  20
ATOM     20  C   UNL     1      -6.195  -0.578  -0.797  0.00  0.00    +0.019 C 
BRANCH  20  21
ATOM     21  C   UNL     1      -6.163  -1.599  -1.905  0.00  0.00    +0.203 C 
ATOM     22  O   UNL     1      -5.387  -1.469  -2.828  0.00  0.00    -0.277 OA
ATOM     23  N   UNL     1      -6.997  -2.658  -1.869  0.00  0.00    -0.270 N 
BRANCH  23  24
ATOM     24  C   UNL     1      -7.975  -2.741  -0.882  0.00  0.00    +0.010 C 
ATOM     25  C   UNL     1      -8.952  -1.878  -0.914  0.00  0.00    -0.008 C 
ATOM     26  C   UNL     1     -10.070  -1.840   0.087  0.00  0.00    +0.029 C 
ATOM     27  C   UNL     1     -10.136  -3.163   0.853  0.00  0.00    +0.004 C 
ATOM     28  C   UNL     1      -8.729  -3.502   1.360  0.00  0.00    +0.006 C 
ATOM     29  C   UNL     1      -7.845  -3.822   0.150  0.00  0.00    +0.051 C 
ENDBRANCH  23  24
BRANCH  23  30
ATOM     30  C   UNL     1      -6.873  -3.721  -2.870  0.00  0.00    +0.187 C 
BRANCH  30  31
ATOM     31  C   UNL     1      -5.858  -4.733  -2.405  0.00  0.00    +0.122 A 
ATOM     32  C   UNL     1      -6.117  -5.824  -1.662  0.00  0.00    +0.046 A 
ATOM     33  C   UNL     1      -4.884  -6.485  -1.460  0.00  0.00    +0.041 A 
ATOM     34  C   UNL     1      -3.945  -5.758  -2.092  0.00  0.00    +0.195 A 
ATOM     35  O   UNL     1      -4.541  -4.702  -2.667  0.00  0.00    -0.466 OA
ENDBRANCH  30  31
ENDBRANCH  23  30
ENDBRANCH  20  21
ENDBRANCH   6  20
TORSDOF 8
