REMARK  Name = ZINC13033165
REMARK  10 active torsions:
REMARK  status: ('A' for Active; 'I' for Inactive)
REMARK    1  A    between atoms: C_1  and  C_2
REMARK    2  A    between atoms: C_7  and  C_15
REMARK    3  A    between atoms: C_13  and  C_14
REMARK    4  A    between atoms: C_15  and  N_69
REMARK    5  A    between atoms: C_16  and  C_17
REMARK    6  A    between atoms: C_16  and  N_69
REMARK    7  A    between atoms: N_21  and  C_22
REMARK    8  A    between atoms: C_22  and  C_23
REMARK    9  A    between atoms: C_23  and  C_24
REMARK   10  A    between atoms: C_30  and  N_69
REMARK                            x       y       z     vdW  Elec       q    Type
REMARK                         _______ _______ _______ _____ _____    ______ ____
ROOT
ATOM      1  N   UNL     1       0.153   1.441  -2.966  0.00  0.00    +0.389 N 
ATOM      2  H   UNL     1       0.105   0.421  -2.860  0.00  0.00    -0.080 HD
ENDROOT
BRANCH   1   3
ATOM      3  C   UNL     1      -0.481   2.077  -1.792  0.00  0.00    -0.068 C 
ATOM      4  C   UNL     1       0.156   1.512  -0.521  0.00  0.00    -0.015 C 
ATOM      5  C   UNL     1      -0.506   2.145   0.705  0.00  0.00    -0.002 C 
ATOM      6  C   UNL     1      -0.307   3.661   0.666  0.00  0.00    -0.000 C 
ATOM      7  C   UNL     1      -0.944   4.226  -0.605  0.00  0.00    -0.002 C 
ATOM      8  C   UNL     1      -0.282   3.594  -1.831  0.00  0.00    -0.015 C 
ENDBRANCH   1   3
BRANCH   1   9
ATOM      9  C   UNL     1      -0.564   1.829  -4.199  0.00  0.00    -0.037 C 
BRANCH   9  16
ATOM     10  C   UNL     1      -8.154  -0.576  -3.715  0.00  0.00    +0.044 C 
ATOM     11  C   UNL     1      -6.798   0.081  -3.721  0.00  0.00    -0.046 A 
ATOM     12  C   UNL     1      -6.667   1.391  -3.278  0.00  0.00    +0.004 A 
ATOM     13  C   UNL     1      -5.447   2.005  -3.274  0.00  0.00    +0.010 A 
ATOM     14  C   UNL     1      -4.319   1.308  -3.721  0.00  0.00    -0.001 A 
ATOM     15  C   UNL     1      -2.996   1.936  -3.731  0.00  0.00    +0.017 A 
ATOM     16  C   UNL     1      -1.939   1.213  -4.176  0.00  0.00    +0.001 A 
ATOM     17  C   UNL     1      -2.123  -0.114  -4.622  0.00  0.00    +0.251 A 
ATOM     18  O   UNL     1      -1.160  -0.745  -5.022  0.00  0.00    -0.268 OA
ATOM     19  N   UNL     1      -3.333  -0.700  -4.611  0.00  0.00    -0.322 N 
ATOM     20  H   UNL     1      -3.423  -1.615  -4.921  0.00  0.00    +0.169 HD
ATOM     21  C   UNL     1      -4.448  -0.019  -4.171  0.00  0.00    +0.052 A 
ATOM     22  C   UNL     1      -5.700  -0.624  -4.165  0.00  0.00    -0.024 A 
ATOM     23  C   UNL     1      -5.857  -2.045  -4.642  0.00  0.00    +0.046 C 
ENDBRANCH   9  16
ENDBRANCH   1   9
BRANCH   1  24
ATOM     24  C   UNL     1       1.571   1.849  -3.058  0.00  0.00    +0.001 C 
BRANCH  24  25
ATOM     25  C   UNL     1       2.256   0.994  -4.093  0.00  0.00    +0.135 A 
ATOM     26  N   UNL     1       2.399   1.270  -5.366  0.00  0.00    -0.115 NA
ATOM     27  N   UNL     1       3.038   0.296  -5.915  0.00  0.00    -0.023 NA
ATOM     28  N   UNL     1       3.306  -0.595  -5.026  0.00  0.00    -0.044 NA
ATOM     29  N   UNL     1       2.845  -0.199  -3.888  0.00  0.00    -0.231 N 
BRANCH  29  30
ATOM     30  C   UNL     1       2.941  -0.914  -2.613  0.00  0.00    +0.152 C 
BRANCH  30  31
ATOM     31  C   UNL     1       1.767  -1.886  -2.483  0.00  0.00    +0.058 C 
BRANCH  31  32
ATOM     32  C   UNL     1       1.942  -2.723  -1.242  0.00  0.00    -0.046 A 
ATOM     33  C   UNL     1       2.715  -3.868  -1.284  0.00  0.00    +0.004 A 
ATOM     34  C   UNL     1       2.880  -4.633  -0.144  0.00  0.00    +0.000 A 
ATOM     35  C   UNL     1       2.263  -4.258   1.035  0.00  0.00    +0.000 A 
ATOM     36  C   UNL     1       1.485  -3.116   1.075  0.00  0.00    +0.000 A 
ATOM     37  C   UNL     1       1.325  -2.348  -0.063  0.00  0.00    +0.004 A 
ENDBRANCH  31  32
ENDBRANCH  30  31
ENDBRANCH  29  30
ENDBRANCH  24  25
ENDBRANCH   1  24
TORSDOF 8
