REMARK  Name = ZINC39654651
REMARK  9 active torsions:
REMARK  status: ('A' for Active; 'I' for Inactive)
REMARK    1  A    between atoms: C_1  and  C_2
REMARK    2  A    between atoms: C_2  and  C_3
REMARK    3  A    between atoms: C_6  and  C_9
REMARK    4  A    between atoms: C_9  and  C_10
REMARK    5  A    between atoms: C_10  and  N_11
REMARK    6  A    between atoms: C_12  and  C_14
REMARK    7  A    between atoms: C_25  and  C_27
REMARK    8  A    between atoms: C_29  and  C_33
REMARK    9  A    between atoms: N_30  and  C_32
REMARK                            x       y       z     vdW  Elec       q    Type
REMARK                         _______ _______ _______ _____ _____    ______ ____
ROOT
ATOM      1  C   UNL     1       5.056  -0.741  -8.911  0.00  0.00    +0.100 C 
ATOM      2  C   UNL     1       6.391  -1.423  -8.537  0.00  0.00    +0.121 C 
ATOM      3  N   UNL     1       7.327  -1.028  -9.617  0.00  0.00    -0.295 N 
ATOM      4  C   UNL     1       6.992   0.388  -9.897  0.00  0.00    +0.115 C 
ATOM      5  C   UNL     1       5.454   0.447  -9.802  0.00  0.00    -0.004 C 
ATOM      6  C   UNL     1       5.015   1.760  -9.160  0.00  0.00    -0.010 C 
ATOM      7  C   UNL     1       5.370   2.922 -10.092  0.00  0.00    -0.082 C 
ATOM      8  N   UNL     1       4.699   2.738 -11.384  0.00  0.00    +0.379 N 
ATOM      9  C   UNL     1       5.195   1.521 -12.037  0.00  0.00    -0.082 C 
ATOM     10  C   UNL     1       4.834   0.299 -11.188  0.00  0.00    -0.010 C 
ATOM     11  C   UNL     1       8.270  -1.787 -10.210  0.00  0.00    +0.267 C 
ATOM     12  O   UNL     1       8.966  -1.315 -11.089  0.00  0.00    -0.268 OA
ATOM     13  H   UNL     1       3.704   2.656 -11.237  0.00  0.00    -0.086 HD
ATOM     14  H   UNL     1       4.884   3.535 -11.975  0.00  0.00    -0.086 HD
ENDROOT
BRANCH  11  15
ATOM     15  C   UNL     1       8.459  -3.191  -9.794  0.00  0.00    +0.147 A 
ATOM     16  C   UNL     1       9.405  -4.105 -10.316  0.00  0.00    +0.057 A 
ATOM     17  C   UNL     1       9.208  -5.258  -9.635  0.00  0.00    +0.037 A 
ATOM     18  N   UNL     1       8.203  -5.040  -8.761  0.00  0.00    -0.271 N 
ATOM     19  N   UNL     1       7.781  -3.830  -8.861  0.00  0.00    -0.167 NA
ATOM     20  C   UNL     1       7.673  -6.037  -7.827  0.00  0.00    +0.172 C 
ATOM     21  C   UNL     1       9.968  -6.546  -9.820  0.00  0.00    +0.065 C 
ENDBRANCH  11  15
BRANCH   1  23
ATOM     22  N   UNL     1       3.006  -0.167  -7.651  0.00  0.00    -0.315 N 
ATOM     23  C   UNL     1       4.351  -0.254  -7.671  0.00  0.00    +0.218 C 
ATOM     24  O   UNL     1       4.993   0.059  -6.692  0.00  0.00    -0.275 OA
ATOM     25  H   UNL     1       2.492  -0.418  -8.435  0.00  0.00    +0.149 HD
BRANCH  22  26
ATOM     26  C   UNL     1       2.320   0.306  -6.446  0.00  0.00    +0.109 C 
BRANCH  26  27
ATOM     27  C   UNL     1       0.809   0.309  -6.687  0.00  0.00    +0.054 C 
BRANCH  27  31
ATOM     28  C   UNL     1      -1.192   1.689  -3.174  0.00  0.00    -0.048 A 
ATOM     29  C   UNL     1      -0.800   2.591  -4.146  0.00  0.00    +0.004 A 
ATOM     30  C   UNL     1      -0.152   2.145  -5.283  0.00  0.00    +0.004 A 
ATOM     31  C   UNL     1       0.104   0.796  -5.447  0.00  0.00    -0.046 A 
ATOM     32  C   UNL     1      -0.287  -0.105  -4.475  0.00  0.00    +0.004 A 
ATOM     33  C   UNL     1      -0.930   0.342  -3.337  0.00  0.00    +0.004 A 
BRANCH  28  35
ATOM     34  C   UNL     1      -0.865   2.508  -0.857  0.00  0.00    +0.009 C 
ATOM     35  C   UNL     1      -1.898   2.176  -1.935  0.00  0.00    +0.032 C 
ENDBRANCH  28  35
ENDBRANCH  27  31
ENDBRANCH  26  27
ENDBRANCH  22  26
ENDBRANCH   1  23
TORSDOF 6
