REMARK  Name = ZINC36835199
REMARK  10 active torsions:
REMARK  status: ('A' for Active; 'I' for Inactive)
REMARK    1  A    between atoms: C_1  and  C_2
REMARK    2  A    between atoms: C_2  and  C_3
REMARK    3  A    between atoms: C_7  and  C_29
REMARK    4  A    between atoms: C_8  and  N_9
REMARK    5  A    between atoms: C_10  and  C_12
REMARK    6  A    between atoms: C_12  and  N_13
REMARK    7  A    between atoms: C_18  and  C_25
REMARK    8  A    between atoms: C_21  and  C_23
REMARK    9  A    between atoms: C_21  and  C_24
REMARK   10  A    between atoms: C_29  and  C_30
REMARK                            x       y       z     vdW  Elec       q    Type
REMARK                         _______ _______ _______ _____ _____    ______ ____
ROOT
ATOM      1  C   UNL     1      -1.335   0.112   5.567  0.00  0.00    +0.214 C 
ENDROOT
BRANCH   1   2
ATOM      2  N   UNL     1      -1.324  -0.427   6.928  0.00  0.00    -0.215 N 
ATOM      3  C   UNL     1      -2.081  -1.467   7.343  0.00  0.00    +0.247 C 
ATOM      4  O   UNL     1      -2.987  -1.986   6.728  0.00  0.00    -0.273 OA
ATOM      5  C   UNL     1      -1.558  -1.823   8.713  0.00  0.00    +0.113 C 
ATOM      6  C   UNL     1      -2.694  -1.922   9.720  0.00  0.00    +0.038 C 
ATOM      7  C   UNL     1      -3.501  -3.197   9.474  0.00  0.00    -0.011 C 
ATOM      8  C   UNL     1      -2.586  -4.402   9.679  0.00  0.00    +0.009 C 
ATOM      9  C   UNL     1      -1.428  -4.384   8.687  0.00  0.00    -0.032 C 
ATOM     10  C   UNL     1      -0.683  -3.060   8.682  0.00  0.00    +0.041 C 
ATOM     11  C   UNL     1      -0.435  -5.490   9.104  0.00  0.00    +0.011 C 
ATOM     12  C   UNL     1      -1.934  -4.727   7.283  0.00  0.00    +0.011 C 
ATOM     13  C   UNL     1      -4.660  -3.263  10.475  0.00  0.00    +0.007 C 
ATOM     14  N   UNL     1      -0.714  -0.656   9.059  0.00  0.00    -0.285 N 
ATOM     15  C   UNL     1      -0.584   0.063   7.930  0.00  0.00    +0.310 C 
ATOM     16  O   UNL     1       0.126   1.045   7.829  0.00  0.00    -0.252 OA
ATOM     17  H   UNL     1      -0.339  -0.463   9.929  0.00  0.00    +0.151 HD
ENDBRANCH   1   2
BRANCH   1  19
ATOM     18  N   UNL     1      -0.105  -0.244   3.451  0.00  0.00    -0.284 N 
ATOM     19  C   UNL     1      -0.279  -0.580   4.745  0.00  0.00    +0.235 C 
ATOM     20  O   UNL     1       0.415  -1.438   5.247  0.00  0.00    -0.274 OA
ATOM     21  H   UNL     1      -0.672   0.429   3.045  0.00  0.00    +0.155 HD
BRANCH  18  27
ATOM     22  C   UNL     1       2.112  -0.232   2.493  0.00  0.00    -0.026 A 
ATOM     23  C   UNL     1       3.099  -0.851   1.751  0.00  0.00    +0.007 A 
ATOM     24  C   UNL     1       2.873  -2.101   1.204  0.00  0.00    +0.020 A 
ATOM     25  C   UNL     1       1.659  -2.735   1.399  0.00  0.00    +0.046 A 
ATOM     26  C   UNL     1       0.668  -2.120   2.141  0.00  0.00    -0.008 A 
ATOM     27  C   UNL     1       0.894  -0.867   2.695  0.00  0.00    +0.041 A 
ATOM     28 CL   UNL     1       1.379  -4.304   0.711  0.00  0.00    -0.083 Cl
BRANCH  22  30
ATOM     29  C   UNL     1       2.846   0.976   4.530  0.00  0.00    +0.009 C 
ATOM     30  C   UNL     1       2.360   1.131   3.088  0.00  0.00    +0.033 C 
ENDBRANCH  22  30
BRANCH  26  31
ATOM     31  C   UNL     1      -0.655  -2.811   2.352  0.00  0.00    +0.035 C 
ATOM     32  C   UNL     1      -0.636  -3.550   3.692  0.00  0.00    +0.009 C 
ENDBRANCH  26  31
ENDBRANCH  18  27
ENDBRANCH   1  19
TORSDOF 5
