REMARK  Name = ZINC24372884
REMARK  6 active torsions:
REMARK  status: ('A' for Active; 'I' for Inactive)
REMARK    1  A    between atoms: C_3  and  O_20
REMARK    2  A    between atoms: C_5  and  S_7
REMARK    3  A    between atoms: S_7  and  N_10
REMARK    4  A    between atoms: N_10  and  C_11
REMARK    5  A    between atoms: C_14  and  N_18
REMARK    6  A    between atoms: O_20  and  C_21
REMARK                            x       y       z     vdW  Elec       q    Type
REMARK                         _______ _______ _______ _____ _____    ______ ____
ROOT
ATOM      1  S   UNL     1      -3.605   1.399   1.125  0.00  0.00    +0.072 S 
ATOM      2  O   UNL     1      -4.663   0.461   0.986  0.00  0.00    -0.150 OA
ATOM      3  O   UNL     1      -2.904   1.580   2.348  0.00  0.00    -0.150 OA
ENDROOT
BRANCH   1   8
ATOM      4  C   UNL     1      -5.925   4.283  -0.441  0.00  0.00    +0.005 A 
ATOM      5  C   UNL     1      -5.311   5.441  -0.005  0.00  0.00    +0.046 A 
ATOM      6  C   UNL     1      -4.169   5.366   0.779  0.00  0.00    +0.132 A 
ATOM      7  C   UNL     1      -3.650   4.127   1.129  0.00  0.00    +0.074 A 
ATOM      8  C   UNL     1      -4.266   2.972   0.686  0.00  0.00    +0.112 A 
ATOM      9  C   UNL     1      -5.404   3.050  -0.096  0.00  0.00    +0.029 A 
BRANCH   6  10
ATOM     10  O   UNL     1      -3.562   6.503   1.209  0.00  0.00    -0.406 OA
BRANCH  10  11
ATOM     11  C   UNL     1      -4.155   7.743   0.816  0.00  0.00    +0.575 C 
ATOM     12  F   UNL     1      -5.465   7.808   1.302  0.00  0.00    -0.133 F 
ATOM     13  F   UNL     1      -3.409   8.804   1.341  0.00  0.00    -0.133 F 
ATOM     14  F   UNL     1      -4.171   7.830  -0.580  0.00  0.00    -0.133 F 
ENDBRANCH  10  11
ENDBRANCH   6  10
ENDBRANCH   1   8
BRANCH   1  15
ATOM     15  N   UNL     1      -2.472   1.008  -0.017  0.00  0.00    -0.216 N 
ATOM     16  H   UNL     1      -2.623   0.132  -0.664  0.00  0.00    +0.174 HD
BRANCH  15  17
ATOM     17  C   UNL     1      -1.321   1.793  -0.159  0.00  0.00    +0.051 A 
ATOM     18  C   UNL     1      -1.201   2.659  -1.238  0.00  0.00    +0.046 A 
ATOM     19  C   UNL     1      -0.068   3.438  -1.376  0.00  0.00    +0.065 A 
ATOM     20  C   UNL     1       0.953   3.352  -0.437  0.00  0.00    +0.062 A 
ATOM     21  C   UNL     1       0.834   2.483   0.639  0.00  0.00    +0.065 A 
ATOM     22  C   UNL     1      -0.299   1.703   0.776  0.00  0.00    +0.046 A 
ATOM     23 CL   UNL     1       2.109   2.374   1.812  0.00  0.00    -0.082 Cl
ATOM     24 CL   UNL     1       0.080   4.524  -2.722  0.00  0.00    -0.082 Cl
BRANCH  20  25
ATOM     25  N   UNL     1       2.102   4.142  -0.577  0.00  0.00    -0.356 N 
ATOM     26  H   UNL     1       2.910   4.074   0.167  0.00  0.00    +0.142 HD
ATOM     27  H   UNL     1       2.196   4.830  -1.430  0.00  0.00    +0.142 HD
ENDBRANCH  20  25
ENDBRANCH  15  17
ENDBRANCH   1  15
TORSDOF 6
