REMARK  Name = ZINC16038021
REMARK  6 active torsions:
REMARK  status: ('A' for Active; 'I' for Inactive)
REMARK    1  A    between atoms: C_1  and  C_2
REMARK    2  A    between atoms: C_5  and  N_8
REMARK    3  A    between atoms: C_16  and  C_35
REMARK    4  A    between atoms: C_20  and  C_26
REMARK    5  A    between atoms: C_26  and  C_28
REMARK    6  A    between atoms: C_35  and  C_37
REMARK                            x       y       z     vdW  Elec       q    Type
REMARK                         _______ _______ _______ _____ _____    ______ ____
ROOT
ATOM      1  N   UNL     1      -2.995   2.354   0.859  0.00  0.00    -0.210 N 
ATOM      2  C   UNL     1      -1.851   2.955   1.220  0.00  0.00    +0.232 C 
ATOM      3  O   UNL     1      -1.652   4.150   1.239  0.00  0.00    -0.274 OA
ATOM      4  C   UNL     1      -0.836   1.875   1.618  0.00  0.00    +0.113 C 
ATOM      5  C   UNL     1      -0.072   1.452   0.357  0.00  0.00    +0.093 C 
ATOM      6  C   UNL     1       1.385   1.835   0.445  0.00  0.00    +0.006 C 
ATOM      7  C   UNL     1       2.303   1.020  -0.120  0.00  0.00    +0.021 C 
ATOM      8  C   UNL     1       1.901  -0.215  -0.821  0.00  0.00    +0.025 C 
ATOM      9  C   UNL     1       0.675  -0.735  -0.604  0.00  0.00    +0.054 C 
ATOM     10  N   UNL     1      -0.131  -0.017   0.273  0.00  0.00    -0.384 NA
ATOM     11  C   UNL     1      -1.071  -0.531   1.262  0.00  0.00    +0.141 C 
ATOM     12  C   UNL     1      -1.787   0.670   1.894  0.00  0.00    +0.116 C 
ATOM     13  C   UNL     1      -3.020   1.032   1.094  0.00  0.00    +0.232 C 
ATOM     14  O   UNL     1      -3.881   0.261   0.728  0.00  0.00    -0.274 OA
ATOM     15  H   UNL     1       0.127  -0.842  -0.408  0.00  0.00    +0.127 HD
ENDROOT
BRANCH   1  20
ATOM     16  C   UNL     1      -7.352   5.158  -1.460  0.00  0.00    +0.044 C 
ATOM     17  C   UNL     1      -6.195   4.413  -0.844  0.00  0.00    -0.050 A 
ATOM     18  C   UNL     1      -5.000   4.305  -1.531  0.00  0.00    +0.005 A 
ATOM     19  C   UNL     1      -3.938   3.623  -0.970  0.00  0.00    +0.024 A 
ATOM     20  C   UNL     1      -4.072   3.046   0.286  0.00  0.00    +0.044 A 
ATOM     21  C   UNL     1      -5.274   3.152   0.971  0.00  0.00    +0.024 A 
ATOM     22  C   UNL     1      -6.331   3.839   0.407  0.00  0.00    +0.005 A 
ENDBRANCH   1  20
BRANCH  11  23
ATOM     23  C   UNL     1      -0.326  -1.298   2.324  0.00  0.00    +0.183 C 
ATOM     24  O   UNL     1       0.868  -1.136   2.464  0.00  0.00    -0.290 OA
BRANCH  23  25
ATOM     25  C   UNL     1      -1.046  -2.243   3.190  0.00  0.00    +0.019 A 
ATOM     26  C   UNL     1      -2.424  -2.429   3.035  0.00  0.00    +0.013 A 
ATOM     27  C   UNL     1      -3.092  -3.320   3.847  0.00  0.00    +0.020 A 
ATOM     28  C   UNL     1      -2.403  -4.024   4.822  0.00  0.00    +0.041 A 
ATOM     29  C   UNL     1      -1.040  -3.841   4.986  0.00  0.00    +0.020 A 
ATOM     30  C   UNL     1      -0.358  -2.957   4.177  0.00  0.00    +0.013 A 
ATOM     31 CL   UNL     1      -3.254  -5.139   5.845  0.00  0.00    -0.084 Cl
ENDBRANCH  23  25
ENDBRANCH  11  23
BRANCH   7  32
ATOM     32  C   UNL     1       3.735   1.371  -0.034  0.00  0.00    +0.193 C 
ATOM     33  O   UNL     1       4.154   2.357  -0.608  0.00  0.00    -0.287 OA
BRANCH  32  34
ATOM     34  C   UNL     1       4.658   0.525   0.750  0.00  0.00    +0.022 A 
ATOM     35  C   UNL     1       4.199  -0.657   1.337  0.00  0.00    +0.012 A 
ATOM     36  C   UNL     1       5.067  -1.445   2.063  0.00  0.00    +0.001 A 
ATOM     37  C   UNL     1       6.387  -1.061   2.221  0.00  0.00    +0.000 A 
ATOM     38  C   UNL     1       6.848   0.111   1.647  0.00  0.00    +0.001 A 
ATOM     39  C   UNL     1       5.992   0.906   0.914  0.00  0.00    +0.012 A 
ENDBRANCH  32  34
ENDBRANCH   7  32
TORSDOF 5
