REMARK  Name = ZINC40467107
REMARK  4 active torsions:
REMARK  status: ('A' for Active; 'I' for Inactive)
REMARK    1  A    between atoms: C_1  and  C_2
REMARK    2  A    between atoms: C_6  and  N_8
REMARK    3  A    between atoms: N_10  and  C_22
REMARK    4  A    between atoms: C_14  and  C_15
REMARK                            x       y       z     vdW  Elec       q    Type
REMARK                         _______ _______ _______ _____ _____    ______ ____
ROOT
ATOM      1  N   UNL     1       3.548  -2.721   3.675  0.00  0.00    -0.206 NA
ATOM      2  C   UNL     1       2.780  -2.067   4.521  0.00  0.00    +0.170 C 
ATOM      3  N   UNL     1       2.527  -0.715   4.580  0.00  0.00    -0.249 N 
ATOM      4  C   UNL     1       1.721  -0.219   5.503  0.00  0.00    +0.259 C 
ATOM      5  O   UNL     1       1.486   0.974   5.568  0.00  0.00    -0.269 OA
ATOM      6  C   UNL     1       1.119  -1.173   6.448  0.00  0.00    +0.079 C 
ATOM      7  C   UNL     1       0.264  -0.941   7.484  0.00  0.00    +0.046 C 
ATOM      8  S   UNL     1       1.805  -2.717   5.868  0.00  0.00    -0.049 S 
ATOM      9  C   UNL     1       3.158   0.183   3.610  0.00  0.00    +0.140 C 
ENDROOT
BRANCH   1  15
ATOM     10  C   UNL     1       7.311  -0.428   1.848  0.00  0.00    +0.065 C 
ATOM     11  C   UNL     1       5.907  -0.954   1.697  0.00  0.00    +0.041 A 
ATOM     12  C   UNL     1       5.233  -0.763   0.506  0.00  0.00    +0.023 A 
ATOM     13  C   UNL     1       3.938  -1.248   0.368  0.00  0.00    +0.005 A 
ATOM     14  C   UNL     1       3.363  -1.911   1.435  0.00  0.00    +0.048 A 
ATOM     15  C   UNL     1       4.101  -2.069   2.613  0.00  0.00    +0.155 A 
ATOM     16  N   UNL     1       5.340  -1.594   2.701  0.00  0.00    -0.233 NA
ENDBRANCH   1  15
BRANCH   7  17
ATOM     17  C   UNL     1       0.208   0.341   8.082  0.00  0.00    +0.040 A 
ATOM     18  C   UNL     1       0.345   0.622   9.429  0.00  0.00    +0.027 A 
ATOM     19  C   UNL     1       0.223   2.008   9.575  0.00  0.00    +0.019 A 
ATOM     20  C   UNL     1       0.018   2.539   8.346  0.00  0.00    +0.083 A 
ATOM     21  N   UNL     1       0.012   1.537   7.428  0.00  0.00    -0.361 N 
ATOM     22  H   UNL     1      -0.112   1.645   6.472  0.00  0.00    +0.165 HD
ENDBRANCH   7  17
TORSDOF 2
