REMARK  Name = ZINC59037794
REMARK  9 active torsions:
REMARK  status: ('A' for Active; 'I' for Inactive)
REMARK    1  A    between atoms: C_1  and  C_2
REMARK    2  A    between atoms: C_2  and  N_3
REMARK    3  A    between atoms: C_6  and  N_9
REMARK    4  A    between atoms: C_10  and  C_12
REMARK    5  A    between atoms: C_12  and  N_13
REMARK    6  A    between atoms: C_22  and  C_24
REMARK    7  A    between atoms: N_26  and  C_27
REMARK    8  A    between atoms: C_27  and  C_28
REMARK    9  A    between atoms: C_28  and  C_29
REMARK                            x       y       z     vdW  Elec       q    Type
REMARK                         _______ _______ _______ _____ _____    ______ ____
ROOT
ATOM      1  N   UNL     1      -7.134  -5.287  -1.748  0.00  0.00    -0.278 NA
ATOM      2  C   UNL     1      -7.063  -5.433  -3.205  0.00  0.00    +0.121 C 
ATOM      3  C   UNL     1      -6.843  -6.875  -3.580  0.00  0.00    -0.030 A 
ATOM      4  C   UNL     1      -6.384  -7.161  -4.858  0.00  0.00    +0.005 A 
ATOM      5  C   UNL     1      -6.172  -8.469  -5.246  0.00  0.00    +0.000 A 
ATOM      6  C   UNL     1      -6.418  -9.499  -4.358  0.00  0.00    +0.000 A 
ATOM      7  C   UNL     1      -6.872  -9.215  -3.086  0.00  0.00    +0.004 A 
ATOM      8  C   UNL     1      -7.084  -7.902  -2.694  0.00  0.00    -0.041 A 
ATOM      9  C   UNL     1      -7.570  -7.639  -1.292  0.00  0.00    +0.063 C 
ATOM     10  C   UNL     1      -8.127  -6.219  -1.190  0.00  0.00    +0.148 C 
ENDROOT
BRANCH  10  11
ATOM     11  C   UNL     1      -8.385  -5.879   0.255  0.00  0.00    +0.231 C 
ATOM     12  O   UNL     1      -7.484  -5.457   0.949  0.00  0.00    -0.274 OA
ATOM     13  N   UNL     1      -9.617  -6.044   0.777  0.00  0.00    -0.314 N 
ATOM     14  H   UNL     1     -10.337  -6.381   0.222  0.00  0.00    +0.149 HD
BRANCH  13  15
ATOM     15  C   UNL     1      -9.867  -5.713   2.182  0.00  0.00    +0.109 C 
BRANCH  15  16
ATOM     16  C   UNL     1     -11.334  -5.989   2.517  0.00  0.00    +0.054 C 
BRANCH  16  17
ATOM     17  C   UNL     1     -11.592  -5.649   3.962  0.00  0.00    -0.046 A 
ATOM     18  C   UNL     1     -11.422  -6.612   4.939  0.00  0.00    +0.006 A 
ATOM     19  C   UNL     1     -11.658  -6.301   6.265  0.00  0.00    +0.038 A 
ATOM     20  C   UNL     1     -12.065  -5.025   6.615  0.00  0.00    +0.123 A 
ATOM     21  C   UNL     1     -12.235  -4.061   5.635  0.00  0.00    +0.038 A 
ATOM     22  C   UNL     1     -11.993  -4.373   4.311  0.00  0.00    +0.006 A 
ATOM     23  F   UNL     1     -12.296  -4.720   7.910  0.00  0.00    -0.205 F 
ENDBRANCH  16  17
ENDBRANCH  15  16
ENDBRANCH  13  15
ENDBRANCH  10  11
BRANCH   1  24
ATOM     24  C   UNL     1      -7.444  -3.901  -1.371  0.00  0.00    +0.181 C 
BRANCH  24  26
ATOM     25  N   UNL     1      -6.284  -1.716  -1.329  0.00  0.00    -0.312 N 
ATOM     26  C   UNL     1      -6.233  -3.035  -1.605  0.00  0.00    +0.227 C 
ATOM     27  O   UNL     1      -5.213  -3.523  -2.043  0.00  0.00    -0.274 OA
ATOM     28  H   UNL     1      -7.100  -1.325  -0.980  0.00  0.00    +0.149 HD
BRANCH  25  32
ATOM     29  N   UNL     1      -3.489   1.380  -0.723  0.00  0.00    +0.380 N 
ATOM     30  C   UNL     1      -4.313   1.462  -1.936  0.00  0.00    -0.077 C 
ATOM     31  C   UNL     1      -5.550   0.575  -1.778  0.00  0.00    +0.003 C 
ATOM     32  C   UNL     1      -5.107  -0.874  -1.557  0.00  0.00    +0.069 C 
ATOM     33  C   UNL     1      -4.189  -0.936  -0.333  0.00  0.00    +0.003 C 
ATOM     34  C   UNL     1      -3.002   0.007  -0.544  0.00  0.00    -0.077 C 
ATOM     35  H   UNL     1      -4.044   1.646   0.076  0.00  0.00    -0.082 HD
BRANCH  29  37
ATOM     36  C   UNL     1      -2.847   3.736  -0.910  0.00  0.00    -0.017 C 
ATOM     37  C   UNL     1      -2.345   2.292  -0.848  0.00  0.00    -0.082 C 
ENDBRANCH  29  37
ENDBRANCH  25  32
ENDBRANCH  24  26
ENDBRANCH   1  24
TORSDOF 8
