REMARK  Name = ZINC04084159
REMARK  6 active torsions:
REMARK  status: ('A' for Active; 'I' for Inactive)
REMARK    1  A    between atoms: C_1  and  C_2
REMARK    2  A    between atoms: C_6  and  N_9
REMARK    3  A    between atoms: C_7  and  C_8
REMARK    4  A    between atoms: C_28  and  C_30
REMARK    5  A    between atoms: C_30  and  C_32
REMARK    6  A    between atoms: C_30  and  C_33
REMARK                            x       y       z     vdW  Elec       q    Type
REMARK                         _______ _______ _______ _____ _____    ______ ____
ROOT
ATOM      1  N   UNL     1      -2.831  -0.430   0.968  0.00  0.00    -0.210 N 
ATOM      2  C   UNL     1      -3.862   0.361   0.650  0.00  0.00    +0.228 C 
ATOM      3  O   UNL     1      -4.981  -0.021   0.380  0.00  0.00    -0.275 OA
ATOM      4  C   UNL     1      -3.416   1.805   0.681  0.00  0.00    +0.073 C 
ATOM      5  C   UNL     1      -1.914   1.725   1.070  0.00  0.00    +0.088 C 
ATOM      6  C   UNL     1      -1.690   0.221   1.223  0.00  0.00    +0.229 C 
ATOM      7  O   UNL     1      -0.641  -0.301   1.535  0.00  0.00    -0.275 OA
ATOM      8  C   UNL     1      -1.167   2.232  -0.170  0.00  0.00    +0.050 C 
ATOM      9  C   UNL     1      -0.769   3.673  -0.021  0.00  0.00    -0.028 A 
ATOM     10  C   UNL     1      -1.476   4.836   0.186  0.00  0.00    +0.004 A 
ATOM     11  C   UNL     1      -0.810   6.045   0.274  0.00  0.00    +0.000 A 
ATOM     12  C   UNL     1       0.567   6.083   0.154  0.00  0.00    +0.002 A 
ATOM     13  C   UNL     1       1.280   4.921  -0.053  0.00  0.00    +0.023 A 
ATOM     14  C   UNL     1       0.617   3.699  -0.144  0.00  0.00    +0.036 A 
ATOM     15  N   UNL     1       1.109   2.407  -0.347  0.00  0.00    -0.286 N 
ATOM     16  C   UNL     1       0.125   1.488  -0.374  0.00  0.00    +0.211 C 
ATOM     17  O   UNL     1       0.254   0.293  -0.536  0.00  0.00    -0.277 OA
ATOM     18  C   UNL     1      -3.425   2.373  -0.754  0.00  0.00    -0.055 C 
ATOM     19  H   UNL     1       2.049   2.197  -0.456  0.00  0.00    +0.155 HD
ATOM     20  N   UNL     1      -2.095   2.046  -1.272  0.00  0.00    +0.394 N 
ATOM     21  H   UNL     1      -2.070   1.072  -1.597  0.00  0.00    -0.083 HD
ATOM     22  H   UNL     1      -1.853   2.672  -2.049  0.00  0.00    -0.083 HD
ENDROOT
BRANCH   1  28
ATOM     23  C   UNL     1      -3.779  -4.498   3.564  0.00  0.00    +0.044 C 
ATOM     24  C   UNL     1      -3.395  -3.823   2.273  0.00  0.00    -0.046 A 
ATOM     25  C   UNL     1      -3.146  -4.583   1.144  0.00  0.00    +0.004 A 
ATOM     26  C   UNL     1      -2.794  -3.967  -0.043  0.00  0.00    +0.002 A 
ATOM     27  C   UNL     1      -2.693  -2.591  -0.106  0.00  0.00    +0.024 A 
ATOM     28  C   UNL     1      -2.937  -1.826   1.027  0.00  0.00    +0.047 A 
ATOM     29  C   UNL     1      -3.291  -2.447   2.217  0.00  0.00    -0.026 A 
ATOM     30  C   UNL     1      -3.562  -1.620   3.448  0.00  0.00    +0.046 C 
ENDBRANCH   1  28
BRANCH  18  31
ATOM     31  C   UNL     1      -4.526   1.708  -1.582  0.00  0.00    -0.031 C 
ATOM     32  C   UNL     1      -5.895   2.167  -1.073  0.00  0.00    +0.005 C 
ATOM     33  C   UNL     1      -4.369   2.106  -3.051  0.00  0.00    +0.005 C 
ENDBRANCH  18  31
TORSDOF 2
