REMARK  Name = ZINC17070988
REMARK  2 active torsions:
REMARK  status: ('A' for Active; 'I' for Inactive)
REMARK    1  A    between atoms: C_3  and  C_6
REMARK    2  A    between atoms: C_11  and  C_19
REMARK                            x       y       z     vdW  Elec       q    Type
REMARK                         _______ _______ _______ _____ _____    ______ ____
ROOT
ATOM      1  C   UNL     1       3.599   0.625  -0.029  0.00  0.00    +0.068 C 
ATOM      2  C   UNL     1       4.085  -0.113  -1.279  0.00  0.00    +0.063 C 
ATOM      3  C   UNL     1       5.594  -0.181  -1.272  0.00  0.00    +0.020 C 
ATOM      4  C   UNL     1       6.279  -0.248  -0.111  0.00  0.00    +0.041 C 
ATOM      5  C   UNL     1       7.790  -0.335  -0.072  0.00  0.00    +0.182 C 
ATOM      6  N   UNL     1       8.341   0.004  -1.377  0.00  0.00    -0.220 N 
ATOM      7  C   UNL     1       7.595   0.075  -2.508  0.00  0.00    +0.219 A 
ATOM      8  N   UNL     1       8.387   0.392  -3.494  0.00  0.00    -0.201 NA
ATOM      9  C   UNL     1       9.636   0.535  -3.037  0.00  0.00    +0.247 A 
ATOM     10  N   UNL     1       9.651   0.308  -1.747  0.00  0.00    -0.156 NA
ATOM     11  N   UNL     1       6.231  -0.165  -2.490  0.00  0.00    -0.287 N 
ATOM     12  C   UNL     1       5.608  -0.235   1.125  0.00  0.00    +0.164 C 
ATOM     13  O   UNL     1       6.252  -0.312   2.152  0.00  0.00    -0.292 OA
ATOM     14  C   UNL     1       4.110  -0.127   1.204  0.00  0.00    +0.091 C 
ATOM     15  H   UNL     1       5.740  -0.318  -3.312  0.00  0.00    +0.155 HD
ENDROOT
BRANCH   1  18
ATOM     16  C   UNL     1      -0.016   1.341   0.009  0.00  0.00    +0.041 A 
ATOM     17  C   UNL     1       1.331   1.769  -0.001  0.00  0.00    +0.045 A 
ATOM     18  C   UNL     1       2.092   0.660  -0.014  0.00  0.00    +0.109 A 
ATOM     19  O   UNL     1       1.282  -0.411  -0.012  0.00  0.00    -0.468 OA
ATOM     20  C   UNL     1       0.002  -0.004   0.002  0.00  0.00    +0.195 A 
ENDBRANCH   1  18
BRANCH   5  21
ATOM     21  C   UNL     1       8.201  -1.738   0.294  0.00  0.00    +0.019 A 
ATOM     22  C   UNL     1       8.926  -2.165   1.356  0.00  0.00    +0.013 A 
ATOM     23  C   UNL     1       9.184  -3.517   1.492  0.00  0.00    +0.008 A 
ATOM     24  C   UNL     1       8.704  -4.374   0.558  0.00  0.00    +0.045 A 
ATOM     25  S   UNL     1       7.852  -3.269  -0.556  0.00  0.00    -0.099 S 
ENDBRANCH   5  21
TORSDOF 2
