REMARK  Name = ZINC12534353
REMARK  6 active torsions:
REMARK  status: ('A' for Active; 'I' for Inactive)
REMARK    1  A    between atoms: C_1  and  C_2
REMARK    2  A    between atoms: C_4  and  N_26
REMARK    3  A    between atoms: C_6  and  S_8
REMARK    4  A    between atoms: S_8  and  C_9
REMARK    5  A    between atoms: C_9  and  C_10
REMARK    6  A    between atoms: C_23  and  C_25
REMARK                            x       y       z     vdW  Elec       q    Type
REMARK                         _______ _______ _______ _____ _____    ______ ____
ROOT
ATOM      1  C   UNL     1       0.002  -0.004   0.002  0.00  0.00    +0.230 C 
ATOM      2  O   UNL     1      -1.040  -0.625   0.009  0.00  0.00    -0.274 OA
ATOM      3  N   UNL     1      -0.016   1.344   0.009  0.00  0.00    -0.266 N 
ATOM      4  C   UNL     1       1.181   2.074   0.002  0.00  0.00    +0.058 A 
ATOM      5  C   UNL     1       1.965   2.133  -1.138  0.00  0.00    +0.025 A 
ATOM      6  C   UNL     1       3.130   2.877  -1.134  0.00  0.00    +0.002 A 
ATOM      7  C   UNL     1       3.515   3.563   0.004  0.00  0.00    +0.002 A 
ATOM      8  C   UNL     1       2.742   3.502   1.149  0.00  0.00    +0.025 A 
ATOM      9  C   UNL     1       1.579   2.750   1.155  0.00  0.00    +0.055 A 
ATOM     10  N   UNL     1       0.810   2.628   2.318  0.00  0.00    -0.284 N 
ATOM     11  C   UNL     1      -0.528   2.809   2.277  0.00  0.00    +0.219 C 
ATOM     12  O   UNL     1      -1.193   2.619   3.274  0.00  0.00    -0.275 OA
ATOM     13  C   UNL     1      -1.200   3.245   1.002  0.00  0.00    +0.118 C 
ATOM     14  C   UNL     1      -1.286   2.072   0.019  0.00  0.00    +0.087 C 
ATOM     15  C   UNL     1      -1.580   2.600  -1.386  0.00  0.00    +0.029 C 
ATOM     16  H   UNL     1       1.241   2.412   3.160  0.00  0.00    +0.155 HD
ENDROOT
BRANCH   1  17
ATOM     17  C   UNL     1       1.317  -0.740  -0.015  0.00  0.00    +0.173 C 
BRANCH  17  18
ATOM     18  S   UNL     1       1.011  -2.524  -0.021  0.00  0.00    -0.077 S 
BRANCH  18  24
ATOM     19  C   UNL     1       4.351  -6.401  -0.074  0.00  0.00    +0.066 C 
ATOM     20  C   UNL     1       4.119  -4.912  -0.064  0.00  0.00    +0.044 A 
ATOM     21  C   UNL     1       5.189  -4.038  -0.069  0.00  0.00    +0.066 A 
ATOM     22  C   UNL     1       4.930  -2.666  -0.059  0.00  0.00    +0.121 A 
ATOM     23  N   UNL     1       3.668  -2.248  -0.045  0.00  0.00    -0.207 NA
ATOM     24  C   UNL     1       2.669  -3.119  -0.040  0.00  0.00    +0.191 A 
ATOM     25  N   UNL     1       2.886  -4.427  -0.044  0.00  0.00    -0.227 NA
BRANCH  22  26
ATOM     26  N   UNL     1       5.972  -1.754  -0.064  0.00  0.00    -0.343 N 
ATOM     27  H   UNL     1       5.784  -0.802  -0.057  0.00  0.00    +0.144 HD
ATOM     28  H   UNL     1       6.890  -2.067  -0.074  0.00  0.00    +0.144 HD
ENDBRANCH  22  26
ENDBRANCH  18  24
ENDBRANCH  17  18
ENDBRANCH   1  17
TORSDOF 4
