REMARK  Name = ZINC64220376
REMARK  8 active torsions:
REMARK  status: ('A' for Active; 'I' for Inactive)
REMARK    1  A    between atoms: C_7  and  C_10
REMARK    2  A    between atoms: C_10  and  C_11
REMARK    3  A    between atoms: C_11  and  C_13
REMARK    4  A    between atoms: C_11  and  N_27
REMARK    5  A    between atoms: N_15  and  C_16
REMARK    6  A    between atoms: C_19  and  O_22
REMARK    7  A    between atoms: O_22  and  C_23
REMARK    8  A    between atoms: C_28  and  C_30
REMARK                            x       y       z     vdW  Elec       q    Type
REMARK                         _______ _______ _______ _____ _____    ______ ____
ROOT
ATOM      1  C   UNL     1       0.458  -3.654  -1.468  0.00  0.00    +0.163 C 
ENDROOT
BRANCH   1   2
ATOM      2  C   UNL     1      -0.385  -4.903  -1.451  0.00  0.00    +0.238 C 
ATOM      3  O   UNL     1      -1.576  -4.834  -1.669  0.00  0.00    -0.273 OA
ATOM      4  N   UNL     1       0.185  -6.097  -1.193  0.00  0.00    -0.284 N 
ATOM      5  H   UNL     1       1.147  -6.162  -1.084  0.00  0.00    +0.155 HD
BRANCH   4   6
ATOM      6  C   UNL     1      -0.612  -7.244  -1.080  0.00  0.00    +0.034 A 
ATOM      7  C   UNL     1      -0.276  -8.237  -0.170  0.00  0.00    +0.027 A 
ATOM      8  C   UNL     1      -1.062  -9.367  -0.060  0.00  0.00    +0.048 A 
ATOM      9  C   UNL     1      -2.187  -9.510  -0.858  0.00  0.00    +0.130 A 
ATOM     10  C   UNL     1      -2.524  -8.519  -1.768  0.00  0.00    +0.048 A 
ATOM     11  C   UNL     1      -1.742  -7.385  -1.875  0.00  0.00    +0.027 A 
BRANCH   9  12
ATOM     12  O   UNL     1      -2.961 -10.623  -0.749  0.00  0.00    -0.406 OA
BRANCH  12  13
ATOM     13  C   UNL     1      -4.104 -10.705  -1.602  0.00  0.00    +0.575 C 
ATOM     14  F   UNL     1      -3.693 -10.662  -2.939  0.00  0.00    -0.133 F 
ATOM     15  F   UNL     1      -4.782 -11.905  -1.361  0.00  0.00    -0.133 F 
ATOM     16  F   UNL     1      -4.958  -9.627  -1.342  0.00  0.00    -0.133 F 
ENDBRANCH  12  13
ENDBRANCH   9  12
ENDBRANCH   4   6
ENDBRANCH   1   2
BRANCH   1  17
ATOM     17  N   UNL     1      -0.240  -2.604  -2.214  0.00  0.00    -0.299 N 
ATOM     18  C   UNL     1      -1.450  -2.175  -1.801  0.00  0.00    +0.251 C 
ATOM     19  O   UNL     1      -1.961  -2.660  -0.809  0.00  0.00    -0.270 OA
ATOM     20  H   UNL     1       0.167  -2.218  -3.005  0.00  0.00    +0.150 HD
BRANCH  18  21
ATOM     21  C   UNL     1      -2.149  -1.125  -2.547  0.00  0.00    +0.074 A 
ATOM     22  C   UNL     1      -3.382  -0.544  -2.291  0.00  0.00    +0.021 A 
ATOM     23  C   UNL     1      -3.779   0.428  -3.178  0.00  0.00    +0.008 A 
ATOM     24  C   UNL     1      -2.965   0.747  -4.214  0.00  0.00    +0.046 A 
ATOM     25  S   UNL     1      -1.631  -0.255  -4.014  0.00  0.00    -0.092 S 
ENDBRANCH  18  21
ENDBRANCH   1  17
BRANCH   1  26
ATOM     26  C   UNL     1       0.703  -3.184  -0.033  0.00  0.00    +0.065 C 
BRANCH  26  33
ATOM     27  C   UNL     1       0.003   1.351  -0.003  0.00  0.00    +0.001 A 
ATOM     28  C   UNL     1       1.186   2.102  -0.020  0.00  0.00    +0.002 A 
ATOM     29  C   UNL     1       2.410   1.534  -0.043  0.00  0.00    +0.026 A 
ATOM     30  C   UNL     1       2.546   0.119  -0.050  0.00  0.00    +0.043 A 
ATOM     31  N   UNL     1       3.602  -0.657  -0.071  0.00  0.00    -0.380 N 
ATOM     32  C   UNL     1       3.157  -2.055  -0.070  0.00  0.00    +0.144 C 
ATOM     33  C   UNL     1       1.645  -2.008  -0.044  0.00  0.00    -0.039 C 
ATOM     34  C   UNL     1       1.311  -0.698  -0.033  0.00  0.00    -0.001 A 
ATOM     35  C   UNL     1       0.019  -0.002  -0.008  0.00  0.00    +0.010 A 
ATOM     36  H   UNL     1       4.525  -0.357  -0.086  0.00  0.00    +0.160 HD
ENDBRANCH  26  33
ENDBRANCH   1  26
TORSDOF 8
