REMARK  Name = ZINC39664442
REMARK  11 active torsions:
REMARK  status: ('A' for Active; 'I' for Inactive)
REMARK    1  A    between atoms: C_1  and  C_2
REMARK    2  A    between atoms: C_2  and  C_3
REMARK    3  A    between atoms: C_3  and  C_4
REMARK    4  A    between atoms: C_4  and  C_5
REMARK    5  A    between atoms: C_5  and  C_7
REMARK    6  A    between atoms: C_5  and  C_8
REMARK    7  A    between atoms: C_12  and  C_21
REMARK    8  A    between atoms: N_23  and  C_24
REMARK    9  A    between atoms: C_24  and  C_25
REMARK   10  A    between atoms: C_25  and  C_27
REMARK   11  A    between atoms: C_25  and  N_33
REMARK                            x       y       z     vdW  Elec       q    Type
REMARK                         _______ _______ _______ _____ _____    ______ ____
ROOT
ATOM      1  C   UNL     1       1.402  -2.459  -4.217  0.00  0.00    +0.218 C 
ATOM      2  O   UNL     1       0.676  -2.788  -3.303  0.00  0.00    -0.275 OA
ATOM      3  N   UNL     1       2.051  -3.398  -4.933  0.00  0.00    -0.300 N 
ATOM      4  C   UNL     1       2.978  -3.193  -6.072  0.00  0.00    +0.121 C 
ATOM      5  C   UNL     1       4.096  -4.239  -5.858  0.00  0.00    +0.100 C 
ATOM      6  C   UNL     1       3.447  -5.337  -4.999  0.00  0.00    -0.004 C 
ATOM      7  C   UNL     1       2.004  -4.870  -4.756  0.00  0.00    +0.115 C 
ATOM      8  C   UNL     1       3.454  -6.666  -5.747  0.00  0.00    -0.010 C 
ATOM      9  C   UNL     1       2.857  -7.755  -4.850  0.00  0.00    -0.082 C 
ATOM     10  N   UNL     1       3.644  -7.861  -3.616  0.00  0.00    +0.379 N 
ATOM     11  C   UNL     1       3.556  -6.607  -2.856  0.00  0.00    -0.082 C 
ATOM     12  C   UNL     1       4.183  -5.471  -3.669  0.00  0.00    -0.010 C 
ATOM     13  H   UNL     1       3.286  -8.619  -3.054  0.00  0.00    -0.086 HD
ATOM     14  H   UNL     1       4.609  -8.044  -3.848  0.00  0.00    -0.086 HD
ENDROOT
BRANCH   5  15
ATOM     15  C   UNL     1       5.261  -3.619  -5.130  0.00  0.00    +0.218 C 
ATOM     16  O   UNL     1       5.080  -2.682  -4.383  0.00  0.00    -0.275 OA
ATOM     17  N   UNL     1       6.504  -4.108  -5.309  0.00  0.00    -0.313 N 
ATOM     18  H   UNL     1       6.649  -4.858  -5.907  0.00  0.00    +0.149 HD
BRANCH  17  19
ATOM     19  C   UNL     1       7.637  -3.506  -4.602  0.00  0.00    +0.127 C 
BRANCH  19  20
ATOM     20  C   UNL     1       8.924  -4.242  -4.979  0.00  0.00    +0.104 C 
BRANCH  20  21
ATOM     21  C   UNL     1      10.069  -3.705  -4.161  0.00  0.00    -0.029 A 
ATOM     22  C   UNL     1      11.249  -3.339  -4.780  0.00  0.00    +0.005 A 
ATOM     23  C   UNL     1      12.300  -2.846  -4.029  0.00  0.00    +0.000 A 
ATOM     24  C   UNL     1      12.170  -2.719  -2.658  0.00  0.00    +0.000 A 
ATOM     25  C   UNL     1      10.989  -3.084  -2.039  0.00  0.00    +0.000 A 
ATOM     26  C   UNL     1       9.937  -3.573  -2.791  0.00  0.00    +0.005 A 
ENDBRANCH  20  21
BRANCH  20  27
ATOM     27  N   UNL     1       8.763  -5.678  -4.713  0.00  0.00    -0.290 NA
ATOM     28  C   UNL     1       8.549  -5.927  -3.280  0.00  0.00    +0.113 C 
ATOM     29  C   UNL     1       8.327  -7.425  -3.055  0.00  0.00    +0.175 C 
ATOM     30  O   UNL     1       9.447  -8.151  -3.570  0.00  0.00    -0.377 OA
ATOM     31  C   UNL     1       9.684  -7.932  -4.964  0.00  0.00    +0.175 C 
ATOM     32  C   UNL     1       9.919  -6.439  -5.208  0.00  0.00    +0.113 C 
ENDBRANCH  20  27
ENDBRANCH  19  20
ENDBRANCH  17  19
ENDBRANCH   5  15
BRANCH   1  33
ATOM     33  C   UNL     1       1.579  -1.000  -4.552  0.00  0.00    +0.072 C 
ATOM     34  C   UNL     1       1.124  -0.748  -5.990  0.00  0.00    +0.017 C 
BRANCH  33  35
ATOM     35  C   UNL     1       0.740  -0.152  -3.595  0.00  0.00    +0.012 C 
BRANCH  35  36
ATOM     36  C   UNL     1       1.015   1.331  -3.853  0.00  0.00    +0.000 C 
BRANCH  36  38
ATOM     37  C   UNL     1       0.450   3.662  -3.153  0.00  0.00    +0.004 C 
ATOM     38  C   UNL     1       0.175   2.179  -2.896  0.00  0.00    -0.003 C 
ENDBRANCH  36  38
ENDBRANCH  35  36
ENDBRANCH  33  35
ENDBRANCH   1  33
TORSDOF 9
