REMARK  Name = ZINC14108595
REMARK  11 active torsions:
REMARK  status: ('A' for Active; 'I' for Inactive)
REMARK    1  A    between atoms: C_1  and  C_2
REMARK    2  A    between atoms: C_2  and  C_3
REMARK    3  A    between atoms: C_3  and  C_4
REMARK    4  A    between atoms: C_4  and  C_5
REMARK    5  A    between atoms: C_5  and  C_6
REMARK    6  A    between atoms: N_8  and  C_9
REMARK    7  A    between atoms: C_12  and  C_15
REMARK    8  A    between atoms: C_15  and  C_17
REMARK    9  A    between atoms: C_17  and  N_18
REMARK   10  A    between atoms: C_21  and  C_25
REMARK   11  A    between atoms: C_21  and  C_26
REMARK                            x       y       z     vdW  Elec       q    Type
REMARK                         _______ _______ _______ _____ _____    ______ ____
ROOT
ATOM      1  C   UNL     1      -1.302   2.106   0.041  0.00  0.00    +0.181 C 
ATOM      2  O   UNL     1      -2.337   1.494   0.205  0.00  0.00    -0.290 OA
ENDROOT
BRANCH   1   6
ATOM      3  C   UNL     1       2.394   0.039  -0.015  0.00  0.00    +0.033 A 
ATOM      4  C   UNL     1       1.209  -0.665   0.178  0.00  0.00    +0.024 A 
ATOM      5  C   UNL     1       0.010   0.000   0.199  0.00  0.00    +0.013 A 
ATOM      6  C   UNL     1      -0.020   1.390   0.026  0.00  0.00    +0.019 A 
ATOM      7  C   UNL     1       1.175   2.094  -0.169  0.00  0.00    +0.013 A 
ATOM      8  C   UNL     1       2.369   1.420  -0.188  0.00  0.00    +0.024 A 
BRANCH   3  11
ATOM      9  C   UNL     1       3.675  -1.890  -0.537  0.00  0.00    +0.217 C 
ATOM     10  O   UNL     1       2.698  -2.387  -1.057  0.00  0.00    -0.275 OA
ATOM     11  N   UNL     1       3.610  -0.641  -0.036  0.00  0.00    -0.285 N 
ATOM     12  H   UNL     1       4.410  -0.215   0.310  0.00  0.00    +0.155 HD
BRANCH   9  13
ATOM     13  C   UNL     1       4.961  -2.671  -0.452  0.00  0.00    +0.096 C 
BRANCH  13  14
ATOM     14  C   UNL     1       4.766  -4.048  -1.090  0.00  0.00    +0.009 C 
BRANCH  14  15
ATOM     15  C   UNL     1       6.072  -4.840  -1.003  0.00  0.00    +0.000 C 
BRANCH  15  17
ATOM     16  C   UNL     1       7.182  -7.009  -1.554  0.00  0.00    +0.004 C 
ATOM     17  C   UNL     1       5.876  -6.217  -1.641  0.00  0.00    -0.003 C 
ENDBRANCH  15  17
ENDBRANCH  14  15
ENDBRANCH  13  14
ENDBRANCH   9  13
ENDBRANCH   3  11
ENDBRANCH   1   6
BRANCH   1  18
ATOM     18  C   UNL     1      -1.333   3.601  -0.146  0.00  0.00    +0.197 C 
BRANCH  18  19
ATOM     19  N   UNL     1      -2.719   4.072  -0.090  0.00  0.00    -0.216 N 
ATOM     20  C   UNL     1      -3.344   4.455   1.041  0.00  0.00    +0.251 C 
ATOM     21  O   UNL     1      -2.883   4.473   2.162  0.00  0.00    -0.272 OA
ATOM     22  C   UNL     1      -4.743   4.857   0.619  0.00  0.00    +0.135 C 
ATOM     23  N   UNL     1      -4.745   4.633  -0.837  0.00  0.00    -0.281 N 
ATOM     24  C   UNL     1      -3.519   4.180  -1.157  0.00  0.00    +0.310 C 
ATOM     25  O   UNL     1      -3.178   3.897  -2.289  0.00  0.00    -0.252 OA
ATOM     26  C   UNL     1      -4.998   6.332   0.937  0.00  0.00    +0.047 C 
ATOM     27  H   UNL     1      -5.484   4.786  -1.446  0.00  0.00    +0.152 HD
BRANCH  22  28
ATOM     28  C   UNL     1      -5.771   3.984   1.291  0.00  0.00    -0.015 A 
ATOM     29  C   UNL     1      -5.511   3.443   2.536  0.00  0.00    +0.007 A 
ATOM     30  C   UNL     1      -6.455   2.645   3.155  0.00  0.00    +0.015 A 
ATOM     31  C   UNL     1      -7.657   2.380   2.523  0.00  0.00    +0.018 A 
ATOM     32  C   UNL     1      -7.915   2.917   1.275  0.00  0.00    +0.015 A 
ATOM     33  C   UNL     1      -6.972   3.719   0.659  0.00  0.00    +0.007 A 
ATOM     34 BR   UNL     1      -8.947   1.284   3.366  0.00  0.00    -0.050 Br
ENDBRANCH  22  28
ENDBRANCH  18  19
ENDBRANCH   1  18
TORSDOF 9
