REMARK  Name = ZINC13388225
REMARK  6 active torsions:
REMARK  status: ('A' for Active; 'I' for Inactive)
REMARK    1  A    between atoms: C_4  and  C_7
REMARK    2  A    between atoms: N_9  and  C_10
REMARK    3  A    between atoms: C_10  and  C_17
REMARK    4  A    between atoms: C_11  and  C_12
REMARK    5  A    between atoms: C_22  and  C_25
REMARK    6  A    between atoms: C_22  and  O_32
REMARK                            x       y       z     vdW  Elec       q    Type
REMARK                         _______ _______ _______ _____ _____    ______ ____
ROOT
ATOM      1  C   UNL     1       1.911   3.216   4.777  0.00  0.00    +0.100 C 
ATOM      2  C   UNL     1       2.260   1.904   4.858  0.00  0.00    +0.074 C 
ENDROOT
BRANCH   1   3
ATOM      3  C   UNL     1       1.000   3.667   3.722  0.00  0.00    +0.261 C 
ATOM      4  O   UNL     1       0.113   4.460   3.982  0.00  0.00    -0.269 OA
ATOM      5  N   UNL     1       1.144   3.205   2.464  0.00  0.00    -0.296 N 
ATOM      6  C   UNL     1       0.219   3.624   1.402  0.00  0.00    +0.111 C 
ATOM      7  C   UNL     1       1.033   4.179   0.230  0.00  0.00    +0.058 C 
ATOM      8  C   UNL     1       2.063   3.136  -0.210  0.00  0.00    +0.094 C 
ATOM      9  C   UNL     1       3.021   2.843   0.948  0.00  0.00    +0.058 C 
ATOM     10  C   UNL     1       2.229   2.273   2.128  0.00  0.00    +0.111 C 
BRANCH   8  11
ATOM     11  C   UNL     1       2.844   3.665  -1.385  0.00  0.00    -0.016 A 
ATOM     12  C   UNL     1       3.049   5.026  -1.523  0.00  0.00    +0.008 A 
ATOM     13  C   UNL     1       3.769   5.511  -2.597  0.00  0.00    +0.020 A 
ATOM     14  C   UNL     1       4.276   4.636  -3.542  0.00  0.00    +0.041 A 
ATOM     15  C   UNL     1       4.066   3.276  -3.407  0.00  0.00    +0.020 A 
ATOM     16  C   UNL     1       3.350   2.791  -2.329  0.00  0.00    +0.008 A 
ATOM     17 CL   UNL     1       5.176   5.246  -4.896  0.00  0.00    -0.084 Cl
ENDBRANCH   8  11
BRANCH   8  18
ATOM     18  O   UNL     1       1.391   1.933  -0.588  0.00  0.00    -0.384 OA
ATOM     19  H   UNL     1       1.983   1.226  -0.878  0.00  0.00    +0.211 HD
ENDBRANCH   8  18
ENDBRANCH   1   3
BRANCH   2  20
ATOM     20  C   UNL     1       3.023   1.441   5.958  0.00  0.00    +0.130 A 
ATOM     21  C   UNL     1       3.526   0.167   6.119  0.00  0.00    +0.049 A 
ATOM     22  C   UNL     1       4.212   0.161   7.345  0.00  0.00    +0.042 A 
ATOM     23  C   UNL     1       4.103   1.400   7.870  0.00  0.00    +0.195 A 
ATOM     24  O   UNL     1       3.392   2.169   7.032  0.00  0.00    -0.463 OA
ENDBRANCH   2  20
BRANCH   1  27
ATOM     25  C   UNL     1       3.160   5.178   5.276  0.00  0.00    +0.248 C 
ATOM     26  O   UNL     1       3.308   5.373   4.085  0.00  0.00    -0.270 OA
ATOM     27  N   UNL     1       2.421   4.134   5.701  0.00  0.00    -0.277 N 
ATOM     28  H   UNL     1       2.244   4.019   6.648  0.00  0.00    +0.155 HD
BRANCH  25  32
ATOM     29  C   UNL     1       4.972   7.787   8.096  0.00  0.00    +0.000 A 
ATOM     30  C   UNL     1       5.049   8.073   6.745  0.00  0.00    +0.001 A 
ATOM     31  C   UNL     1       4.463   7.230   5.824  0.00  0.00    +0.013 A 
ATOM     32  C   UNL     1       3.791   6.086   6.258  0.00  0.00    +0.037 A 
ATOM     33  C   UNL     1       3.712   5.806   7.623  0.00  0.00    +0.013 A 
ATOM     34  C   UNL     1       4.307   6.655   8.533  0.00  0.00    +0.001 A 
ENDBRANCH  25  32
ENDBRANCH   1  27
TORSDOF 6
