REMARK  Name = ZINC27550617
REMARK  10 active torsions:
REMARK  status: ('A' for Active; 'I' for Inactive)
REMARK    1  A    between atoms: C_1  and  C_2
REMARK    2  A    between atoms: C_2  and  C_3
REMARK    3  A    between atoms: C_5  and  C_11
REMARK    4  A    between atoms: C_6  and  S_8
REMARK    5  A    between atoms: S_8  and  C_9
REMARK    6  A    between atoms: C_9  and  C_10
REMARK    7  A    between atoms: C_13  and  C_33
REMARK    8  A    between atoms: C_14  and  N_32
REMARK    9  A    between atoms: N_15  and  C_23
REMARK   10  A    between atoms: C_28  and  N_29
REMARK                            x       y       z     vdW  Elec       q    Type
REMARK                         _______ _______ _______ _____ _____    ______ ____
ROOT
ATOM      1  C   UNL     1      -4.547  -1.621   2.326  0.00  0.00    +0.099 C 
ATOM      2  C   UNL     1      -3.955  -2.735   1.515  0.00  0.00    +0.077 C 
ATOM      3  C   UNL     1      -2.960  -3.514   2.011  0.00  0.00    +0.107 C 
ATOM      4  N   UNL     1      -2.481  -3.293   3.283  0.00  0.00    -0.258 N 
ATOM      5  C   UNL     1      -3.224  -2.592   4.195  0.00  0.00    +0.025 C 
ATOM      6  C   UNL     1      -4.228  -1.785   3.791  0.00  0.00    +0.025 C 
ATOM      7  C   UNL     1      -5.008  -1.075   4.721  0.00  0.00    +0.162 C 
ATOM      8  O   UNL     1      -5.897  -0.350   4.323  0.00  0.00    -0.292 OA
ATOM      9  C   UNL     1      -4.761  -1.197   6.200  0.00  0.00    +0.080 C 
ATOM     10  C   UNL     1      -4.166  -2.579   6.494  0.00  0.00    +0.014 C 
ATOM     11  C   UNL     1      -2.894  -2.747   5.660  0.00  0.00    +0.052 C 
ENDROOT
BRANCH   4  12
ATOM     12  C   UNL     1      -1.224  -3.790   3.646  0.00  0.00    +0.070 A 
ATOM     13  C   UNL     1      -0.091  -3.004   3.484  0.00  0.00    +0.026 A 
ATOM     14  C   UNL     1       1.148  -3.497   3.845  0.00  0.00    +0.002 A 
ATOM     15  C   UNL     1       1.260  -4.773   4.367  0.00  0.00    +0.002 A 
ATOM     16  C   UNL     1       0.134  -5.558   4.529  0.00  0.00    +0.034 A 
ATOM     17  C   UNL     1      -1.108  -5.069   4.176  0.00  0.00    +0.148 A 
BRANCH  17  18
ATOM     18  N   UNL     1      -2.314  -5.909   4.355  0.00  0.00    +0.058 N 
ATOM     19  O   UNL     1      -2.225  -6.992   4.905  0.00  0.00    -0.126 OA
ATOM     20  O   UNL     1      -3.394  -5.516   3.953  0.00  0.00    -0.126 OA
ENDBRANCH  17  18
ENDBRANCH   4  12
BRANCH   1  23
ATOM     21  C   UNL     1      -2.177   1.178   1.557  0.00  0.00    -0.009 A 
ATOM     22  C   UNL     1      -2.646  -0.013   1.998  0.00  0.00    +0.017 A 
ATOM     23  C   UNL     1      -3.989  -0.307   1.843  0.00  0.00    -0.014 A 
ATOM     24  C   UNL     1      -4.796   0.611   1.240  0.00  0.00    +0.049 A 
ATOM     25  S   UNL     1      -3.649   1.932   0.883  0.00  0.00    -0.087 S 
BRANCH  21  27
ATOM     26  C   UNL     1      -0.016   1.316   0.349  0.00  0.00    +0.009 C 
ATOM     27  C   UNL     1      -0.774   1.725   1.614  0.00  0.00    +0.039 C 
ENDBRANCH  21  27
BRANCH  24  28
ATOM     28  S   UNL     1      -6.522   0.518   0.901  0.00  0.00    -0.118 S 
BRANCH  28  29
ATOM     29  C   UNL     1      -6.895   2.097   0.089  0.00  0.00    +0.071 C 
ATOM     30  C   UNL     1      -8.383   2.150  -0.265  0.00  0.00    +0.015 C 
ENDBRANCH  28  29
ENDBRANCH  24  28
ENDBRANCH   1  23
BRANCH   3  31
ATOM     31  N   UNL     1      -2.431  -4.524   1.244  0.00  0.00    -0.345 N 
ATOM     32  H   UNL     1      -1.625  -5.155   1.646  0.00  0.00    +0.144 HD
ATOM     33  H   UNL     1      -2.814  -4.701   0.228  0.00  0.00    +0.144 HD
ENDBRANCH   3  31
BRANCH   2  34
ATOM     34  C   UNL     1      -4.447  -2.983   0.193  0.00  0.00    +0.099 C 
ATOM     35  N   UNL     1      -4.838  -3.179  -0.855  0.00  0.00    -0.191 NA
ENDBRANCH   2  34
TORSDOF 8
