REMARK  Name = ZINC39633790
REMARK  8 active torsions:
REMARK  status: ('A' for Active; 'I' for Inactive)
REMARK    1  A    between atoms: C_1  and  C_2
REMARK    2  A    between atoms: C_2  and  C_3
REMARK    3  A    between atoms: C_2  and  C_4
REMARK    4  A    between atoms: C_4  and  C_6
REMARK    5  A    between atoms: C_4  and  O_29
REMARK    6  A    between atoms: C_10  and  C_19
REMARK    7  A    between atoms: N_21  and  C_22
REMARK    8  A    between atoms: O_29  and  C_30
REMARK                            x       y       z     vdW  Elec       q    Type
REMARK                         _______ _______ _______ _____ _____    ______ ____
ROOT
ATOM      1  C   UNL     1      -1.638  -2.225   1.308  0.00  0.00    +0.257 C 
ATOM      2  O   UNL     1      -1.904  -3.095   0.507  0.00  0.00    -0.272 OA
ATOM      3  N   UNL     1      -1.056  -2.543   2.481  0.00  0.00    -0.297 N 
ATOM      4  C   UNL     1      -0.767  -1.647   3.626  0.00  0.00    +0.121 C 
ATOM      5  C   UNL     1      -1.083  -2.497   4.877  0.00  0.00    +0.100 C 
ATOM      6  C   UNL     1      -0.943  -3.954   4.407  0.00  0.00    -0.004 C 
ATOM      7  C   UNL     1      -0.565  -3.872   2.921  0.00  0.00    +0.115 C 
ATOM      8  C   UNL     1       0.156  -4.660   5.194  0.00  0.00    -0.010 C 
ATOM      9  C   UNL     1       0.237  -6.123   4.750  0.00  0.00    -0.082 C 
ATOM     10  N   UNL     1      -1.056  -6.779   4.981  0.00  0.00    +0.379 N 
ATOM     11  C   UNL     1      -2.090  -6.153   4.148  0.00  0.00    -0.082 C 
ATOM     12  C   UNL     1      -2.269  -4.691   4.567  0.00  0.00    -0.010 C 
ATOM     13  H   UNL     1      -0.982  -7.757   4.744  0.00  0.00    -0.086 HD
ATOM     14  H   UNL     1      -1.308  -6.689   5.953  0.00  0.00    -0.086 HD
ENDROOT
BRANCH   5  15
ATOM     15  C   UNL     1      -2.488  -2.229   5.351  0.00  0.00    +0.218 C 
ATOM     16  O   UNL     1      -3.359  -1.963   4.550  0.00  0.00    -0.275 OA
ATOM     17  N   UNL     1      -2.777  -2.285   6.667  0.00  0.00    -0.312 N 
ATOM     18  H   UNL     1      -2.081  -2.498   7.308  0.00  0.00    +0.149 HD
BRANCH  17  19
ATOM     19  C   UNL     1      -4.143  -2.025   7.128  0.00  0.00    +0.073 C 
ATOM     20  C   UNL     1      -4.356  -0.500   7.225  0.00  0.00    +0.022 C 
ATOM     21  C   UNL     1      -5.834  -0.221   7.191  0.00  0.00    +0.002 C 
ATOM     22  C   UNL     1      -6.445  -0.107   8.601  0.00  0.00    +0.000 C 
ATOM     23  C   UNL     1      -5.904  -1.172   9.574  0.00  0.00    +0.000 C 
ATOM     24  C   UNL     1      -5.784  -2.529   8.934  0.00  0.00    +0.002 C 
ATOM     25  C   UNL     1      -4.345  -2.695   8.404  0.00  0.00    +0.022 C 
ENDBRANCH  17  19
ENDBRANCH   5  15
BRANCH   1  26
ATOM     26  C   UNL     1      -1.959  -0.786   0.993  0.00  0.00    +0.261 C 
BRANCH  26  28
ATOM     27  C   UNL     1      -1.021   1.379   0.173  0.00  0.00    +0.011 C 
ATOM     28  C   UNL     1      -0.711  -0.095   0.439  0.00  0.00    +0.033 C 
ATOM     29  C   UNL     1       0.425  -0.202   1.458  0.00  0.00    +0.011 C 
ENDBRANCH  26  28
BRANCH  26  30
ATOM     30  O   UNL     1      -3.004  -0.734   0.020  0.00  0.00    -0.479 OA
BRANCH  30  31
ATOM     31  C   UNL     1      -3.973   0.200   0.205  0.00  0.00    +0.122 A 
ATOM     32  C   UNL     1      -5.083   0.225  -0.628  0.00  0.00    +0.045 A 
ATOM     33  C   UNL     1      -6.067   1.176  -0.437  0.00  0.00    +0.004 A 
ATOM     34  C   UNL     1      -5.947   2.102   0.582  0.00  0.00    +0.000 A 
ATOM     35  C   UNL     1      -4.842   2.080   1.413  0.00  0.00    +0.004 A 
ATOM     36  C   UNL     1      -3.858   1.128   1.230  0.00  0.00    +0.045 A 
ENDBRANCH  30  31
ENDBRANCH  26  30
ENDBRANCH   1  26
TORSDOF 6
