REMARK  Name = ZINC12653949
REMARK  8 active torsions:
REMARK  status: ('A' for Active; 'I' for Inactive)
REMARK    1  A    between atoms: C_1  and  C_2
REMARK    2  A    between atoms: C_5  and  O_33
REMARK    3  A    between atoms: C_17  and  C_32
REMARK    4  A    between atoms: C_22  and  C_23
REMARK    5  A    between atoms: C_22  and  O_31
REMARK    6  A    between atoms: C_23  and  S_24
REMARK    7  A    between atoms: S_24  and  C_25
REMARK    8  A    between atoms: N_29  and  C_30
REMARK                            x       y       z     vdW  Elec       q    Type
REMARK                         _______ _______ _______ _____ _____    ______ ____
ROOT
ATOM      1  C   UNL     1       1.817   1.028  -2.748  0.00  0.00    +0.016 C 
ATOM      2  C   UNL     1       1.976   0.087  -1.546  0.00  0.00    -0.008 C 
ATOM      3  C   UNL     1       0.626  -0.569  -1.274  0.00  0.00    +0.014 C 
ATOM      4  C   UNL     1       0.002  -0.004   0.002  0.00  0.00    +0.032 C 
ATOM      5  C   UNL     1      -0.019   1.519   0.010  0.00  0.00    +0.119 C 
ATOM      6  C   UNL     1       1.412   2.071  -0.000  0.00  0.00    +0.062 C 
ATOM      7  C   UNL     1       2.344   0.923  -0.350  0.00  0.00    -0.065 C 
ATOM      8  C   UNL     1       3.386   0.706   0.387  0.00  0.00    -0.027 C 
ATOM      9  C   UNL     1       4.352  -0.412   0.146  0.00  0.00    +0.031 C 
ATOM     10  C   UNL     1       3.672  -1.539  -0.651  0.00  0.00    +0.000 C 
ATOM     11  C   UNL     1       3.051  -0.931  -1.906  0.00  0.00    +0.003 C 
ATOM     12  C   UNL     1       2.433  -2.044  -2.756  0.00  0.00    +0.005 C 
ATOM     13  C   UNL     1       3.493  -3.057  -3.159  0.00  0.00    +0.010 C 
ATOM     14  C   UNL     1       4.305  -3.609  -2.018  0.00  0.00    +0.001 C 
ATOM     15  C   UNL     1       4.764  -2.548  -1.011  0.00  0.00    +0.001 C 
ATOM     16  C   UNL     1       5.051  -3.374   0.275  0.00  0.00    +0.007 C 
ATOM     17  C   UNL     1       3.946  -4.452   0.267  0.00  0.00    +0.036 C 
ATOM     18  C   UNL     1       3.667  -4.747  -1.224  0.00  0.00    +0.081 C 
ATOM     19  C   UNL     1       5.594  -4.192  -2.655  0.00  0.00    +0.014 C 
ENDROOT
BRANCH  18  20
ATOM     20  O   UNL     1       4.307  -5.987  -1.576  0.00  0.00    -0.387 OA
ATOM     21  H   UNL     1       3.954  -6.758  -1.111  0.00  0.00    +0.210 HD
ENDBRANCH  18  20
BRANCH   5  22
ATOM     22  O   UNL     1      -0.735   2.003  -1.126  0.00  0.00    -0.391 OA
ATOM     23  H   UNL     1      -0.784   2.968  -1.179  0.00  0.00    +0.210 HD
ENDBRANCH   5  22
BRANCH  18  24
ATOM     24  C   UNL     1       2.166  -4.882  -1.454  0.00  0.00    +0.112 C 
BRANCH  24  25
ATOM     25  S   UNL     1       1.500  -6.159  -0.357  0.00  0.00    -0.085 S 
BRANCH  25  26
ATOM     26  C   UNL     1      -0.199  -6.104  -0.821  0.00  0.00    +0.169 A 
ATOM     27  N   UNL     1      -0.724  -5.309  -1.723  0.00  0.00    -0.230 NA
ATOM     28  C   UNL     1      -2.043  -5.549  -1.814  0.00  0.00    +0.131 A 
ATOM     29  C   UNL     1      -2.358  -6.516  -0.936  0.00  0.00    +0.107 A 
ATOM     30  N   UNL     1      -1.192  -6.877  -0.300  0.00  0.00    -0.329 N 
ATOM     31  C   UNL     1      -1.047  -7.897   0.742  0.00  0.00    +0.151 C 
ENDBRANCH  25  26
ENDBRANCH  24  25
ENDBRANCH  18  24
TORSDOF 5
