REMARK  Name = ZINC31809045
REMARK  6 active torsions:
REMARK  status: ('A' for Active; 'I' for Inactive)
REMARK    1  A    between atoms: C_1  and  C_2
REMARK    2  A    between atoms: C_10  and  O_18
REMARK    3  A    between atoms: N_21  and  C_22
REMARK    4  A    between atoms: C_22  and  C_23
REMARK    5  A    between atoms: C_23  and  C_24
REMARK    6  A    between atoms: C_23  and  C_25
REMARK                            x       y       z     vdW  Elec       q    Type
REMARK                         _______ _______ _______ _____ _____    ______ ____
ROOT
ATOM      1  C   UNL     1      -0.018   1.503   0.010  0.00  0.00    +0.044 C 
ATOM      2  C   UNL     1       0.002  -0.004   0.002  0.00  0.00    -0.050 A 
ATOM      3  C   UNL     1       0.005  -0.673  -1.205  0.00  0.00    +0.005 A 
ATOM      4  C   UNL     1       0.024  -2.057  -1.277  0.00  0.00    +0.024 A 
ATOM      5  C   UNL     1       0.040  -2.759  -0.071  0.00  0.00    +0.041 A 
ATOM      6  C   UNL     1       0.036  -2.068   1.148  0.00  0.00    -0.006 A 
ATOM      7  C   UNL     1       0.023  -0.691   1.211  0.00  0.00    +0.010 A 
ATOM      8  C   UNL     1       0.058  -3.111   2.218  0.00  0.00    +0.112 C 
ATOM      9  C   UNL     1      -1.183  -3.023   3.105  0.00  0.00    +0.121 C 
ATOM     10  C   UNL     1      -1.028  -1.966   4.162  0.00  0.00    +0.191 C 
ATOM     11  N   UNL     1       0.111  -1.655   4.704  0.00  0.00    -0.198 NA
ATOM     12  C   UNL     1       1.250  -2.270   4.275  0.00  0.00    +0.156 A 
ATOM     13  C   UNL     1       1.280  -2.985   3.082  0.00  0.00    +0.036 A 
ATOM     14  C   UNL     1       2.559  -3.483   2.920  0.00  0.00    +0.141 A 
ATOM     15  N   UNL     1       3.289  -3.095   3.941  0.00  0.00    -0.180 NA
ATOM     16  N   UNL     1       2.491  -2.324   4.801  0.00  0.00    -0.260 N 
ATOM     17  H   UNL     1       2.781  -1.904   5.626  0.00  0.00    +0.191 HD
ATOM     18  C   UNL     1       0.074  -4.424   1.467  0.00  0.00    +0.235 C 
ATOM     19  O   UNL     1       0.093  -5.534   1.955  0.00  0.00    -0.274 OA
ATOM     20  N   UNL     1       0.061  -4.125   0.151  0.00  0.00    -0.270 N 
ENDROOT
BRANCH  10  21
ATOM     21  O   UNL     1      -2.131  -1.306   4.570  0.00  0.00    -0.495 OA
ATOM     22  H   UNL     1      -1.961  -0.641   5.251  0.00  0.00    +0.293 HD
ENDBRANCH  10  21
BRANCH  20  23
ATOM     23  C   UNL     1       0.069  -5.128  -0.917  0.00  0.00    +0.116 C 
BRANCH  23  24
ATOM     24  C   UNL     1       1.514  -5.456  -1.298  0.00  0.00    +0.001 C 
ATOM     25  C   UNL     1       1.526  -6.592  -2.323  0.00  0.00    +0.009 C 
ATOM     26  C   UNL     1       2.176  -4.216  -1.902  0.00  0.00    +0.009 C 
ENDBRANCH  23  24
ENDBRANCH  20  23
TORSDOF 3
