REMARK  Name = ZINC39710225
REMARK  11 active torsions:
REMARK  status: ('A' for Active; 'I' for Inactive)
REMARK    1  A    between atoms: C_1  and  C_2
REMARK    2  A    between atoms: C_9  and  C_14
REMARK    3  A    between atoms: C_14  and  C_16
REMARK    4  A    between atoms: C_14  and  N_26
REMARK    5  A    between atoms: N_21  and  C_22
REMARK    6  A    between atoms: C_22  and  C_23
REMARK    7  A    between atoms: C_22  and  C_24
REMARK    8  A    between atoms: C_22  and  C_25
REMARK    9  A    between atoms: N_29  and  C_32
REMARK   10  A    between atoms: C_34  and  C_39
REMARK   11  A    between atoms: C_37  and  C_38
REMARK                            x       y       z     vdW  Elec       q    Type
REMARK                         _______ _______ _______ _____ _____    ______ ____
ROOT
ATOM      1  C   UNL     1       1.303  -4.858   2.852  0.00  0.00    -0.009 C 
ENDROOT
BRANCH   1  10
ATOM      2  C   UNL     1       0.694   1.908   0.648  0.00  0.00    +0.044 C 
ATOM      3  C   UNL     1       0.456   0.425   0.523  0.00  0.00    -0.050 A 
ATOM      4  C   UNL     1       0.182  -0.119  -0.732  0.00  0.00    +0.005 A 
ATOM      5  C   UNL     1      -0.042  -1.446  -0.923  0.00  0.00    +0.024 A 
ATOM      6  C   UNL     1      -0.006  -2.340   0.163  0.00  0.00    +0.040 A 
ATOM      7  N   UNL     1      -0.227  -3.639  -0.035  0.00  0.00    -0.285 N 
ATOM      8  C   UNL     1      -0.208  -4.532   0.940  0.00  0.00    +0.223 C 
ATOM      9  O   UNL     1      -0.417  -5.705   0.697  0.00  0.00    -0.275 OA
ATOM     10  C   UNL     1       0.076  -4.089   2.357  0.00  0.00    +0.088 C 
ATOM     11  C   UNL     1       0.329  -2.612   2.588  0.00  0.00    -0.006 C 
ATOM     12  C   UNL     1       0.282  -1.792   1.500  0.00  0.00    -0.007 A 
ATOM     13  C   UNL     1       0.519  -0.354   1.633  0.00  0.00    +0.012 A 
ATOM     14  H   UNL     1      -0.411  -3.943  -0.938  0.00  0.00    +0.155 HD
ENDBRANCH   1  10
BRANCH   1  15
ATOM     15  N   UNL     1       1.033  -6.301   2.793  0.00  0.00    +0.387 N 
ATOM     16  C   UNL     1       2.111  -7.027   3.477  0.00  0.00    -0.059 C 
ATOM     17  C   UNL     1       1.891  -8.535   3.317  0.00  0.00    +0.086 C 
ATOM     18  N   UNL     1       0.540  -8.862   3.797  0.00  0.00    -0.333 N 
ATOM     19  C   UNL     1      -0.589  -8.070   3.284  0.00  0.00    +0.086 C 
ATOM     20  C   UNL     1      -0.252  -6.584   3.446  0.00  0.00    -0.059 C 
ATOM     21  H   UNL     1       0.992  -6.595   1.829  0.00  0.00    -0.081 HD
BRANCH  18  22
ATOM     22  C   UNL     1       0.334  -9.896   4.713  0.00  0.00    +0.033 A 
ATOM     23  C   UNL     1       0.359  -9.633   6.077  0.00  0.00    +0.026 A 
ATOM     24  C   UNL     1       0.155 -10.658   6.980  0.00  0.00    -0.049 A 
ATOM     25  C   UNL     1      -0.075 -11.945   6.528  0.00  0.00    +0.004 A 
ATOM     26  C   UNL     1      -0.100 -12.210   5.171  0.00  0.00    +0.005 A 
ATOM     27  C   UNL     1       0.097 -11.188   4.262  0.00  0.00    -0.029 A 
ATOM     28  C   UNL     1       0.063 -11.477   2.784  0.00  0.00    +0.045 C 
ATOM     29  C   UNL     1       0.182 -10.374   8.460  0.00  0.00    +0.044 C 
ENDBRANCH  18  22
ENDBRANCH   1  15
BRANCH   1  30
ATOM     30  C   UNL     1       2.505  -4.527   1.965  0.00  0.00    +0.205 C 
ATOM     31  N   UNL     1       2.365  -5.171   0.651  0.00  0.00    -0.152 NA
ATOM     32  N   UNL     1       3.305  -5.951   0.487  0.00  0.00    -0.070 NA
ATOM     33  N   UNL     1       4.183  -5.977   1.570  0.00  0.00    -0.179 N 
ATOM     34  N   UNL     1       3.740  -5.105   2.534  0.00  0.00    -0.183 NA
ATOM     35  H   UNL     1       4.981  -6.525   1.633  0.00  0.00    +0.191 HD
BRANCH  34  36
ATOM     36  C   UNL     1       4.737  -4.058   2.798  0.00  0.00    +0.035 C 
ATOM     37  C   UNL     1       4.155  -3.033   3.773  0.00  0.00    +0.029 C 
ATOM     38  C   UNL     1       5.989  -4.690   3.410  0.00  0.00    +0.029 C 
ATOM     39  C   UNL     1       5.106  -3.362   1.486  0.00  0.00    +0.029 C 
ENDBRANCH  34  36
ENDBRANCH   1  30
TORSDOF 5
