REMARK  Name = ZINC13095781
REMARK  7 active torsions:
REMARK  status: ('A' for Active; 'I' for Inactive)
REMARK    1  A    between atoms: C_1  and  N_2
REMARK    2  A    between atoms: C_6  and  C_8
REMARK    3  A    between atoms: C_8  and  C_10
REMARK    4  A    between atoms: C_8  and  S_16
REMARK    5  A    between atoms: S_16  and  C_17
REMARK    6  A    between atoms: C_19  and  C_29
REMARK    7  A    between atoms: C_20  and  C_23
REMARK                            x       y       z     vdW  Elec       q    Type
REMARK                         _______ _______ _______ _____ _____    ______ ____
ROOT
ATOM      1  C   UNL     1       1.708   2.135  -0.003  0.00  0.00    +0.211 A 
ATOM      2  N   UNL     1       2.134   3.392  -0.005  0.00  0.00    -0.218 NA
ATOM      3  C   UNL     1       3.442   3.640  -0.011  0.00  0.00    +0.102 A 
ATOM      4  C   UNL     1       4.333   2.549  -0.026  0.00  0.00    +0.119 A 
ATOM      5  N   UNL     1       3.839   1.315  -0.028  0.00  0.00    -0.145 NA
ATOM      6  N   UNL     1       2.567   1.122  -0.016  0.00  0.00    -0.122 NA
ENDROOT
BRANCH   4   7
ATOM      7  C   UNL     1       5.797   2.773  -0.039  0.00  0.00    +0.004 A 
ATOM      8  C   UNL     1       6.333   3.856  -0.735  0.00  0.00    +0.010 A 
ATOM      9  C   UNL     1       7.697   4.064  -0.738  0.00  0.00    +0.001 A 
ATOM     10  C   UNL     1       8.534   3.192  -0.063  0.00  0.00    +0.000 A 
ATOM     11  C   UNL     1       8.009   2.113   0.624  0.00  0.00    +0.001 A 
ATOM     12  C   UNL     1       6.646   1.899   0.640  0.00  0.00    +0.010 A 
ENDBRANCH   4   7
BRANCH   3  13
ATOM     13  C   UNL     1       3.949   5.032  -0.009  0.00  0.00    +0.003 A 
ATOM     14  C   UNL     1       5.120   5.349   0.678  0.00  0.00    +0.010 A 
ATOM     15  C   UNL     1       5.590   6.646   0.672  0.00  0.00    +0.001 A 
ATOM     16  C   UNL     1       4.896   7.634  -0.004  0.00  0.00    +0.000 A 
ATOM     17  C   UNL     1       3.730   7.326  -0.683  0.00  0.00    +0.001 A 
ATOM     18  C   UNL     1       3.253   6.032  -0.689  0.00  0.00    +0.010 A 
ENDBRANCH   3  13
BRANCH   1  19
ATOM     19  S   UNL     1      -0.022   1.806   0.012  0.00  0.00    -0.067 S 
BRANCH  19  20
ATOM     20  C   UNL     1       0.002  -0.004   0.002  0.00  0.00    +0.170 C 
BRANCH  20  26
ATOM     21  C   UNL     1      -4.466  -3.957   1.411  0.00  0.00    +0.129 C 
ATOM     22  N   UNL     1      -3.098  -3.449   1.280  0.00  0.00    -0.302 N 
ATOM     23  C   UNL     1      -2.881  -2.221   0.768  0.00  0.00    +0.306 C 
ATOM     24  O   UNL     1      -3.820  -1.535   0.415  0.00  0.00    -0.252 OA
ATOM     25  N   UNL     1      -1.622  -1.754   0.648  0.00  0.00    -0.239 N 
ATOM     26  C   UNL     1      -1.405  -0.526   0.137  0.00  0.00    +0.238 C 
ATOM     27  O   UNL     1      -2.342   0.158  -0.215  0.00  0.00    -0.274 OA
ATOM     28  H   UNL     1      -2.348  -3.997   1.562  0.00  0.00    +0.150 HD
ATOM     29  H   UNL     1      -0.873  -2.302   0.930  0.00  0.00    +0.159 HD
ENDBRANCH  20  26
BRANCH  20  30
ATOM     30  C   UNL     1       0.597  -0.491  -1.294  0.00  0.00    -0.025 A 
ATOM     31  C   UNL     1      -0.002  -0.163  -2.496  0.00  0.00    +0.005 A 
ATOM     32  C   UNL     1       0.546  -0.607  -3.685  0.00  0.00    +0.000 A 
ATOM     33  C   UNL     1       1.688  -1.385  -3.672  0.00  0.00    +0.000 A 
ATOM     34  C   UNL     1       2.284  -1.718  -2.470  0.00  0.00    +0.000 A 
ATOM     35  C   UNL     1       1.739  -1.271  -1.281  0.00  0.00    +0.005 A 
ENDBRANCH  20  30
ENDBRANCH  19  20
ENDBRANCH   1  19
TORSDOF 6
