REMARK  Name = ZINC64773001
REMARK  6 active torsions:
REMARK  status: ('A' for Active; 'I' for Inactive)
REMARK    1  A    between atoms: C_5  and  C_7
REMARK    2  A    between atoms: C_7  and  S_8
REMARK    3  A    between atoms: S_8  and  C_9
REMARK    4  A    between atoms: C_15  and  C_23
REMARK    5  A    between atoms: C_26  and  O_30
REMARK    6  A    between atoms: C_27  and  O_29
REMARK                            x       y       z     vdW  Elec       q    Type
REMARK                         _______ _______ _______ _____ _____    ______ ____
ROOT
ATOM      1  C   UNL     1       1.276  -4.553   1.507  0.00  0.00    +0.182 C 
ATOM      2  N   UNL     1       1.275  -5.040   0.278  0.00  0.00    -0.154 NA
ATOM      3  C   UNL     1       1.357  -6.350   0.033  0.00  0.00    +0.249 C 
ATOM      4  O   UNL     1       1.330  -6.790  -1.099  0.00  0.00    -0.273 OA
ATOM      5  C   UNL     1       1.487  -7.260   1.237  0.00  0.00    +0.148 C 
ATOM      6  C   UNL     1       0.364  -8.297   1.177  0.00  0.00    +0.047 C 
ATOM      7  C   UNL     1       0.586  -9.324   2.290  0.00  0.00    +0.105 C 
ATOM      8  C   UNL     1       0.842  -8.645   3.605  0.00  0.00    +0.219 C 
ATOM      9  O   UNL     1       0.692  -9.283   4.625  0.00  0.00    -0.275 OA
ATOM     10  N   UNL     1       1.230  -7.363   3.701  0.00  0.00    -0.273 N 
ATOM     11  C   UNL     1       1.369  -6.586   2.592  0.00  0.00    +0.117 C 
ATOM     12  N   UNL     1       1.297  -5.286   2.626  0.00  0.00    -0.212 NA
ATOM     13  H   UNL     1       1.428  -6.986   4.573  0.00  0.00    +0.156 HD
ENDROOT
BRANCH   6  14
ATOM     14  C   UNL     1       0.384  -8.987  -0.163  0.00  0.00    -0.039 A 
ATOM     15  C   UNL     1       1.504  -9.693  -0.559  0.00  0.00    +0.008 A 
ATOM     16  C   UNL     1       1.527 -10.327  -1.787  0.00  0.00    +0.049 A 
ATOM     17  C   UNL     1       0.425 -10.256  -2.624  0.00  0.00    +0.158 A 
ATOM     18  C   UNL     1      -0.703  -9.546  -2.226  0.00  0.00    +0.158 A 
ATOM     19  C   UNL     1      -0.721  -8.916  -0.991  0.00  0.00    +0.053 A 
BRANCH  18  20
ATOM     20  O   UNL     1      -1.786  -9.473  -3.044  0.00  0.00    -0.503 OA
ATOM     21  H   UNL     1      -2.429 -10.183  -2.909  0.00  0.00    +0.292 HD
ENDBRANCH  18  20
BRANCH  17  22
ATOM     22  O   UNL     1       0.447 -10.879  -3.833  0.00  0.00    -0.503 OA
ATOM     23  H   UNL     1       0.124 -11.790  -3.811  0.00  0.00    +0.292 HD
ENDBRANCH  17  22
ENDBRANCH   6  14
BRANCH   1  24
ATOM     24  S   UNL     1       1.254  -2.800   1.685  0.00  0.00    -0.084 S 
BRANCH  24  25
ATOM     25  C   UNL     1       1.229  -2.186  -0.022  0.00  0.00    +0.113 C 
BRANCH  25  30
ATOM     26  C   UNL     1      -0.017   1.378   0.010  0.00  0.00    +0.000 A 
ATOM     27  C   UNL     1       1.171   2.086   0.002  0.00  0.00    +0.001 A 
ATOM     28  C   UNL     1       2.377   1.412  -0.013  0.00  0.00    +0.020 A 
ATOM     29  C   UNL     1       2.397   0.029  -0.021  0.00  0.00    +0.045 A 
ATOM     30  C   UNL     1       1.208  -0.679  -0.013  0.00  0.00    -0.019 A 
ATOM     31  C   UNL     1       0.002  -0.004   0.002  0.00  0.00    +0.006 A 
ATOM     32 CL   UNL     1       3.912  -0.818  -0.041  0.00  0.00    -0.083 Cl
ENDBRANCH  25  30
ENDBRANCH  24  25
ENDBRANCH   1  24
TORSDOF 6
