REMARK  Name = ZINC04232155
REMARK  7 active torsions:
REMARK  status: ('A' for Active; 'I' for Inactive)
REMARK    1  A    between atoms: C_3  and  N_20
REMARK    2  A    between atoms: C_6  and  C_7
REMARK    3  A    between atoms: N_9  and  N_10
REMARK    4  A    between atoms: C_11  and  C_12
REMARK    5  A    between atoms: C_17  and  O_18
REMARK    6  A    between atoms: N_20  and  S_21
REMARK    7  A    between atoms: S_21  and  C_24
REMARK                            x       y       z     vdW  Elec       q    Type
REMARK                         _______ _______ _______ _____ _____    ______ ____
ROOT
ATOM      1  C   UNL     1       3.456  -3.164  -4.349  0.00  0.00    +0.015 A 
ATOM      2  C   UNL     1       2.465  -3.472  -3.445  0.00  0.00    +0.025 A 
ATOM      3  C   UNL     1       2.113  -2.556  -2.457  0.00  0.00    +0.048 A 
ATOM      4  C   UNL     1       2.758  -1.325  -2.384  0.00  0.00    +0.025 A 
ATOM      5  C   UNL     1       3.753  -1.013  -3.281  0.00  0.00    +0.015 A 
ATOM      6  C   UNL     1       4.109  -1.931  -4.275  0.00  0.00    +0.038 A 
ENDROOT
BRANCH   6   7
ATOM      7  C   UNL     1       5.172  -1.598  -5.242  0.00  0.00    +0.263 C 
ATOM      8  O   UNL     1       5.481  -2.397  -6.105  0.00  0.00    -0.268 OA
ATOM      9  N   UNL     1       5.801  -0.408  -5.169  0.00  0.00    -0.203 N 
ATOM     10  H   UNL     1       5.554   0.229  -4.481  0.00  0.00    +0.178 HD
BRANCH   9  11
ATOM     11  N   UNL     1       6.810  -0.092  -6.088  0.00  0.00    -0.187 NA
ATOM     12  C   UNL     1       7.416   1.054  -6.018  0.00  0.00    +0.142 C 
BRANCH  12  13
ATOM     13  C   UNL     1       8.478   1.386  -6.984  0.00  0.00    +0.037 A 
ATOM     14  C   UNL     1       9.132   2.618  -6.912  0.00  0.00    +0.028 A 
ATOM     15  C   UNL     1      10.125   2.923  -7.820  0.00  0.00    +0.019 A 
ATOM     16  C   UNL     1      10.476   2.012  -8.803  0.00  0.00    +0.019 A 
ATOM     17  C   UNL     1       9.836   0.790  -8.884  0.00  0.00    +0.047 A 
ATOM     18  C   UNL     1       8.841   0.466  -7.976  0.00  0.00    +0.126 A 
ATOM     19 BR   UNL     1      11.011   4.591  -7.723  0.00  0.00    -0.050 Br
BRANCH  18  20
ATOM     20  O   UNL     1       8.215  -0.738  -8.052  0.00  0.00    -0.506 OA
ATOM     21  H   UNL     1       7.430  -0.738  -8.617  0.00  0.00    +0.292 HD
ENDBRANCH  18  20
ENDBRANCH  12  13
ENDBRANCH   9  11
ENDBRANCH   6   7
BRANCH   3  22
ATOM     22  N   UNL     1       1.111  -2.870  -1.545  0.00  0.00    -0.216 N 
ATOM     23  H   UNL     1       0.238  -2.453  -1.621  0.00  0.00    +0.174 HD
BRANCH  22  24
ATOM     24  S   UNL     1       1.408  -3.954  -0.329  0.00  0.00    +0.072 S 
ATOM     25  O   UNL     1       1.972  -5.106  -0.941  0.00  0.00    -0.150 OA
ATOM     26  O   UNL     1       0.228  -4.012   0.461  0.00  0.00    -0.150 OA
BRANCH  24  27
ATOM     27  C   UNL     1       2.665  -3.261   0.693  0.00  0.00    +0.109 A 
ATOM     28  C   UNL     1       2.326  -2.375   1.699  0.00  0.00    +0.030 A 
ATOM     29  C   UNL     1       3.312  -1.831   2.501  0.00  0.00    +0.022 A 
ATOM     30  C   UNL     1       4.637  -2.172   2.296  0.00  0.00    +0.041 A 
ATOM     31  C   UNL     1       4.975  -3.058   1.288  0.00  0.00    +0.022 A 
ATOM     32  C   UNL     1       3.989  -3.602   0.487  0.00  0.00    +0.030 A 
ATOM     33 CL   UNL     1       5.875  -1.489   3.303  0.00  0.00    -0.084 Cl
ENDBRANCH  24  27
ENDBRANCH  22  24
ENDBRANCH   3  22
TORSDOF 7
