REMARK  Name = ZINC12331972
REMARK  10 active torsions:
REMARK  status: ('A' for Active; 'I' for Inactive)
REMARK    1  A    between atoms: C_1  and  C_2
REMARK    2  A    between atoms: C_11  and  C_12
REMARK    3  A    between atoms: N_14  and  C_15
REMARK    4  A    between atoms: C_18  and  C_30
REMARK    5  A    between atoms: C_21  and  C_22
REMARK    6  A    between atoms: C_21  and  N_58
REMARK    7  A    between atoms: C_25  and  S_28
REMARK    8  A    between atoms: S_28  and  C_29
REMARK    9  A    between atoms: C_30  and  O_32
REMARK   10  A    between atoms: O_32  and  C_33
REMARK                            x       y       z     vdW  Elec       q    Type
REMARK                         _______ _______ _______ _____ _____    ______ ____
ROOT
ATOM      1  C   UNL     1      -0.019   1.542   0.011  0.00  0.00    +0.056 C 
ATOM      2  C   UNL     1       0.002  -0.004   0.002  0.00  0.00    +0.016 C 
ATOM      3  C   UNL     1       1.381  -0.385  -0.569  0.00  0.00    +0.045 C 
ATOM      4  C   UNL     1       1.486   1.909  -0.002  0.00  0.00    -0.055 C 
ATOM      5  N   UNL     1       2.054   0.881  -0.883  0.00  0.00    +0.392 N 
ATOM      6  H   UNL     1       1.882   1.132  -1.863  0.00  0.00    -0.080 HD
ENDROOT
BRANCH   1   9
ATOM      7  C   UNL     1      -1.238   3.265   1.228  0.00  0.00    +0.261 C 
ATOM      8  O   UNL     1      -1.217   3.949   0.222  0.00  0.00    -0.269 OA
ATOM      9  N   UNL     1      -0.665   2.045   1.225  0.00  0.00    -0.309 N 
ATOM     10  H   UNL     1      -0.681   1.500   2.027  0.00  0.00    +0.149 HD
BRANCH   7  21
ATOM     11  C   UNL     1      -2.620   6.026   1.498  0.00  0.00    +0.047 C 
ATOM     12  C   UNL     1      -2.494   4.978   2.573  0.00  0.00    -0.013 A 
ATOM     13  C   UNL     1      -2.989   5.076   3.897  0.00  0.00    +0.005 A 
ATOM     14  C   UNL     1      -3.690   6.072   4.590  0.00  0.00    +0.030 A 
ATOM     15  C   UNL     1      -4.039   5.872   5.895  0.00  0.00    +0.042 A 
ATOM     16  C   UNL     1      -3.704   4.689   6.544  0.00  0.00    +0.022 A 
ATOM     17  C   UNL     1      -3.016   3.697   5.883  0.00  0.00    +0.027 A 
ATOM     18  C   UNL     1      -2.649   3.877   4.552  0.00  0.00    +0.047 A 
ATOM     19  N   UNL     1      -1.979   3.089   3.646  0.00  0.00    -0.350 N 
ATOM     20  H   UNL     1      -1.628   2.202   3.820  0.00  0.00    +0.166 HD
ATOM     21  C   UNL     1      -1.886   3.770   2.447  0.00  0.00    +0.106 A 
ATOM     22 CL   UNL     1      -4.908   7.107   6.752  0.00  0.00    -0.084 Cl
ENDBRANCH   7  21
ENDBRANCH   1   9
BRANCH   3  23
ATOM     23  C   UNL     1       1.209  -1.210  -1.818  0.00  0.00    +0.293 C 
ATOM     24  O   UNL     1       1.639  -0.806  -2.873  0.00  0.00    -0.253 OA
BRANCH  23  25
ATOM     25  O   UNL     1       0.579  -2.394  -1.759  0.00  0.00    -0.469 OA
ATOM     26  C   UNL     1       0.450  -3.134  -3.001  0.00  0.00    +0.280 C 
ENDBRANCH  23  25
ENDBRANCH   3  23
BRANCH   5  27
ATOM     27  C   UNL     1       3.526   0.753  -0.661  0.00  0.00    -0.042 C 
BRANCH  27  28
ATOM     28  C   UNL     1       4.170   2.112  -0.761  0.00  0.00    -0.064 A 
ATOM     29  C   UNL     1       4.642   2.563  -1.980  0.00  0.00    +0.003 A 
ATOM     30  C   UNL     1       5.229   3.810  -2.076  0.00  0.00    +0.015 A 
ATOM     31  C   UNL     1       5.353   4.607  -0.944  0.00  0.00    +0.008 A 
ATOM     32  C   UNL     1       4.881   4.147   0.280  0.00  0.00    +0.015 A 
ATOM     33  C   UNL     1       4.292   2.902   0.368  0.00  0.00    +0.003 A 
BRANCH  31  34
ATOM     34  S   UNL     1       6.107   6.195  -1.060  0.00  0.00    -0.129 S 
ATOM     35  C   UNL     1       6.548   6.344  -2.813  0.00  0.00    +0.090 C 
ENDBRANCH  31  34
ENDBRANCH  27  28
ENDBRANCH   5  27
TORSDOF 7
