REMARK  Name = ZINC66425167
REMARK  5 active torsions:
REMARK  status: ('A' for Active; 'I' for Inactive)
REMARK    1  A    between atoms: C_1  and  N_2
REMARK    2  A    between atoms: C_3  and  C_5
REMARK    3  A    between atoms: N_10  and  C_11
REMARK    4  A    between atoms: C_11  and  C_12
REMARK    5  A    between atoms: C_15  and  C_17
REMARK                            x       y       z     vdW  Elec       q    Type
REMARK                         _______ _______ _______ _____ _____    ______ ____
ROOT
ATOM      1  C   UNL     1       1.253  -3.112  -4.600  0.00  0.00    +0.202 A 
ATOM      2  N   UNL     1       1.439  -4.327  -5.033  0.00  0.00    -0.114 NA
ATOM      3  N   UNL     1       2.165  -4.300  -6.095  0.00  0.00    -0.107 NA
ATOM      4  C   UNL     1       2.471  -3.055  -6.378  0.00  0.00    +0.250 A 
ATOM      5  O   UNL     1       1.894  -2.279  -5.439  0.00  0.00    -0.422 OA
ENDROOT
BRANCH   4   6
ATOM      6  C   UNL     1       3.290  -2.590  -7.517  0.00  0.00    +0.057 A 
ATOM      7  C   UNL     1       3.540  -1.228  -7.691  0.00  0.00    +0.016 A 
ATOM      8  C   UNL     1       4.305  -0.800  -8.756  0.00  0.00    +0.021 A 
ATOM      9  C   UNL     1       4.825  -1.719  -9.652  0.00  0.00    +0.042 A 
ATOM     10  C   UNL     1       4.582  -3.072  -9.486  0.00  0.00    +0.040 A 
ATOM     11  C   UNL     1       3.822  -3.513  -8.420  0.00  0.00    +0.055 A 
ATOM     12 CL   UNL     1       3.523  -5.210  -8.208  0.00  0.00    -0.083 Cl
ATOM     13 CL   UNL     1       5.787  -1.172 -10.990  0.00  0.00    -0.083 Cl
ENDBRANCH   4   6
BRANCH   1  14
ATOM     14  C   UNL     1       0.459  -2.713  -3.383  0.00  0.00    +0.022 C 
BRANCH  14  19
ATOM     15  C   UNL     1       0.606  -2.171  -1.026  0.00  0.00    +0.020 C 
ATOM     16  C   UNL     1       1.429  -2.714   0.169  0.00  0.00    -0.008 C 
ATOM     17  C   UNL     1       1.866  -4.114  -0.320  0.00  0.00    -0.020 C 
ATOM     18  C   UNL     1       1.780  -4.049  -1.856  0.00  0.00    -0.077 C 
ATOM     19  N   UNL     1       1.344  -2.679  -2.211  0.00  0.00    +0.393 N 
ATOM     20  H   UNL     1       2.147  -2.097  -2.396  0.00  0.00    -0.080 HD
BRANCH  15  23
ATOM     21  C   UNL     1      -0.018   1.461   0.010  0.00  0.00    +0.128 C 
ATOM     22  N   UNL     1       0.002  -0.004   0.002  0.00  0.00    -0.320 N 
ATOM     23  C   UNL     1       0.585  -0.664  -1.018  0.00  0.00    +0.199 C 
ATOM     24  O   UNL     1       1.093  -0.046  -1.929  0.00  0.00    -0.278 OA
ATOM     25  H   UNL     1      -0.404  -0.499   0.731  0.00  0.00    +0.148 HD
ENDBRANCH  15  23
ENDBRANCH  14  19
ENDBRANCH   1  14
TORSDOF 4
