REMARK  Name = ZINC38894195
REMARK  7 active torsions:
REMARK  status: ('A' for Active; 'I' for Inactive)
REMARK    1  A    between atoms: C_1  and  C_2
REMARK    2  A    between atoms: C_5  and  S_8
REMARK    3  A    between atoms: S_8  and  N_11
REMARK    4  A    between atoms: C_17  and  C_19
REMARK    5  A    between atoms: N_24  and  C_26
REMARK    6  A    between atoms: C_26  and  C_27
REMARK    7  A    between atoms: C_29  and  C_32
REMARK                            x       y       z     vdW  Elec       q    Type
REMARK                         _______ _______ _______ _____ _____    ______ ____
ROOT
ATOM      1  C   UNL     1       6.400  -5.049   1.245  0.00  0.00    +0.059 C 
ATOM      2  C   UNL     1       6.317  -3.724   2.008  0.00  0.00    +0.009 C 
ATOM      3  C   UNL     1       7.157  -3.828   3.284  0.00  0.00    -0.018 C 
ATOM      4  C   UNL     1       8.596  -4.195   2.913  0.00  0.00    -0.078 C 
ATOM      5  N   UNL     1       8.610  -5.483   2.211  0.00  0.00    +0.386 N 
ATOM      6  C   UNL     1       7.866  -5.372   0.950  0.00  0.00    -0.065 C 
ATOM      7  H   UNL     1       8.180  -6.187   2.792  0.00  0.00    -0.081 HD
ENDROOT
BRANCH   1  14
ATOM      8  N   UNL     1       2.006  -6.547  -0.367  0.00  0.00    -0.174 NA
ATOM      9  C   UNL     1       2.724  -6.162  -1.589  0.00  0.00    +0.128 C 
ATOM     10  C   UNL     1       3.536  -4.893  -1.302  0.00  0.00    +0.125 C 
ATOM     11  N   UNL     1       4.302  -5.096  -0.064  0.00  0.00    -0.299 N 
ATOM     12  C   UNL     1       3.583  -5.481   1.159  0.00  0.00    +0.125 C 
ATOM     13  C   UNL     1       2.771  -6.745   0.872  0.00  0.00    +0.128 C 
ATOM     14  C   UNL     1       5.640  -4.932  -0.050  0.00  0.00    +0.217 C 
ATOM     15  O   UNL     1       6.231  -4.691  -1.081  0.00  0.00    -0.275 OA
BRANCH   8  16
ATOM     16  S   UNL     1       0.362  -6.748  -0.384  0.00  0.00    +0.061 S 
ATOM     17  O   UNL     1       0.048  -7.614   0.699  0.00  0.00    -0.153 OA
ATOM     18  O   UNL     1       0.003  -7.046  -1.726  0.00  0.00    -0.153 OA
BRANCH  16  23
ATOM     19  C   UNL     1      -2.106  -1.398   0.915  0.00  0.00    +0.044 C 
ATOM     20  C   UNL     1      -1.490  -2.734   0.591  0.00  0.00    -0.050 A 
ATOM     21  C   UNL     1      -1.228  -3.074  -0.723  0.00  0.00    +0.005 A 
ATOM     22  C   UNL     1      -0.662  -4.299  -1.021  0.00  0.00    +0.029 A 
ATOM     23  C   UNL     1      -0.358  -5.185  -0.004  0.00  0.00    +0.105 A 
ATOM     24  C   UNL     1      -0.619  -4.846   1.310  0.00  0.00    +0.029 A 
ATOM     25  C   UNL     1      -1.181  -3.618   1.608  0.00  0.00    +0.005 A 
ENDBRANCH  16  23
ENDBRANCH   8  16
ENDBRANCH   1  14
BRANCH   5  26
ATOM     26  C   UNL     1       9.999  -5.868   1.926  0.00  0.00    +0.022 C 
BRANCH  26  27
ATOM     27  C   UNL     1      10.728  -6.112   3.221  0.00  0.00    +0.211 A 
ATOM     28  N   UNL     1      10.813  -7.253   3.844  0.00  0.00    -0.193 NA
ATOM     29  C   UNL     1      11.538  -7.112   4.968  0.00  0.00    +0.202 A 
ATOM     30  N   UNL     1      11.921  -5.862   5.065  0.00  0.00    -0.056 NA
ATOM     31  O   UNL     1      11.404  -5.194   3.924  0.00  0.00    -0.340 OA
BRANCH  29  32
ATOM     32  C   UNL     1      11.851  -8.191   5.938  0.00  0.00    +0.023 A 
ATOM     33  C   UNL     1      11.386  -9.486   5.716  0.00  0.00    +0.014 A 
ATOM     34  C   UNL     1      11.680 -10.486   6.620  0.00  0.00    +0.039 A 
ATOM     35  C   UNL     1      12.436 -10.204   7.747  0.00  0.00    +0.123 A 
ATOM     36  C   UNL     1      12.900  -8.918   7.971  0.00  0.00    +0.039 A 
ATOM     37  C   UNL     1      12.616  -7.913   7.069  0.00  0.00    +0.014 A 
ATOM     38  F   UNL     1      12.722 -11.186   8.629  0.00  0.00    -0.205 F 
ENDBRANCH  29  32
ENDBRANCH  26  27
ENDBRANCH   5  26
TORSDOF 6
