REMARK  Name = ZINC01251859
REMARK  9 active torsions:
REMARK  status: ('A' for Active; 'I' for Inactive)
REMARK    1  A    between atoms: C_1  and  O_2
REMARK    2  A    between atoms: O_2  and  C_3
REMARK    3  A    between atoms: C_7  and  C_11
REMARK    4  A    between atoms: C_8  and  O_9
REMARK    5  A    between atoms: O_9  and  C_10
REMARK    6  A    between atoms: C_20  and  C_28
REMARK    7  A    between atoms: C_21  and  N_27
REMARK    8  A    between atoms: C_22  and  C_23
REMARK    9  A    between atoms: C_22  and  C_25
REMARK                            x       y       z     vdW  Elec       q    Type
REMARK                         _______ _______ _______ _____ _____    ______ ____
ROOT
ATOM      1  C   UNL     1       3.670   2.198  -0.021  0.00  0.00    +0.071 C 
ATOM      2  C   UNL     1       3.780   2.996  -1.321  0.00  0.00    +0.044 C 
ATOM      3  C   UNL     1       3.534   2.140  -2.539  0.00  0.00    +0.090 C 
ATOM      4  N   UNL     1       4.783   1.753  -3.201  0.00  0.00    -0.312 NA
ATOM      5  C   UNL     1       5.529   2.953  -3.621  0.00  0.00    +0.108 C 
ATOM      6  C   UNL     1       5.907   3.714  -2.373  0.00  0.00    -0.007 C 
ATOM      7  C   UNL     1       5.106   3.701  -1.325  0.00  0.00    -0.026 C 
ATOM      8  C   UNL     1       5.503   4.400  -0.078  0.00  0.00    +0.074 C 
ATOM      9  C   UNL     1       4.838   4.128   1.074  0.00  0.00    +0.054 C 
ATOM     10  C   UNL     1       3.690   3.168   1.161  0.00  0.00    +0.188 C 
ATOM     11  H   UNL     1       5.402   1.170  -2.503  0.00  0.00    +0.122 HD
ENDROOT
BRANCH   1  16
ATOM     12  C   UNL     1       1.198  -0.655   0.260  0.00  0.00    +0.162 A 
ATOM     13  C   UNL     1       0.002  -0.004   0.000  0.00  0.00    +0.049 A 
ATOM     14  C   UNL     1      -0.003   1.353  -0.265  0.00  0.00    +0.004 A 
ATOM     15  C   UNL     1       1.183   2.063  -0.271  0.00  0.00    +0.008 A 
ATOM     16  C   UNL     1       2.379   1.420  -0.013  0.00  0.00    +0.004 A 
ATOM     17  C   UNL     1       2.391   0.060   0.253  0.00  0.00    +0.165 A 
BRANCH  12  19
ATOM     18  C   UNL     1      -0.059  -2.659   0.512  0.00  0.00    +0.277 C 
ATOM     19  O   UNL     1       1.204  -1.989   0.521  0.00  0.00    -0.491 OA
ENDBRANCH  12  19
BRANCH  17  20
ATOM     20  O   UNL     1       3.567  -0.574   0.507  0.00  0.00    -0.491 OA
ATOM     21  C   UNL     1       4.266  -1.118  -0.615  0.00  0.00    +0.277 C 
ENDBRANCH  17  20
ENDBRANCH   1  16
BRANCH   9  22
ATOM     22  N   UNL     1       5.236   4.764   2.216  0.00  0.00    -0.358 N 
ATOM     23  H   UNL     1       4.718   4.566   3.166  0.00  0.00    +0.142 HD
ATOM     24  H   UNL     1       6.075   5.475   2.186  0.00  0.00    +0.142 HD
ENDBRANCH   9  22
BRANCH  10  25
ATOM     25  C   UNL     1       2.430   3.928   1.179  0.00  0.00    +0.091 C 
ATOM     26  N   UNL     1       1.457   4.514   1.194  0.00  0.00    -0.194 NA
ENDBRANCH  10  25
BRANCH  10  27
ATOM     27  C   UNL     1       3.804   2.399   2.411  0.00  0.00    +0.091 C 
ATOM     28  N   UNL     1       3.893   1.805   3.375  0.00  0.00    -0.194 NA
ENDBRANCH  10  27
BRANCH   8  29
ATOM     29  C   UNL     1       6.576   5.349  -0.089  0.00  0.00    +0.101 C 
ATOM     30  N   UNL     1       7.426   6.102  -0.097  0.00  0.00    -0.191 NA
ENDBRANCH   8  29
TORSDOF 7
