REMARK  Name = ZINC38557692
REMARK  9 active torsions:
REMARK  status: ('A' for Active; 'I' for Inactive)
REMARK    1  A    between atoms: C_1  and  C_2
REMARK    2  A    between atoms: C_2  and  O_3
REMARK    3  A    between atoms: O_3  and  C_4
REMARK    4  A    between atoms: C_9  and  C_10
REMARK    5  A    between atoms: C_12  and  C_24
REMARK    6  A    between atoms: N_26  and  C_27
REMARK    7  A    between atoms: C_27  and  C_28
REMARK    8  A    between atoms: C_28  and  C_29
REMARK    9  A    between atoms: C_29  and  C_30
REMARK                            x       y       z     vdW  Elec       q    Type
REMARK                         _______ _______ _______ _____ _____    ______ ____
ROOT
ATOM      1  C   UNL     1       2.051  -1.474   3.432  0.00  0.00    +0.079 C 
ATOM      2  N   UNL     1       2.037  -0.170   3.261  0.00  0.00    -0.244 NA
ATOM      3  C   UNL     1       2.667   0.704   4.060  0.00  0.00    +0.126 C 
ATOM      4  C   UNL     1       3.633   0.282   4.977  0.00  0.00    +0.039 C 
ATOM      5  C   UNL     1       3.748  -1.088   5.153  0.00  0.00    -0.008 C 
ATOM      6  C   UNL     1       4.717  -1.911   5.665  0.00  0.00    +0.004 A 
ATOM      7  C   UNL     1       5.865  -1.650   6.447  0.00  0.00    +0.010 A 
ATOM      8  C   UNL     1       6.660  -2.716   6.750  0.00  0.00    +0.001 A 
ATOM      9  C   UNL     1       6.392  -4.018   6.327  0.00  0.00    +0.002 A 
ATOM     10  C   UNL     1       5.298  -4.358   5.591  0.00  0.00    +0.026 A 
ATOM     11  C   UNL     1       4.402  -3.307   5.249  0.00  0.00    +0.044 A 
ATOM     12  N   UNL     1       3.258  -3.354   4.611  0.00  0.00    -0.372 N 
ATOM     13  C   UNL     1       2.659  -2.036   4.667  0.00  0.00    +0.160 C 
ATOM     14  H   UNL     1       2.876  -4.134   4.180  0.00  0.00    +0.161 HD
ENDROOT
BRANCH   1  20
ATOM     15  C   UNL     1       0.338  -3.139   2.727  0.00  0.00    +0.129 A 
ATOM     16  C   UNL     1      -0.206  -3.969   1.760  0.00  0.00    +0.046 A 
ATOM     17  C   UNL     1       0.364  -4.035   0.503  0.00  0.00    +0.004 A 
ATOM     18  C   UNL     1       1.482  -3.275   0.197  0.00  0.00    +0.001 A 
ATOM     19  C   UNL     1       2.039  -2.443   1.142  0.00  0.00    +0.013 A 
ATOM     20  C   UNL     1       1.469  -2.360   2.420  0.00  0.00    +0.040 A 
BRANCH  15  21
ATOM     21  O   UNL     1      -0.220  -3.073   3.961  0.00  0.00    -0.492 OA
BRANCH  21  23
ATOM     22  C   UNL     1      -1.852  -3.685   5.635  0.00  0.00    +0.048 C 
ATOM     23  C   UNL     1      -1.366  -3.893   4.199  0.00  0.00    +0.226 C 
ENDBRANCH  21  23
ENDBRANCH  15  21
ENDBRANCH   1  20
BRANCH   3  24
ATOM     24  C   UNL     1       2.332   2.143   3.969  0.00  0.00    +0.262 C 
ATOM     25  O   UNL     1       2.895   2.945   4.688  0.00  0.00    -0.269 OA
ATOM     26  N   UNL     1       1.402   2.564   3.089  0.00  0.00    -0.310 N 
ATOM     27  H   UNL     1       0.952   1.924   2.515  0.00  0.00    +0.149 HD
BRANCH  26  28
ATOM     28  C   UNL     1       1.071   3.988   2.998  0.00  0.00    +0.105 C 
BRANCH  28  29
ATOM     29  C   UNL     1      -0.005   4.194   1.930  0.00  0.00    +0.023 C 
BRANCH  29  30
ATOM     30  C   UNL     1      -0.351   5.682   1.836  0.00  0.00    +0.036 C 
BRANCH  30  31
ATOM     31  C   UNL     1      -1.411   5.885   0.784  0.00  0.00    -0.047 A 
ATOM     32  C   UNL     1      -1.046   6.118  -0.529  0.00  0.00    +0.003 A 
ATOM     33  C   UNL     1      -2.018   6.304  -1.494  0.00  0.00    +0.000 A 
ATOM     34  C   UNL     1      -3.356   6.258  -1.146  0.00  0.00    +0.000 A 
ATOM     35  C   UNL     1      -3.720   6.024   0.167  0.00  0.00    +0.000 A 
ATOM     36  C   UNL     1      -2.748   5.833   1.131  0.00  0.00    +0.003 A 
ENDBRANCH  30  31
ENDBRANCH  29  30
ENDBRANCH  28  29
ENDBRANCH  26  28
ENDBRANCH   3  24
TORSDOF 8
