REMARK  Name = ZINC50361491
REMARK  3 active torsions:
REMARK  status: ('A' for Active; 'I' for Inactive)
REMARK    1  A    between atoms: C_2  and  C_8
REMARK    2  A    between atoms: C_8  and  N_9
REMARK    3  A    between atoms: C_10  and  N_15
REMARK                            x       y       z     vdW  Elec       q    Type
REMARK                         _______ _______ _______ _____ _____    ______ ____
ROOT
ATOM      1  N   UNL     1       1.899   3.707   1.385  0.00  0.00    -0.243 N 
ATOM      2  C   UNL     1       0.945   4.293   2.153  0.00  0.00    +0.129 A 
ATOM      3  C   UNL     1       1.504   4.563   3.365  0.00  0.00    +0.077 A 
ATOM      4  C   UNL     1       2.832   4.128   3.330  0.00  0.00    +0.151 A 
ATOM      5  N   UNL     1       3.067   3.611   2.151  0.00  0.00    -0.176 NA
ATOM      6 BR   UNL     1       0.638   5.380   4.834  0.00  0.00    -0.045 Br
ENDROOT
BRANCH   2   7
ATOM      7  N   UNL     1      -0.366   4.569   1.770  0.00  0.00    -0.342 N 
ATOM      8  H   UNL     1      -0.670   4.338   0.879  0.00  0.00    +0.144 HD
ATOM      9  H   UNL     1      -0.975   4.993   2.396  0.00  0.00    +0.144 HD
ENDBRANCH   2   7
BRANCH   1  10
ATOM     10  C   UNL     1       1.734   3.250   0.003  0.00  0.00    +0.219 C 
BRANCH  10  12
ATOM     11  C   UNL     1      -0.017   1.410   0.010  0.00  0.00    +0.063 A 
ATOM     12  C   UNL     1       1.265   1.818  -0.000  0.00  0.00    +0.129 A 
ATOM     13  O   UNL     1       2.056   0.732  -0.014  0.00  0.00    -0.450 OA
ATOM     14  C   UNL     1       1.296  -0.376  -0.012  0.00  0.00    +0.184 A 
ATOM     15  C   UNL     1       0.002  -0.004   0.002  0.00  0.00    +0.070 A 
ATOM     16 BR   UNL     1      -1.501  -1.152   0.011  0.00  0.00    -0.046 Br
ATOM     17 BR   UNL     1       1.936  -2.156  -0.029  0.00  0.00    -0.007 Br
ENDBRANCH  10  12
ENDBRANCH   1  10
TORSDOF 3
