REMARK  Name = ZINC05238039
REMARK  6 active torsions:
REMARK  status: ('A' for Active; 'I' for Inactive)
REMARK    1  A    between atoms: C_1  and  C_2
REMARK    2  A    between atoms: C_8  and  S_10
REMARK    3  A    between atoms: S_10  and  C_11
REMARK    4  A    between atoms: C_11  and  C_13
REMARK    5  A    between atoms: C_11  and  C_14
REMARK    6  A    between atoms: N_16  and  C_17
REMARK                            x       y       z     vdW  Elec       q    Type
REMARK                         _______ _______ _______ _____ _____    ______ ____
ROOT
ATOM      1  C   UNL     1      -0.783   4.019   0.013  0.00  0.00    +0.137 C 
ATOM      2  C   UNL     1      -1.384   3.497  -1.294  0.00  0.00    +0.029 C 
ENDROOT
BRANCH   1   3
ATOM      3  C   UNL     1      -1.096   5.486   0.158  0.00  0.00    +0.230 C 
ATOM      4  O   UNL     1      -0.290   6.317  -0.206  0.00  0.00    -0.274 OA
ATOM      5  N   UNL     1      -2.270   5.875   0.693  0.00  0.00    -0.283 N 
ATOM      6  H   UNL     1      -2.940   5.214   0.925  0.00  0.00    +0.155 HD
BRANCH   5   7
ATOM      7  C   UNL     1      -2.522   7.234   0.915  0.00  0.00    +0.053 A 
ATOM      8  C   UNL     1      -2.024   8.186   0.035  0.00  0.00    +0.044 A 
ATOM      9  C   UNL     1      -2.274   9.528   0.257  0.00  0.00    +0.043 A 
ATOM     10  C   UNL     1      -3.021   9.922   1.354  0.00  0.00    +0.021 A 
ATOM     11  C   UNL     1      -3.518   8.976   2.231  0.00  0.00    +0.023 A 
ATOM     12  C   UNL     1      -3.276   7.633   2.012  0.00  0.00    +0.062 A 
ATOM     13 CL   UNL     1      -3.906   6.446   3.110  0.00  0.00    -0.082 Cl
ATOM     14 CL   UNL     1      -1.653  10.719  -0.842  0.00  0.00    -0.083 Cl
ENDBRANCH   5   7
ENDBRANCH   1   3
BRANCH   1  15
ATOM     15  S   UNL     1       1.011   3.784  -0.011  0.00  0.00    -0.075 S 
BRANCH  15  23
ATOM     16  C   UNL     1      -1.313  -0.772  -0.038  0.00  0.00    +0.066 C 
ATOM     17  C   UNL     1      -0.016  -0.005  -0.045  0.00  0.00    +0.046 A 
ATOM     18  C   UNL     1       1.172  -0.677  -0.068  0.00  0.00    +0.093 A 
ATOM     19  C   UNL     1       2.370   0.059  -0.073  0.00  0.00    +0.252 A 
ATOM     20  O   UNL     1       3.449  -0.510  -0.093  0.00  0.00    -0.268 OA
ATOM     21  N   UNL     1       2.303   1.407  -0.056  0.00  0.00    -0.302 N 
ATOM     22  H   UNL     1       3.142   1.952  -0.060  0.00  0.00    +0.171 HD
ATOM     23  C   UNL     1       1.089   2.024  -0.034  0.00  0.00    +0.170 A 
ATOM     24  N   UNL     1      -0.030   1.325  -0.028  0.00  0.00    -0.228 NA
ENDBRANCH  15  23
ENDBRANCH   1  15
TORSDOF 4
