REMARK  Name = ZINC64818209
REMARK  9 active torsions:
REMARK  status: ('A' for Active; 'I' for Inactive)
REMARK    1  A    between atoms: C_1  and  C_2
REMARK    2  A    between atoms: C_5  and  C_8
REMARK    3  A    between atoms: C_10  and  C_13
REMARK    4  A    between atoms: C_19  and  C_21
REMARK    5  A    between atoms: C_21  and  C_23
REMARK    6  A    between atoms: C_21  and  N_24
REMARK    7  A    between atoms: N_24  and  S_25
REMARK    8  A    between atoms: S_25  and  C_28
REMARK    9  A    between atoms: C_31  and  C_34
REMARK                            x       y       z     vdW  Elec       q    Type
REMARK                         _______ _______ _______ _____ _____    ______ ____
ROOT
ATOM      1  C   UNL     1      -0.430  -7.776   0.742  0.00  0.00    +0.081 C 
ATOM      2  C   UNL     1      -1.586  -8.769   0.884  0.00  0.00    +0.032 C 
ATOM      3  C   UNL     1      -1.331  -9.674   2.093  0.00  0.00    +0.108 C 
ATOM      4  N   UNL     1      -0.012 -10.302   1.944  0.00  0.00    -0.300 N 
ATOM      5  C   UNL     1       1.158  -9.443   1.712  0.00  0.00    +0.108 C 
ATOM      6  C   UNL     1       0.875  -8.541   0.507  0.00  0.00    +0.032 C 
ATOM      7  C   UNL     1       0.124 -11.641   2.019  0.00  0.00    +0.234 C 
ATOM      8  O   UNL     1      -0.831 -12.332   2.303  0.00  0.00    -0.274 OA
ENDROOT
BRANCH   1  11
ATOM      9  C   UNL     1      -1.039  -5.067  -1.596  0.00  0.00    +0.202 A 
ATOM     10  N   UNL     1      -0.805  -5.565  -0.368  0.00  0.00    -0.191 NA
ATOM     11  C   UNL     1      -0.694  -6.862  -0.426  0.00  0.00    +0.231 A 
ATOM     12  O   UNL     1      -0.852  -7.245  -1.700  0.00  0.00    -0.337 OA
ATOM     13  N   UNL     1      -1.081  -6.061  -2.449  0.00  0.00    -0.056 NA
BRANCH   9  18
ATOM     14  C   UNL     1      -1.758   0.500  -2.882  0.00  0.00    +0.044 C 
ATOM     15  C   UNL     1      -1.569  -0.956  -2.546  0.00  0.00    -0.050 A 
ATOM     16  C   UNL     1      -1.638  -1.909  -3.546  0.00  0.00    +0.004 A 
ATOM     17  C   UNL     1      -1.466  -3.245  -3.243  0.00  0.00    +0.012 A 
ATOM     18  C   UNL     1      -1.224  -3.633  -1.927  0.00  0.00    +0.022 A 
ATOM     19  C   UNL     1      -1.156  -2.669  -0.923  0.00  0.00    +0.012 A 
ATOM     20  C   UNL     1      -1.323  -1.335  -1.238  0.00  0.00    +0.004 A 
ENDBRANCH   9  18
ENDBRANCH   1  11
BRANCH   7  21
ATOM     21  C   UNL     1       1.462 -12.279   1.748  0.00  0.00    +0.159 C 
ATOM     22  C   UNL     1       2.321 -12.218   3.013  0.00  0.00    +0.035 C 
BRANCH  21  23
ATOM     23  N   UNL     1       1.266 -13.678   1.358  0.00  0.00    -0.178 NA
ATOM     24  H   UNL     1       0.550 -14.197   1.757  0.00  0.00    +0.149 HD
BRANCH  23  25
ATOM     25  S   UNL     1       2.267 -14.372   0.236  0.00  0.00    +0.059 S 
ATOM     26  O   UNL     1       1.844 -15.721   0.094  0.00  0.00    -0.153 OA
ATOM     27  O   UNL     1       2.329 -13.474  -0.864  0.00  0.00    -0.153 OA
BRANCH  25  28
ATOM     28  C   UNL     1       3.882 -14.422   0.938  0.00  0.00    +0.105 A 
ATOM     29  C   UNL     1       4.747 -13.358   0.757  0.00  0.00    +0.029 A 
ATOM     30  C   UNL     1       6.014 -13.397   1.308  0.00  0.00    +0.005 A 
ATOM     31  C   UNL     1       6.417 -14.499   2.039  0.00  0.00    -0.050 A 
ATOM     32  C   UNL     1       5.551 -15.562   2.220  0.00  0.00    +0.005 A 
ATOM     33  C   UNL     1       4.282 -15.521   1.673  0.00  0.00    +0.029 A 
ATOM     34  C   UNL     1       7.798 -14.542   2.639  0.00  0.00    +0.044 C 
ENDBRANCH  25  28
ENDBRANCH  23  25
ENDBRANCH  21  23
ENDBRANCH   7  21
TORSDOF 6
