REMARK  Name = ZINC01379329
REMARK  6 active torsions:
REMARK  status: ('A' for Active; 'I' for Inactive)
REMARK    1  A    between atoms: C_1  and  C_2
REMARK    2  A    between atoms: C_2  and  C_3
REMARK    3  A    between atoms: C_2  and  C_4
REMARK    4  A    between atoms: C_2  and  N_5
REMARK    5  A    between atoms: C_6  and  C_8
REMARK    6  A    between atoms: N_16  and  C_17
REMARK                            x       y       z     vdW  Elec       q    Type
REMARK                         _______ _______ _______ _____ _____    ______ ____
ROOT
ATOM      1  C   UNL     1      -2.522   1.245   0.015  0.00  0.00    +0.163 C 
ATOM      2  C   UNL     1      -3.562   2.385   0.058  0.00  0.00    +0.033 C 
ATOM      3  C   UNL     1      -2.755   3.572   0.645  0.00  0.00    +0.021 C 
ATOM      4  C   UNL     1      -1.356   3.335   0.026  0.00  0.00    +0.110 C 
ATOM      5  N   UNL     1      -1.191   1.870   0.018  0.00  0.00    -0.274 N 
ATOM      6  C   UNL     1      -0.014   1.212   0.009  0.00  0.00    +0.303 C 
ATOM      7  O   UNL     1       0.002  -0.004   0.002  0.00  0.00    -0.253 OA
ATOM      8  N   UNL     1       1.143   1.901   0.001  0.00  0.00    -0.296 N 
ATOM      9  H   UNL     1       1.130   2.871   0.007  0.00  0.00    +0.151 HD
ENDROOT
BRANCH   8  10
ATOM     10  C   UNL     1       2.422   1.186  -0.015  0.00  0.00    +0.074 C 
ATOM     11  C   UNL     1       2.819   0.820   1.417  0.00  0.00    +0.022 C 
ATOM     12  C   UNL     1       4.155   0.073   1.400  0.00  0.00    +0.002 C 
ATOM     13  C   UNL     1       5.232   0.968   0.785  0.00  0.00    +0.000 C 
ATOM     14  C   UNL     1       4.835   1.335  -0.647  0.00  0.00    +0.002 C 
ATOM     15  C   UNL     1       3.499   2.082  -0.630  0.00  0.00    +0.022 C 
ENDBRANCH   8  10
BRANCH   1  17
ATOM     16  N   UNL     1      -3.856  -0.234  -1.452  0.00  0.00    -0.309 N 
ATOM     17  C   UNL     1      -2.702   0.430  -1.239  0.00  0.00    +0.234 C 
ATOM     18  O   UNL     1      -1.810   0.370  -2.058  0.00  0.00    -0.274 OA
ATOM     19  H   UNL     1      -4.571  -0.186  -0.797  0.00  0.00    +0.149 HD
BRANCH  16  21
ATOM     20  C   UNL     1      -2.962  -2.119  -2.728  0.00  0.00    +0.031 C 
ATOM     21  C   UNL     1      -4.032  -1.026  -2.671  0.00  0.00    +0.026 C 
ATOM     22  C   UNL     1      -5.419  -1.671  -2.664  0.00  0.00    +0.031 C 
ATOM     23  C   UNL     1      -3.898  -0.117  -3.894  0.00  0.00    +0.031 C 
ENDBRANCH  16  21
ENDBRANCH   1  17
TORSDOF 3
