REMARK  Name = ZINC20277751
REMARK  6 active torsions:
REMARK  status: ('A' for Active; 'I' for Inactive)
REMARK    1  A    between atoms: C_1  and  C_2
REMARK    2  A    between atoms: C_2  and  C_3
REMARK    3  A    between atoms: C_2  and  C_4
REMARK    4  A    between atoms: C_4  and  N_5
REMARK    5  A    between atoms: C_9  and  N_23
REMARK    6  A    between atoms: C_13  and  C_17
REMARK                            x       y       z     vdW  Elec       q    Type
REMARK                         _______ _______ _______ _____ _____    ______ ____
ROOT
ATOM      1  N   UNL     1      -1.192   1.871   0.018  0.00  0.00    -0.265 N 
ATOM      2  C   UNL     1      -1.182   3.275   0.066  0.00  0.00    +0.078 A 
ATOM      3  C   UNL     1      -2.324   3.999  -0.235  0.00  0.00    +0.029 A 
ATOM      4  C   UNL     1      -2.297   5.380  -0.187  0.00  0.00    +0.025 A 
ATOM      5  C   UNL     1      -1.127   6.043   0.162  0.00  0.00    +0.028 A 
ATOM      6  C   UNL     1       0.019   5.320   0.464  0.00  0.00    +0.070 A 
ATOM      7  C   UNL     1      -0.006   3.937   0.416  0.00  0.00    +0.145 A 
ATOM      8  O   UNL     1       1.107   3.214   0.709  0.00  0.00    -0.473 OA
ATOM      9  C   UNL     1       1.279   1.983   0.001  0.00  0.00    +0.289 C 
ATOM     10  C   UNL     1      -0.014   1.209   0.009  0.00  0.00    +0.265 C 
ATOM     11  O   UNL     1       0.002  -0.004   0.002  0.00  0.00    -0.271 OA
ENDROOT
BRANCH   9  12
ATOM     12  C   UNL     1       1.679   2.276  -1.423  0.00  0.00    +0.002 A 
ATOM     13  C   UNL     1       1.161   3.380  -2.073  0.00  0.00    +0.008 A 
ATOM     14  C   UNL     1       1.532   3.651  -3.377  0.00  0.00    +0.000 A 
ATOM     15  C   UNL     1       2.413   2.813  -4.034  0.00  0.00    +0.000 A 
ATOM     16  C   UNL     1       2.927   1.706  -3.385  0.00  0.00    +0.000 A 
ATOM     17  C   UNL     1       2.560   1.437  -2.079  0.00  0.00    +0.008 A 
ENDBRANCH   9  12
BRANCH   5  18
ATOM     18  N   UNL     1      -1.104   7.441   0.209  0.00  0.00    -0.358 N 
ATOM     19  H   UNL     1      -0.178   7.966   0.485  0.00  0.00    +0.142 HD
ATOM     20  H   UNL     1      -2.012   8.014  -0.030  0.00  0.00    +0.142 HD
ENDBRANCH   5  18
BRANCH   1  21
ATOM     21  C   UNL     1      -2.459   1.136  -0.017  0.00  0.00    +0.117 C 
BRANCH  21  23
ATOM     22  C   UNL     1      -4.295   0.180   1.382  0.00  0.00    +0.009 C 
ATOM     23  C   UNL     1      -2.913   0.836   1.413  0.00  0.00    +0.001 C 
ATOM     24  C   UNL     1      -1.914  -0.112   2.078  0.00  0.00    +0.009 C 
ENDBRANCH  21  23
ENDBRANCH   1  21
TORSDOF 4
