REMARK  Name = ZINC21966471
REMARK  8 active torsions:
REMARK  status: ('A' for Active; 'I' for Inactive)
REMARK    1  A    between atoms: C_1  and  C_2
REMARK    2  A    between atoms: C_2  and  C_3
REMARK    3  A    between atoms: C_4  and  C_28
REMARK    4  A    between atoms: C_6  and  C_8
REMARK    5  A    between atoms: N_10  and  N_11
REMARK    6  A    between atoms: C_12  and  C_14
REMARK    7  A    between atoms: C_14  and  N_15
REMARK    8  A    between atoms: C_16  and  C_18
REMARK                            x       y       z     vdW  Elec       q    Type
REMARK                         _______ _______ _______ _____ _____    ______ ____
ROOT
ATOM      1  N   UNL     1       1.193   1.683  -0.000  0.00  0.00    -0.233 N 
ATOM      2  C   UNL     1       2.369   1.025  -0.015  0.00  0.00    +0.246 C 
ATOM      3  O   UNL     1       2.385  -0.188  -0.022  0.00  0.00    -0.273 OA
ATOM      4  H   UNL     1       1.178   2.783   0.006  0.00  0.00    +0.173 HD
ENDROOT
BRANCH   1   7
ATOM      5  C   UNL     1      -1.187   1.624   0.017  0.00  0.00    +0.267 C 
ATOM      6  O   UNL     1      -1.204   2.841   0.023  0.00  0.00    -0.268 OA
ATOM      7  N   UNL     1      -0.011   0.966   0.007  0.00  0.00    -0.230 N 
ATOM      8  H   UNL     1       0.004  -0.134   0.006  0.00  0.00    +0.173 HD
BRANCH   5  12
ATOM      9  C   UNL     1      -4.438  -0.902   0.017  0.00  0.00    -0.007 A 
ATOM     10  C   UNL     1      -4.756   0.419   0.026  0.00  0.00    -0.040 A 
ATOM     11  C   UNL     1      -3.748   1.351   0.027  0.00  0.00    +0.024 A 
ATOM     12  C   UNL     1      -2.447   0.874   0.018  0.00  0.00    +0.076 A 
ATOM     13  S   UNL     1      -2.704  -0.892   0.002  0.00  0.00    -0.088 S 
ATOM     14  C   UNL     1      -6.198   0.856   0.036  0.00  0.00    +0.044 C 
BRANCH   9  16
ATOM     15  C   UNL     1      -5.687  -2.481  -1.431  0.00  0.00    +0.009 C 
ATOM     16  C   UNL     1      -5.367  -2.088   0.013  0.00  0.00    +0.039 C 
ENDBRANCH   9  16
ENDBRANCH   5  12
ENDBRANCH   1   7
BRANCH   2  17
ATOM     17  C   UNL     1       3.663   1.796  -0.023  0.00  0.00    +0.201 C 
BRANCH  17  18
ATOM     18  N   UNL     1       4.790   0.859  -0.039  0.00  0.00    -0.306 N 
ATOM     19  C   UNL     1       6.054   1.326  -0.049  0.00  0.00    +0.220 C 
ATOM     20  O   UNL     1       6.260   2.521  -0.044  0.00  0.00    -0.275 OA
ATOM     21  H   UNL     1       4.603  -0.225  -0.043  0.00  0.00    +0.149 HD
BRANCH  19  22
ATOM     22  C   UNL     1       7.213   0.362  -0.065  0.00  0.00    +0.048 C 
ATOM     23  C   UNL     1       7.155  -0.525   1.180  0.00  0.00    +0.019 C 
ATOM     24  C   UNL     1       8.332  -1.503   1.164  0.00  0.00    -0.009 C 
ATOM     25  C   UNL     1       9.646  -0.721   1.155  0.00  0.00    +0.007 C 
ATOM     26  C   UNL     1       9.703   0.167  -0.090  0.00  0.00    -0.009 C 
ATOM     27  C   UNL     1       8.527   1.145  -0.073  0.00  0.00    +0.019 C 
ATOM     28  C   UNL     1       9.622  -0.707  -1.343  0.00  0.00    +0.007 C 
ATOM     29  C   UNL     1       8.308  -1.490  -1.335  0.00  0.00    -0.009 C 
ATOM     30  C   UNL     1       8.251  -2.377  -0.089  0.00  0.00    +0.007 C 
ATOM     31  C   UNL     1       7.132  -0.512  -1.318  0.00  0.00    +0.019 C 
ENDBRANCH  19  22
ENDBRANCH  17  18
ENDBRANCH   2  17
TORSDOF 6
