REMARK  Name = ZINC05450662
REMARK  3 active torsions:
REMARK  status: ('A' for Active; 'I' for Inactive)
REMARK    1  A    between atoms: C_4  and  C_7
REMARK    2  A    between atoms: C_10  and  C_12
REMARK    3  A    between atoms: C_17  and  C_24
REMARK                            x       y       z     vdW  Elec       q    Type
REMARK                         _______ _______ _______ _____ _____    ______ ____
ROOT
ATOM      1  C   UNL     1       5.159  -4.117  -0.281  0.00  0.00    +0.117 C 
ATOM      2  C   UNL     1       5.985  -4.388  -1.510  0.00  0.00    +0.081 C 
ATOM      3  N   UNL     1       7.285  -4.314  -1.480  0.00  0.00    -0.340 N 
ATOM      4  C   UNL     1       7.958  -4.036  -0.349  0.00  0.00    +0.099 C 
ATOM      5  C   UNL     1       7.344  -4.142   0.882  0.00  0.00    +0.067 C 
ATOM      6  C   UNL     1       5.911  -4.608   0.959  0.00  0.00    +0.023 C 
ATOM      7  C   UNL     1       5.872  -6.136   1.009  0.00  0.00    +0.013 C 
ATOM      8  C   UNL     1       4.418  -6.606   1.083  0.00  0.00    +0.001 C 
ATOM      9  C   UNL     1       3.762  -6.036   2.342  0.00  0.00    +0.000 C 
ATOM     10  C   UNL     1       3.800  -4.508   2.291  0.00  0.00    +0.001 C 
ATOM     11  C   UNL     1       5.254  -4.036   2.216  0.00  0.00    +0.013 C 
ATOM     12  S   UNL     1       9.643  -3.530  -0.440  0.00  0.00    -0.032 SA
ATOM     13  N   UNL     1       5.362  -4.718  -2.674  0.00  0.00    -0.347 N 
ATOM     14  H   UNL     1       4.394  -4.776  -2.707  0.00  0.00    +0.143 HD
ATOM     15  H   UNL     1       5.885  -4.895  -3.472  0.00  0.00    +0.143 HD
ATOM     16  H   UNL     1       7.784  -4.464  -2.299  0.00  0.00    +0.167 HD
ENDROOT
BRANCH   1  20
ATOM     17  C   UNL     1       3.699  -0.689  -0.037  0.00  0.00    +0.078 A 
ATOM     18  C   UNL     1       4.893  -0.026   0.062  0.00  0.00    +0.075 A 
ATOM     19  S   UNL     1       6.036  -1.396  -0.016  0.00  0.00    -0.079 S 
ATOM     20  C   UNL     1       4.908  -2.636  -0.162  0.00  0.00    +0.090 A 
ATOM     21  N   UNL     1       3.761  -2.008  -0.143  0.00  0.00    -0.243 NA
BRANCH  17  25
ATOM     22  C   UNL     1      -0.017   1.379   0.010  0.00  0.00    +0.000 A 
ATOM     23  C   UNL     1       1.169   2.092   0.002  0.00  0.00    +0.001 A 
ATOM     24  C   UNL     1       2.377   1.426  -0.013  0.00  0.00    +0.010 A 
ATOM     25  C   UNL     1       2.402   0.033  -0.021  0.00  0.00    +0.001 A 
ATOM     26  C   UNL     1       1.205  -0.680  -0.013  0.00  0.00    +0.010 A 
ATOM     27  C   UNL     1       0.002  -0.004   0.002  0.00  0.00    +0.001 A 
ENDBRANCH  17  25
ENDBRANCH   1  20
BRANCH   5  28
ATOM     28  C   UNL     1       8.061  -3.814   2.078  0.00  0.00    +0.098 C 
ATOM     29  N   UNL     1       8.630  -3.554   3.026  0.00  0.00    -0.191 NA
ENDBRANCH   5  28
TORSDOF 3
