REMARK  Name = ZINC10109391
REMARK  9 active torsions:
REMARK  status: ('A' for Active; 'I' for Inactive)
REMARK    1  A    between atoms: C_1  and  C_2
REMARK    2  A    between atoms: C_2  and  C_3
REMARK    3  A    between atoms: C_3  and  C_34
REMARK    4  A    between atoms: N_6  and  C_10
REMARK    5  A    between atoms: C_10  and  C_11
REMARK    6  A    between atoms: N_13  and  C_14
REMARK    7  A    between atoms: C_14  and  C_15
REMARK    8  A    between atoms: C_15  and  C_17
REMARK    9  A    between atoms: C_15  and  C_24
REMARK                            x       y       z     vdW  Elec       q    Type
REMARK                         _______ _______ _______ _____ _____    ______ ____
ROOT
ATOM      1  C   UNL     1      -2.514   0.979   0.020  0.00  0.00    +0.069 C 
ENDROOT
BRANCH   1   2
ATOM      2  C   UNL     1      -2.576   0.106   1.246  0.00  0.00    -0.013 A 
ATOM      3  C   UNL     1      -1.716  -0.872   1.574  0.00  0.00    +0.088 A 
ATOM      4  N   UNL     1      -2.091  -1.444   2.760  0.00  0.00    -0.360 N 
ATOM      5  H   UNL     1      -1.622  -2.170   3.201  0.00  0.00    +0.165 HD
ATOM      6  C   UNL     1      -3.235  -0.839   3.230  0.00  0.00    +0.047 A 
ATOM      7  C   UNL     1      -3.589   0.158   2.303  0.00  0.00    +0.003 A 
ATOM      8  C   UNL     1      -4.723   0.942   2.522  0.00  0.00    +0.010 A 
ATOM      9  C   UNL     1      -5.484   0.737   3.639  0.00  0.00    +0.001 A 
ATOM     10  C   UNL     1      -5.139  -0.245   4.556  0.00  0.00    +0.002 A 
ATOM     11  C   UNL     1      -4.024  -1.031   4.359  0.00  0.00    +0.026 A 
ENDBRANCH   1   2
BRANCH   1  12
ATOM     12  C   UNL     1      -1.219   1.750   0.017  0.00  0.00    -0.020 A 
ATOM     13  C   UNL     1      -0.013   1.076   0.008  0.00  0.00    +0.006 A 
ATOM     14  C   UNL     1       1.175   1.783   0.000  0.00  0.00    +0.000 A 
ATOM     15  C   UNL     1       1.157   3.166   0.007  0.00  0.00    +0.001 A 
ATOM     16  C   UNL     1      -0.048   3.841   0.021  0.00  0.00    +0.020 A 
ATOM     17  C   UNL     1      -1.238   3.134   0.029  0.00  0.00    +0.045 A 
ATOM     18 CL   UNL     1      -2.752   3.982   0.047  0.00  0.00    -0.083 Cl
ENDBRANCH   1  12
BRANCH   1  19
ATOM     19  C   UNL     1      -2.589   0.105  -1.234  0.00  0.00    +0.117 C 
BRANCH  19  22
ATOM     20  C   UNL     1      -2.721   0.405  -3.648  0.00  0.00    +0.231 C 
ATOM     21  O   UNL     1      -2.735  -0.802  -3.768  0.00  0.00    -0.274 OA
ATOM     22  N   UNL     1      -2.649   0.960  -2.422  0.00  0.00    -0.313 N 
ATOM     23  H   UNL     1      -2.637   1.925  -2.327  0.00  0.00    +0.149 HD
BRANCH  20  24
ATOM     24  C   UNL     1      -2.782   1.284  -4.871  0.00  0.00    +0.213 C 
BRANCH  24  28
ATOM     25  C   UNL     1      -2.329  -0.811  -7.904  0.00  0.00    +0.110 C 
ATOM     26  C   UNL     1      -1.779   0.011  -6.756  0.00  0.00    +0.247 C 
ATOM     27  O   UNL     1      -0.613   0.229  -6.505  0.00  0.00    -0.273 OA
ATOM     28  N   UNL     1      -2.854   0.446  -6.071  0.00  0.00    -0.215 N 
ATOM     29  C   UNL     1      -3.997   0.025  -6.626  0.00  0.00    +0.310 C 
ATOM     30  O   UNL     1      -5.099   0.293  -6.190  0.00  0.00    -0.252 OA
ATOM     31  N   UNL     1      -3.788  -0.729  -7.720  0.00  0.00    -0.285 N 
ATOM     32  C   UNL     1      -1.921  -0.197  -9.245  0.00  0.00    +0.041 C 
ATOM     33  H   UNL     1      -4.467  -1.139  -8.280  0.00  0.00    +0.151 HD
BRANCH  25  35
ATOM     34  C   UNL     1      -2.512  -3.084  -8.924  0.00  0.00    +0.006 C 
ATOM     35  C   UNL     1      -1.856  -2.263  -7.813  0.00  0.00    +0.031 C 
ENDBRANCH  25  35
ENDBRANCH  24  28
ENDBRANCH  20  24
ENDBRANCH  19  22
ENDBRANCH   1  19
TORSDOF 7
