REMARK  Name = ZINC13063816
REMARK  10 active torsions:
REMARK  status: ('A' for Active; 'I' for Inactive)
REMARK    1  A    between atoms: C_1  and  C_2
REMARK    2  A    between atoms: C_2  and  C_3
REMARK    3  A    between atoms: C_3  and  C_5
REMARK    4  A    between atoms: C_3  and  N_63
REMARK    5  A    between atoms: N_9  and  C_10
REMARK    6  A    between atoms: C_15  and  C_16
REMARK    7  A    between atoms: C_15  and  N_63
REMARK    8  A    between atoms: C_21  and  C_22
REMARK    9  A    between atoms: C_21  and  N_63
REMARK   10  A    between atoms: C_27  and  C_34
REMARK                            x       y       z     vdW  Elec       q    Type
REMARK                         _______ _______ _______ _____ _____    ______ ____
ROOT
ATOM      1  N   UNL     1      -1.829   2.380   1.730  0.00  0.00    +0.392 N 
ATOM      2  H   UNL     1      -1.819   1.622   2.423  0.00  0.00    -0.080 HD
ENDROOT
BRANCH   1   3
ATOM      3  C   UNL     1      -3.153   3.035   1.752  0.00  0.00    +0.003 C 
BRANCH   3   4
ATOM      4  C   UNL     1      -4.200   1.992   2.053  0.00  0.00    +0.138 A 
ATOM      5  N   UNL     1      -4.269   0.785   1.548  0.00  0.00    -0.115 NA
ATOM      6  N   UNL     1      -5.301   0.201   2.052  0.00  0.00    -0.023 NA
ATOM      7  N   UNL     1      -5.896   1.008   2.860  0.00  0.00    -0.044 NA
ATOM      8  N   UNL     1      -5.247   2.123   2.887  0.00  0.00    -0.228 N 
BRANCH   8   9
ATOM      9  C   UNL     1      -5.587   3.308   3.678  0.00  0.00    +0.111 C 
ATOM     10  C   UNL     1      -5.638   2.946   5.177  0.00  0.00    +0.027 C 
ATOM     11  C   UNL     1      -6.813   3.791   5.732  0.00  0.00    +0.002 C 
ATOM     12  C   UNL     1      -7.847   3.736   4.580  0.00  0.00    +0.002 C 
ATOM     13  C   UNL     1      -6.992   3.810   3.299  0.00  0.00    +0.027 C 
ENDBRANCH   8   9
ENDBRANCH   3   4
BRANCH   3  15
ATOM     14  C   UNL     1      -2.480   4.839   0.160  0.00  0.00    +0.002 C 
ATOM     15  C   UNL     1      -3.452   3.682   0.398  0.00  0.00    -0.011 C 
ENDBRANCH   3  15
ENDBRANCH   1   3
BRANCH   1  16
ATOM     16  C   UNL     1      -0.776   3.358   2.074  0.00  0.00    -0.034 C 
BRANCH  16  17
ATOM     17  C   UNL     1      -0.981   3.815   3.496  0.00  0.00    -0.027 A 
ATOM     18  C   UNL     1      -0.573   3.229   4.648  0.00  0.00    +0.009 A 
ATOM     19  C   UNL     1      -0.877   3.835   5.853  0.00  0.00    +0.008 A 
ATOM     20  C   UNL     1      -1.575   4.997   5.846  0.00  0.00    +0.045 A 
ATOM     21  S   UNL     1      -1.818   5.272   4.099  0.00  0.00    -0.103 S 
ENDBRANCH  16  17
ENDBRANCH   1  16
BRANCH   1  22
ATOM     22  C   UNL     1      -1.569   1.809   0.391  0.00  0.00    -0.036 C 
BRANCH  22  23
ATOM     23  C   UNL     1      -0.397   0.867   0.485  0.00  0.00    +0.001 A 
ATOM     24  C   UNL     1      -0.610  -0.458   0.679  0.00  0.00    +0.017 A 
ATOM     25  C   UNL     1       0.550  -1.348   0.760  0.00  0.00    -0.001 A 
ATOM     26  C   UNL     1       0.394  -2.724   0.958  0.00  0.00    +0.010 A 
ATOM     27  C   UNL     1       1.496  -3.527   1.028  0.00  0.00    +0.004 A 
ATOM     28  C   UNL     1       2.771  -2.991   0.904  0.00  0.00    -0.048 A 
ATOM     29  C   UNL     1       2.948  -1.638   0.708  0.00  0.00    +0.029 A 
ATOM     30  C   UNL     1       1.840  -0.800   0.633  0.00  0.00    +0.049 A 
ATOM     31  N   UNL     1       1.989   0.556   0.437  0.00  0.00    -0.322 N 
ATOM     32  H   UNL     1       2.879   0.932   0.350  0.00  0.00    +0.169 HD
ATOM     33  C   UNL     1       0.917   1.366   0.365  0.00  0.00    +0.251 A 
ATOM     34  O   UNL     1       1.086   2.560   0.190  0.00  0.00    -0.268 OA
ATOM     35  C   UNL     1       3.973  -3.896   0.985  0.00  0.00    +0.044 C 
ENDBRANCH  22  23
ENDBRANCH   1  22
TORSDOF 8
