REMARK  Name = ZINC13425093
REMARK  9 active torsions:
REMARK  status: ('A' for Active; 'I' for Inactive)
REMARK    1  A    between atoms: C_4  and  C_7
REMARK    2  A    between atoms: C_7  and  C_8
REMARK    3  A    between atoms: C_8  and  N_9
REMARK    4  A    between atoms: N_9  and  C_10
REMARK    5  A    between atoms: N_21  and  C1*_22
REMARK    6  A    between atoms: C2*_24  and  O2*_34
REMARK    7  A    between atoms: C3*_26  and  O3*_33
REMARK    8  A    between atoms: C4*_28  and  C5*_31
REMARK    9  A    between atoms: C5*_31  and  O5*_32
REMARK                            x       y       z     vdW  Elec       q    Type
REMARK                         _______ _______ _______ _____ _____    ______ ____
ROOT
ATOM      1  C   UNL     1       5.927  -1.944   2.747  0.00  0.00    +0.236 C 
ATOM      2  N   UNL     1       5.193  -3.076   3.330  0.00  0.00    -0.307 N 
ATOM      3  C   UNL     1       6.148  -4.074   3.619  0.00  0.00    +0.135 A 
ATOM      4  C   UNL     1       7.411  -3.634   3.255  0.00  0.00    +0.156 A 
ATOM      5  N   UNL     1       8.469  -4.439   3.448  0.00  0.00    -0.199 NA
ATOM      6  C   UNL     1       8.331  -5.635   3.975  0.00  0.00    +0.195 A 
ATOM      7  N   UNL     1       7.112  -6.111   4.348  0.00  0.00    -0.294 N 
ATOM      8  C   UNL     1       6.010  -5.352   4.179  0.00  0.00    +0.276 A 
ATOM      9  O   UNL     1       4.910  -5.770   4.511  0.00  0.00    -0.266 OA
ATOM     10  N   UNL     1       9.441  -6.421   4.152  0.00  0.00    -0.329 N 
ATOM     11  N   UNL     1       7.336  -2.355   2.725  0.00  0.00    -0.254 N 
ATOM     12  H   UNL     1       4.237  -3.127   3.486  0.00  0.00    +0.149 HD
ATOM     13  H   UNL     1      10.315  -6.092   3.890  0.00  0.00    +0.145 HD
ATOM     14  H   UNL     1       9.352  -7.305   4.540  0.00  0.00    +0.145 HD
ATOM     15  H   UNL     1       7.036  -6.998   4.734  0.00  0.00    +0.172 HD
ENDROOT
BRANCH  11  16
ATOM     16  C1* UNL     1       8.460  -1.557   2.230  0.00  0.00    +0.241 C 
ATOM     17  C2* UNL     1       9.468  -1.266   3.371  0.00  0.00    +0.193 C 
ATOM     18  C3* UNL     1      10.160   0.025   2.872  0.00  0.00    +0.178 C 
ATOM     19  C4* UNL     1       9.167   0.616   1.852  0.00  0.00    +0.177 C 
ATOM     20  O4* UNL     1       8.013  -0.244   1.828  0.00  0.00    -0.348 OA
BRANCH  18  21
ATOM     21  O3* UNL     1      10.367   0.933   3.956  0.00  0.00    -0.386 OA
ATOM     22  H3* UNL     1      10.798   1.760   3.700  0.00  0.00    +0.210 HD
ENDBRANCH  18  21
BRANCH  17  23
ATOM     23  O2* UNL     1      10.410  -2.332   3.502  0.00  0.00    -0.385 OA
ATOM     24  H2* UNL     1      11.062  -2.197   4.204  0.00  0.00    +0.210 HD
ENDBRANCH  17  23
BRANCH  19  25
ATOM     25  C5* UNL     1       8.761   2.028   2.279  0.00  0.00    +0.190 C 
BRANCH  25  26
ATOM     26  O5* UNL     1       7.933   2.611   1.271  0.00  0.00    -0.392 OA
ATOM     27  H5* UNL     1       7.637   3.509   1.476  0.00  0.00    +0.210 HD
ENDBRANCH  25  26
ENDBRANCH  19  25
ENDBRANCH  11  16
BRANCH   1  28
ATOM     28  N   UNL     1       5.453  -1.680   1.382  0.00  0.00    -0.283 NA
ATOM     29  H   UNL     1       5.382  -2.536   0.852  0.00  0.00    +0.125 HD
BRANCH  28  30
ATOM     30  C   UNL     1       4.171  -0.963   1.399  0.00  0.00    +0.089 C 
BRANCH  30  31
ATOM     31  C   UNL     1       3.711  -0.707  -0.038  0.00  0.00    +0.050 C 
BRANCH  31  35
ATOM     32  C   UNL     1      -0.017   1.378   0.010  0.00  0.00    +0.000 A 
ATOM     33  C   UNL     1       1.171   2.086   0.002  0.00  0.00    +0.000 A 
ATOM     34  C   UNL     1       2.377   1.411  -0.013  0.00  0.00    +0.003 A 
ATOM     35  C   UNL     1       2.396   0.029  -0.020  0.00  0.00    -0.046 A 
ATOM     36  C   UNL     1       1.208  -0.679  -0.012  0.00  0.00    +0.003 A 
ATOM     37  C   UNL     1       0.002  -0.004   0.002  0.00  0.00    +0.000 A 
ENDBRANCH  31  35
ENDBRANCH  30  31
ENDBRANCH  28  30
ENDBRANCH   1  28
TORSDOF 9
