REMARK  Name = ZINC63778232
REMARK  8 active torsions:
REMARK  status: ('A' for Active; 'I' for Inactive)
REMARK    1  A    between atoms: C_5  and  C_7
REMARK    2  A    between atoms: C_7  and  N_8
REMARK    3  A    between atoms: C_9  and  C_11
REMARK    4  A    between atoms: C_11  and  C_13
REMARK    5  A    between atoms: C_11  and  N_23
REMARK    6  A    between atoms: C_13  and  C_14
REMARK    7  A    between atoms: N_23  and  S_24
REMARK    8  A    between atoms: S_24  and  C_27
REMARK                            x       y       z     vdW  Elec       q    Type
REMARK                         _______ _______ _______ _____ _____    ______ ____
ROOT
ATOM      1  C   UNL     1       1.817  -4.512   2.961  0.00  0.00    +0.166 C 
ENDROOT
BRANCH   1   3
ATOM      2  N   UNL     1       1.488  -2.679   1.333  0.00  0.00    -0.310 N 
ATOM      3  C   UNL     1       1.550  -4.005   1.567  0.00  0.00    +0.232 C 
ATOM      4  O   UNL     1       1.392  -4.790   0.656  0.00  0.00    -0.274 OA
ATOM      5  H   UNL     1       1.614  -2.051   2.062  0.00  0.00    +0.149 HD
BRANCH   2   6
ATOM      6  C   UNL     1       1.228  -2.186  -0.022  0.00  0.00    +0.142 C 
BRANCH   6  11
ATOM      7  C   UNL     1      -0.017   1.378   0.010  0.00  0.00    +0.000 A 
ATOM      8  C   UNL     1       1.171   2.087   0.002  0.00  0.00    +0.003 A 
ATOM      9  C   UNL     1       2.377   1.414  -0.013  0.00  0.00    +0.038 A 
ATOM     10  C   UNL     1       2.397   0.029  -0.021  0.00  0.00    +0.128 A 
ATOM     11  C   UNL     1       1.208  -0.679  -0.013  0.00  0.00    +0.005 A 
ATOM     12  C   UNL     1       0.002  -0.004   0.002  0.00  0.00    +0.008 A 
ATOM     13  F   UNL     1       3.577  -0.630  -0.036  0.00  0.00    -0.205 F 
ENDBRANCH   6  11
ENDBRANCH   2   6
ENDBRANCH   1   3
BRANCH   1  14
ATOM     14  N   UNL     1       1.837  -5.977   2.953  0.00  0.00    -0.178 NA
ATOM     15  H   UNL     1       2.191  -6.452   2.185  0.00  0.00    +0.149 HD
BRANCH  14  16
ATOM     16  S   UNL     1       1.255  -6.820   4.253  0.00  0.00    +0.059 S 
ATOM     17  O   UNL     1       1.385  -8.199   3.934  0.00  0.00    -0.153 OA
ATOM     18  O   UNL     1       1.850  -6.246   5.409  0.00  0.00    -0.153 OA
BRANCH  16  19
ATOM     19  C   UNL     1      -0.472  -6.488   4.359  0.00  0.00    +0.105 A 
ATOM     20  C   UNL     1      -0.926  -5.416   5.104  0.00  0.00    +0.030 A 
ATOM     21  C   UNL     1      -2.280  -5.155   5.187  0.00  0.00    +0.022 A 
ATOM     22  C   UNL     1      -3.183  -5.967   4.524  0.00  0.00    +0.041 A 
ATOM     23  C   UNL     1      -2.729  -7.040   3.778  0.00  0.00    +0.022 A 
ATOM     24  C   UNL     1      -1.373  -7.297   3.691  0.00  0.00    +0.030 A 
ATOM     25 CL   UNL     1      -4.885  -5.640   4.628  0.00  0.00    -0.084 Cl
ENDBRANCH  16  19
ENDBRANCH  14  16
ENDBRANCH   1  14
BRANCH   1  26
ATOM     26  C   UNL     1       3.171  -3.986   3.444  0.00  0.00    +0.063 C 
BRANCH  26  27
ATOM     27  C   UNL     1       3.383  -4.391   4.881  0.00  0.00    -0.040 C 
ATOM     28  C   UNL     1       4.056  -5.475   5.329  0.00  0.00    -0.001 A 
ATOM     29  C   UNL     1       4.764  -6.561   4.641  0.00  0.00    +0.010 A 
ATOM     30  C   UNL     1       5.355  -7.529   5.378  0.00  0.00    +0.001 A 
ATOM     31  C   UNL     1       5.307  -7.522   6.778  0.00  0.00    +0.002 A 
ATOM     32  C   UNL     1       4.676  -6.558   7.482  0.00  0.00    +0.026 A 
ATOM     33  C   UNL     1       4.021  -5.490   6.809  0.00  0.00    +0.043 A 
ATOM     34  N   UNL     1       3.352  -4.455   7.258  0.00  0.00    -0.380 N 
ATOM     35  C   UNL     1       2.892  -3.663   6.112  0.00  0.00    +0.144 C 
ATOM     36  H   UNL     1       3.191  -4.247   8.191  0.00  0.00    +0.160 HD
ENDBRANCH  26  27
ENDBRANCH   1  26
TORSDOF 8
