REMARK  Name = ZINC39330106
REMARK  5 active torsions:
REMARK  status: ('A' for Active; 'I' for Inactive)
REMARK    1  A    between atoms: C_4  and  C_7
REMARK    2  A    between atoms: C_17  and  S_19
REMARK    3  A    between atoms: S_19  and  C_20
REMARK    4  A    between atoms: C_24  and  C_33
REMARK    5  A    between atoms: N_26  and  C_27
REMARK                            x       y       z     vdW  Elec       q    Type
REMARK                         _______ _______ _______ _____ _____    ______ ____
ROOT
ATOM      1  S   UNL     1       3.103  -2.424  -0.945  0.00  0.00    -0.104 S 
ENDROOT
BRANCH   1  12
ATOM      2  C   UNL     1       5.407  -3.082   0.297  0.00  0.00    -0.010 C 
ATOM      3  C   UNL     1       5.717  -4.157   1.134  0.00  0.00    +0.001 A 
ATOM      4  C   UNL     1       6.911  -4.887   0.958  0.00  0.00    +0.010 A 
ATOM      5  C   UNL     1       7.189  -5.929   1.787  0.00  0.00    +0.001 A 
ATOM      6  C   UNL     1       6.317  -6.292   2.811  0.00  0.00    +0.002 A 
ATOM      7  C   UNL     1       5.150  -5.625   3.031  0.00  0.00    +0.024 A 
ATOM      8  C   UNL     1       4.797  -4.538   2.212  0.00  0.00    +0.041 A 
ATOM      9  N   UNL     1       3.651  -3.884   2.430  0.00  0.00    -0.284 N 
ATOM     10  C   UNL     1       3.250  -2.857   1.707  0.00  0.00    +0.235 C 
ATOM     11  O   UNL     1       2.193  -2.310   1.962  0.00  0.00    -0.274 OA
ATOM     12  C   UNL     1       4.104  -2.353   0.567  0.00  0.00    +0.166 C 
ATOM     13  H   UNL     1       3.084  -4.182   3.158  0.00  0.00    +0.155 HD
BRANCH   2  17
ATOM     14  C   UNL     1       7.965  -1.915  -2.809  0.00  0.00    +0.000 A 
ATOM     15  C   UNL     1       7.492  -3.217  -2.760  0.00  0.00    +0.001 A 
ATOM     16  C   UNL     1       6.650  -3.610  -1.743  0.00  0.00    +0.008 A 
ATOM     17  C   UNL     1       6.273  -2.687  -0.754  0.00  0.00    -0.020 A 
ATOM     18  C   UNL     1       6.758  -1.371  -0.813  0.00  0.00    +0.008 A 
ATOM     19  C   UNL     1       7.599  -0.998  -1.838  0.00  0.00    +0.001 A 
ENDBRANCH   2  17
ENDBRANCH   1  12
BRANCH   1  20
ATOM     20  C   UNL     1       2.724  -4.187  -1.138  0.00  0.00    +0.218 C 
ATOM     21  N   UNL     1       3.938  -5.009  -0.890  0.00  0.00    -0.226 NA
ATOM     22  N   UNL     1       3.379  -6.316  -0.507  0.00  0.00    -0.230 NA
ATOM     23  C   UNL     1       2.184  -5.982   0.302  0.00  0.00    +0.195 C 
ATOM     24  N   UNL     1       1.766  -4.626  -0.103  0.00  0.00    -0.283 N 
ATOM     25  H   UNL     1       4.499  -5.087  -1.725  0.00  0.00    +0.143 HD
ATOM     26  H   UNL     1       4.043  -6.849   0.033  0.00  0.00    +0.143 HD
BRANCH  24  27
ATOM     27  C   UNL     1       0.681  -3.900   0.394  0.00  0.00    +0.033 A 
ATOM     28  C   UNL     1       0.312  -2.702  -0.205  0.00  0.00    +0.023 A 
ATOM     29  C   UNL     1      -0.761  -1.987   0.289  0.00  0.00    +0.002 A 
ATOM     30  C   UNL     1      -1.468  -2.462   1.378  0.00  0.00    +0.000 A 
ATOM     31  C   UNL     1      -1.103  -3.654   1.977  0.00  0.00    +0.002 A 
ATOM     32  C   UNL     1      -0.034  -4.377   1.485  0.00  0.00    +0.023 A 
ENDBRANCH  24  27
BRANCH  23  33
ATOM     33  C   UNL     1       1.079  -6.967   0.021  0.00  0.00    +0.026 A 
ATOM     34  C   UNL     1       1.168  -8.278  -0.311  0.00  0.00    +0.014 A 
ATOM     35  C   UNL     1       0.006  -8.996  -0.525  0.00  0.00    +0.008 A 
ATOM     36  C   UNL     1      -1.188  -8.367  -0.396  0.00  0.00    +0.045 A 
ATOM     37  S   UNL     1      -0.688  -6.711   0.047  0.00  0.00    -0.098 S 
ENDBRANCH  23  33
ENDBRANCH   1  20
TORSDOF 5
