REMARK  Name = ZINC45548566
REMARK  6 active torsions:
REMARK  status: ('A' for Active; 'I' for Inactive)
REMARK    1  A    between atoms: C_4  and  C_7
REMARK    2  A    between atoms: N_10  and  C_13
REMARK    3  A    between atoms: C_13  and  C_14
REMARK    4  A    between atoms: N_16  and  C_17
REMARK    5  A    between atoms: C_21  and  S_23
REMARK    6  A    between atoms: S_23  and  N_26
REMARK                            x       y       z     vdW  Elec       q    Type
REMARK                         _______ _______ _______ _____ _____    ______ ____
ROOT
ATOM      1  C   UNL     1       6.365  -4.903  -1.366  0.00  0.00    +0.201 C 
ATOM      2  O   UNL     1       5.497  -4.796  -2.207  0.00  0.00    -0.278 OA
ATOM      3  N   UNL     1       7.299  -5.868  -1.479  0.00  0.00    -0.287 N 
ATOM      4  H   UNL     1       8.036  -5.906  -0.850  0.00  0.00    +0.155 HD
ENDROOT
BRANCH   3   5
ATOM      5  C   UNL     1       7.205  -6.815  -2.505  0.00  0.00    +0.035 A 
ATOM      6  C   UNL     1       8.357  -7.337  -3.078  0.00  0.00    +0.023 A 
ATOM      7  C   UNL     1       8.262  -8.271  -4.090  0.00  0.00    +0.004 A 
ATOM      8  C   UNL     1       7.019  -8.687  -4.534  0.00  0.00    +0.029 A 
ATOM      9  C   UNL     1       5.870  -8.169  -3.967  0.00  0.00    +0.114 A 
ATOM     10  C   UNL     1       5.959  -7.239  -2.949  0.00  0.00    +0.052 A 
BRANCH   9  11
ATOM     11  S   UNL     1       4.290  -8.701  -4.536  0.00  0.00    +0.100 S 
ATOM     12  O   UNL     1       3.373  -7.663  -4.219  0.00  0.00    -0.146 OA
ATOM     13  O   UNL     1       4.475  -9.174  -5.863  0.00  0.00    -0.146 OA
BRANCH  11  14
ATOM     14  N   UNL     1       3.856 -10.012  -3.623  0.00  0.00    -0.118 NA
ATOM     15  C   UNL     1       2.726 -10.604  -3.836  0.00  0.00    +0.117 C 
ATOM     16  C   UNL     1       1.718 -10.201  -4.890  0.00  0.00    +0.074 C 
ATOM     17  C   UNL     1       0.790 -11.430  -5.021  0.00  0.00    +0.026 C 
ATOM     18  C   UNL     1       0.943 -12.099  -3.637  0.00  0.00    +0.103 C 
ATOM     19  N   UNL     1       2.265 -11.691  -3.147  0.00  0.00    -0.331 N 
ATOM     20  H   UNL     1       2.745 -12.132  -2.429  0.00  0.00    +0.147 HD
ENDBRANCH  11  14
ENDBRANCH   9  11
ENDBRANCH   3   5
BRANCH   1  21
ATOM     21  C   UNL     1       6.398  -3.956  -0.194  0.00  0.00    +0.019 C 
BRANCH  21  25
ATOM     22  C   UNL     1       4.155  -0.340  -0.412  0.00  0.00    +0.016 C 
ATOM     23  C   UNL     1       4.038  -1.225   0.832  0.00  0.00    -0.011 C 
ATOM     24  C   UNL     1       5.245  -2.162   0.901  0.00  0.00    -0.078 C 
ATOM     25  N   UNL     1       5.283  -3.006  -0.300  0.00  0.00    +0.385 N 
ATOM     26  C   UNL     1       5.468  -2.168  -1.491  0.00  0.00    -0.078 C 
ATOM     27  C   UNL     1       4.269  -1.232  -1.652  0.00  0.00    -0.011 C 
ATOM     28  H   UNL     1       4.416  -3.515  -0.379  0.00  0.00    -0.081 HD
BRANCH  22  32
ATOM     29  C   UNL     1       0.685   2.129  -0.743  0.00  0.00    +0.000 A 
ATOM     30  C   UNL     1       1.936   2.707  -0.631  0.00  0.00    +0.000 A 
ATOM     31  C   UNL     1       3.059   1.908  -0.524  0.00  0.00    +0.004 A 
ATOM     32  C   UNL     1       2.931   0.531  -0.528  0.00  0.00    -0.044 A 
ATOM     33  C   UNL     1       1.680  -0.046  -0.639  0.00  0.00    +0.004 A 
ATOM     34  C   UNL     1       0.557   0.753  -0.748  0.00  0.00    +0.000 A 
ENDBRANCH  22  32
ENDBRANCH  21  25
ENDBRANCH   1  21
TORSDOF 6
