REMARK  Name = ZINC43210517
REMARK  11 active torsions:
REMARK  status: ('A' for Active; 'I' for Inactive)
REMARK    1  A    between atoms: C_1  and  C_2
REMARK    2  A    between atoms: C_2  and  O_4
REMARK    3  A    between atoms: O_4  and  C_5
REMARK    4  A    between atoms: C_8  and  C_11
REMARK    5  A    between atoms: N_19  and  C_22
REMARK    6  A    between atoms: C_22  and  C_23
REMARK    7  A    between atoms: C_22  and  C_24
REMARK    8  A    between atoms: C_22  and  C_25
REMARK    9  A    between atoms: C_26  and  C_28
REMARK   10  A    between atoms: C_26  and  C_39
REMARK   11  A    between atoms: C_28  and  C_29
REMARK                            x       y       z     vdW  Elec       q    Type
REMARK                         _______ _______ _______ _____ _____    ______ ____
ROOT
ATOM      1  C   UNL     1      -0.475  -6.282   0.133  0.00  0.00    -0.027 C 
ATOM      2  C   UNL     1      -0.502  -6.846  -1.278  0.00  0.00    +0.077 C 
ATOM      3  C   UNL     1      -2.062  -7.015  -1.431  0.00  0.00    +0.086 C 
ATOM      4  C   UNL     1      -2.202  -7.172  -2.857  0.00  0.00    +0.225 C 
ATOM      5  O   UNL     1      -3.012  -7.852  -3.448  0.00  0.00    -0.275 OA
ATOM      6  N   UNL     1      -1.218  -6.383  -3.400  0.00  0.00    -0.236 N 
ATOM      7  C   UNL     1      -0.286  -5.971  -2.474  0.00  0.00    +0.225 C 
ATOM      8  O   UNL     1       0.534  -5.087  -2.593  0.00  0.00    -0.275 OA
ATOM      9  C   UNL     1      -2.418  -7.704  -0.178  0.00  0.00    +0.052 C 
ATOM     10  N   UNL     1      -1.619  -6.925   0.846  0.00  0.00    +0.396 N 
ATOM     11  H   UNL     1      -1.270  -7.555   1.553  0.00  0.00    -0.083 HD
ATOM     12  H   UNL     1      -2.197  -6.217   1.274  0.00  0.00    -0.083 HD
ENDROOT
BRANCH   1  16
ATOM     13  C   UNL     1      -0.988  -2.040   0.039  0.00  0.00    +0.132 A 
ATOM     14  C   UNL     1      -2.095  -2.875   0.003  0.00  0.00    +0.046 A 
ATOM     15  C   UNL     1      -1.927  -4.246   0.033  0.00  0.00    +0.005 A 
ATOM     16  C   UNL     1      -0.656  -4.786   0.100  0.00  0.00    -0.060 A 
ATOM     17  C   UNL     1       0.450  -3.956   0.136  0.00  0.00    +0.005 A 
ATOM     18  C   UNL     1       0.286  -2.585   0.100  0.00  0.00    +0.046 A 
BRANCH  13  19
ATOM     19  O   UNL     1      -1.151  -0.691   0.008  0.00  0.00    -0.426 OA
BRANCH  19  21
ATOM     20  C   UNL     1      -1.658   1.422   1.181  0.00  0.00    +0.136 C 
ATOM     21  C   UNL     1      -1.570  -0.082   1.129  0.00  0.00    +0.309 C 
ATOM     22  O   UNL     1      -1.875  -0.738   2.096  0.00  0.00    -0.251 OA
ENDBRANCH  19  21
ENDBRANCH  13  19
ENDBRANCH   1  16
BRANCH   6  23
ATOM     23  C   UNL     1      -1.157  -6.024  -4.819  0.00  0.00    +0.036 C 
ATOM     24  C   UNL     1      -2.427  -5.263  -5.208  0.00  0.00    +0.031 C 
ATOM     25  C   UNL     1       0.065  -5.138  -5.069  0.00  0.00    +0.031 C 
ATOM     26  C   UNL     1      -1.047  -7.296  -5.663  0.00  0.00    +0.031 C 
ENDBRANCH   6  23
BRANCH   9  27
ATOM     27  C   UNL     1      -1.998  -9.151  -0.225  0.00  0.00    +0.347 C 
ATOM     28  O   UNL     1      -1.208  -9.582   0.598  0.00  0.00    -0.248 OA
ATOM     29  O   UNL     1      -2.447  -9.889  -1.084  0.00  0.00    -0.248 OA
ENDBRANCH   9  27
BRANCH   9  30
ATOM     30  C   UNL     1      -3.917  -7.581   0.103  0.00  0.00    +0.037 C 
BRANCH  30  31
ATOM     31  C   UNL     1      -4.227  -8.188   1.448  0.00  0.00    -0.023 A 
ATOM     32  C   UNL     1      -4.643  -9.442   1.680  0.00  0.00    +0.087 A 
ATOM     33  N   UNL     1      -4.822  -9.633   3.023  0.00  0.00    -0.360 N 
ATOM     34  H   UNL     1      -5.119 -10.460   3.434  0.00  0.00    +0.165 HD
ATOM     35  C   UNL     1      -4.517  -8.476   3.705  0.00  0.00    +0.047 A 
ATOM     36  C   UNL     1      -4.125  -7.522   2.748  0.00  0.00    +0.003 A 
ATOM     37  C   UNL     1      -3.750  -6.241   3.156  0.00  0.00    +0.010 A 
ATOM     38  C   UNL     1      -3.762  -5.921   4.485  0.00  0.00    +0.001 A 
ATOM     39  C   UNL     1      -4.144  -6.860   5.433  0.00  0.00    +0.002 A 
ATOM     40  C   UNL     1      -4.527  -8.127   5.051  0.00  0.00    +0.026 A 
ENDBRANCH  30  31
ENDBRANCH   9  30
TORSDOF 7
