REMARK  Name = ZINC65748996
REMARK  6 active torsions:
REMARK  status: ('A' for Active; 'I' for Inactive)
REMARK    1  A    between atoms: C_1  and  C_2
REMARK    2  A    between atoms: C_5  and  O_37
REMARK    3  A    between atoms: N_15  and  C_18
REMARK    4  A    between atoms: C_18  and  C_19
REMARK    5  A    between atoms: C_18  and  C_25
REMARK    6  A    between atoms: C_18  and  C_31
REMARK                            x       y       z     vdW  Elec       q    Type
REMARK                         _______ _______ _______ _____ _____    ______ ____
ROOT
ATOM      1  C   UNL     1       0.173   0.058  -0.628  0.00  0.00    +0.030 C 
ATOM      2  C   UNL     1       0.334  -1.435  -0.331  0.00  0.00    +0.083 C 
ATOM      3  C   UNL     1      -1.042  -2.087  -0.343  0.00  0.00    +0.076 C 
ATOM      4  C   UNL     1      -1.009  -3.408   0.429  0.00  0.00    +0.214 C 
ATOM      5  N   UNL     1      -0.489  -3.142   1.776  0.00  0.00    -0.213 N 
ATOM      6  C   UNL     1      -1.127  -3.667   2.852  0.00  0.00    +0.276 C 
ATOM      7  O   UNL     1      -2.094  -4.397   2.735  0.00  0.00    -0.268 OA
ATOM      8  C   UNL     1      -0.581  -3.304   4.163  0.00  0.00    +0.166 A 
ATOM      9  C   UNL     1       0.646  -2.632   4.249  0.00  0.00    +0.139 A 
ATOM     10  N   UNL     1       1.346  -2.324   3.100  0.00  0.00    -0.273 N 
ATOM     11  C   UNL     1       0.628  -2.347   1.911  0.00  0.00    +0.171 C 
ATOM     12  N   UNL     1       1.018  -1.588   0.938  0.00  0.00    -0.358 N 
ATOM     13  N   UNL     1       0.879  -2.426   5.557  0.00  0.00    -0.300 N 
ATOM     14  C   UNL     1      -0.171  -2.963   6.252  0.00  0.00    +0.202 A 
ATOM     15  N   UNL     1      -1.030  -3.482   5.415  0.00  0.00    -0.229 NA
ATOM     16  H   UNL     1       1.835  -1.082   1.068  0.00  0.00    +0.162 HD
ATOM     17  H   UNL     1       2.291  -2.103   3.121  0.00  0.00    +0.156 HD
ENDROOT
BRANCH   4  18
ATOM     18  O   UNL     1      -0.156  -4.337  -0.242  0.00  0.00    -0.374 OA
ATOM     19  H   UNL     1      -0.090  -5.197   0.196  0.00  0.00    +0.212 HD
ENDBRANCH   4  18
BRANCH  13  20
ATOM     20  C   UNL     1       2.045  -1.750   6.133  0.00  0.00    +0.124 C 
BRANCH  20  21
ATOM     21  C   UNL     1       2.001  -1.866   7.635  0.00  0.00    -0.013 A 
ATOM     22  C   UNL     1       3.034  -2.489   8.311  0.00  0.00    +0.006 A 
ATOM     23  C   UNL     1       2.993  -2.595   9.688  0.00  0.00    +0.000 A 
ATOM     24  C   UNL     1       1.920  -2.078  10.390  0.00  0.00    +0.000 A 
ATOM     25  C   UNL     1       0.888  -1.455   9.714  0.00  0.00    +0.000 A 
ATOM     26  C   UNL     1       0.930  -1.345   8.337  0.00  0.00    +0.006 A 
ENDBRANCH  20  21
BRANCH  20  27
ATOM     27  C   UNL     1       3.305  -2.395   5.616  0.00  0.00    -0.013 A 
ATOM     28  C   UNL     1       3.506  -3.752   5.784  0.00  0.00    +0.006 A 
ATOM     29  C   UNL     1       4.662  -4.343   5.309  0.00  0.00    +0.000 A 
ATOM     30  C   UNL     1       5.617  -3.577   4.668  0.00  0.00    +0.000 A 
ATOM     31  C   UNL     1       5.416  -2.220   4.500  0.00  0.00    +0.000 A 
ATOM     32  C   UNL     1       4.258  -1.630   4.970  0.00  0.00    +0.006 A 
ENDBRANCH  20  27
BRANCH  20  33
ATOM     33  C   UNL     1       2.027  -0.295   5.741  0.00  0.00    -0.013 A 
ATOM     34  C   UNL     1       1.049   0.178   4.886  0.00  0.00    +0.006 A 
ATOM     35  C   UNL     1       1.033   1.513   4.526  0.00  0.00    +0.000 A 
ATOM     36  C   UNL     1       1.995   2.374   5.021  0.00  0.00    +0.000 A 
ATOM     37  C   UNL     1       2.972   1.900   5.877  0.00  0.00    +0.000 A 
ATOM     38  C   UNL     1       2.986   0.567   6.240  0.00  0.00    +0.006 A 
ENDBRANCH  20  33
ENDBRANCH  13  20
TORSDOF 5
