REMARK  Name = ZINC09727184
REMARK  15 active torsions:
REMARK  status: ('A' for Active; 'I' for Inactive)
REMARK    1  A    between atoms: C_1  and  C_2
REMARK    2  A    between atoms: C_2  and  C_3
REMARK    3  A    between atoms: C_2  and  C_4
REMARK    4  A    between atoms: C_4  and  C_5
REMARK    5  A    between atoms: N_7  and  C_8
REMARK    6  A    between atoms: C_11  and  C_14
REMARK    7  A    between atoms: C_14  and  C_16
REMARK    8  A    between atoms: C_16  and  S_17
REMARK    9  A    between atoms: S_17  and  C_18
REMARK   10  A    between atoms: C_21  and  C_30
REMARK   11  A    between atoms: N_22  and  C_23
REMARK   12  A    between atoms: C_30  and  C_32
REMARK   13  A    between atoms: C_30  and  N_64
REMARK   14  A    between atoms: C_33  and  N_64
REMARK   15  A    between atoms: C_34  and  N_64
REMARK                            x       y       z     vdW  Elec       q    Type
REMARK                         _______ _______ _______ _____ _____    ______ ____
ROOT
ATOM      1  S   UNL     1      -6.888   5.455  -0.343  0.00  0.00    -0.078 S 
ENDROOT
BRANCH   1   2
ATOM      2  C   UNL     1      -6.708   7.200  -0.502  0.00  0.00    +0.196 A 
ATOM      3  N   UNL     1      -5.578   7.865  -0.571  0.00  0.00    -0.122 NA
ATOM      4  N   UNL     1      -5.817   9.123  -0.683  0.00  0.00    -0.135 NA
ATOM      5  C   UNL     1      -7.103   9.337  -0.693  0.00  0.00    +0.125 A 
ATOM      6  N   UNL     1      -7.718   8.118  -0.583  0.00  0.00    -0.275 N 
BRANCH   6   7
ATOM      7  C   UNL     1      -9.098   7.865  -0.555  0.00  0.00    +0.050 A 
ATOM      8  C   UNL     1      -9.878   8.143  -1.670  0.00  0.00    +0.029 A 
ATOM      9  C   UNL     1     -11.235   7.887  -1.643  0.00  0.00    +0.040 A 
ATOM     10  C   UNL     1     -11.820   7.366  -0.502  0.00  0.00    +0.124 A 
ATOM     11  C   UNL     1     -11.045   7.093   0.613  0.00  0.00    +0.040 A 
ATOM     12  C   UNL     1      -9.686   7.342   0.588  0.00  0.00    +0.029 A 
ATOM     13  F   UNL     1     -13.149   7.122  -0.475  0.00  0.00    -0.205 F 
ENDBRANCH   6   7
BRANCH   5  14
ATOM     14  C   UNL     1      -7.785  10.675  -0.809  0.00  0.00    -0.003 C 
ATOM     15  C   UNL     1      -7.673  11.422   0.522  0.00  0.00    -0.005 C 
BRANCH  14  18
ATOM     16  C   UNL     1      -7.854  12.728  -2.092  0.00  0.00    -0.096 C 
ATOM     17  C   UNL     1      -5.725  11.704  -1.558  0.00  0.00    -0.096 C 
ATOM     18  N   UNL     1      -7.142  11.448  -1.893  0.00  0.00    +0.382 N 
ATOM     19  H   UNL     1      -7.186  10.903  -2.762  0.00  0.00    -0.082 HD
ENDBRANCH  14  18
ENDBRANCH   5  14
ENDBRANCH   1   2
BRANCH   1  20
ATOM     20  C   UNL     1      -5.147   4.960  -0.312  0.00  0.00    +0.157 C 
BRANCH  20  21
ATOM     21  C   UNL     1      -5.053   3.462  -0.177  0.00  0.00    +0.173 C 
ATOM     22  O   UNL     1      -6.063   2.794  -0.109  0.00  0.00    -0.291 OA
BRANCH  21  26
ATOM     23  C   UNL     1      -1.259   1.584  -0.038  0.00  0.00    +0.033 A 
ATOM     24  C   UNL     1      -1.344   2.968  -0.157  0.00  0.00    +0.024 A 
ATOM     25  C   UNL     1      -2.570   3.580  -0.207  0.00  0.00    +0.013 A 
ATOM     26  C   UNL     1      -3.737   2.811  -0.129  0.00  0.00    +0.018 A 
ATOM     27  C   UNL     1      -3.647   1.419  -0.004  0.00  0.00    +0.013 A 
ATOM     28  C   UNL     1      -2.417   0.815   0.041  0.00  0.00    +0.024 A 
BRANCH  23  31
ATOM     29  C   UNL     1       1.022   1.578   0.619  0.00  0.00    +0.217 C 
ATOM     30  O   UNL     1       0.887   2.699   1.061  0.00  0.00    -0.275 OA
ATOM     31  N   UNL     1      -0.011   0.966   0.007  0.00  0.00    -0.285 N 
ATOM     32  H   UNL     1       0.115   0.097  -0.405  0.00  0.00    +0.155 HD
BRANCH  29  33
ATOM     33  C   UNL     1       2.346   0.870   0.753  0.00  0.00    +0.099 C 
BRANCH  33  35
ATOM     34  C   UNL     1       2.860   2.015   2.913  0.00  0.00    +0.008 C 
ATOM     35  C   UNL     1       3.339   1.778   1.479  0.00  0.00    -0.008 C 
ATOM     36  C   UNL     1       4.716   1.111   1.506  0.00  0.00    +0.008 C 
ENDBRANCH  33  35
ENDBRANCH  29  33
ENDBRANCH  23  31
ENDBRANCH  21  26
ENDBRANCH  20  21
ENDBRANCH   1  20
TORSDOF 10
