REMARK  Name = ZINC08934161
REMARK  7 active torsions:
REMARK  status: ('A' for Active; 'I' for Inactive)
REMARK    1  A    between atoms: C_1  and  C_2
REMARK    2  A    between atoms: C_2  and  C_3
REMARK    3  A    between atoms: C_2  and  N_47
REMARK    4  A    between atoms: C_10  and  C_22
REMARK    5  A    between atoms: C_12  and  C_18
REMARK    6  A    between atoms: C_12  and  C_20
REMARK    7  A    between atoms: C_14  and  C_15
REMARK                            x       y       z     vdW  Elec       q    Type
REMARK                         _______ _______ _______ _____ _____    ______ ____
ROOT
ATOM      1  C   UNL     1       0.377   3.644  -3.391  0.00  0.00    -0.051 C 
ATOM      2  C   UNL     1       0.597   4.302  -2.052  0.00  0.00    -0.044 C 
ATOM      3  C   UNL     1      -0.199   4.021  -1.037  0.00  0.00    -0.051 C 
ATOM      4  C   UNL     1      -1.379   3.098  -1.152  0.00  0.00    +0.010 C 
ATOM      5  C   UNL     1      -1.466   2.384  -2.482  0.00  0.00    -0.070 C 
ATOM      6  C   UNL     1      -1.331   2.116   0.020  0.00  0.00    +0.067 C 
ATOM      7  C   UNL     1      -1.473   2.894   1.328  0.00  0.00    +0.188 C 
ATOM      8  C   UNL     1      -0.505   4.040   1.397  0.00  0.00    +0.065 C 
ATOM      9  C   UNL     1       0.089   4.586   0.305  0.00  0.00    +0.163 C 
ATOM     10  N   UNL     1      -0.206   4.561   2.624  0.00  0.00    -0.304 NA
ATOM     11  H   UNL     1       0.417   5.301   2.699  0.00  0.00    +0.186 HD
ATOM     12  N   UNL     1      -0.147   2.285  -3.128  0.00  0.00    +0.384 N 
ATOM     13  H   UNL     1       0.498   1.793  -2.500  0.00  0.00    -0.081 HD
ENDROOT
BRANCH   6  14
ATOM     14  C   UNL     1      -0.015   1.381   0.009  0.00  0.00    -0.005 A 
ATOM     15  C   UNL     1       1.119   1.986   0.517  0.00  0.00    +0.022 A 
ATOM     16  C   UNL     1       2.328   1.314   0.502  0.00  0.00    +0.018 A 
ATOM     17  C   UNL     1       2.402   0.035  -0.021  0.00  0.00    +0.018 A 
ATOM     18  C   UNL     1       1.270  -0.571  -0.529  0.00  0.00    +0.040 A 
ATOM     19  C   UNL     1       0.059   0.101  -0.515  0.00  0.00    +0.127 A 
ATOM     20  F   UNL     1      -1.049  -0.491  -1.010  0.00  0.00    -0.205 F 
ATOM     21 BR   UNL     1       3.878   2.143   1.197  0.00  0.00    -0.050 Br
ENDBRANCH   6  14
BRANCH  12  23
ATOM     22  C   UNL     1       1.115   1.480  -5.069  0.00  0.00    -0.014 C 
ATOM     23  C   UNL     1      -0.257   1.529  -4.395  0.00  0.00    -0.074 C 
ATOM     24  C   UNL     1      -0.725   0.105  -4.087  0.00  0.00    -0.014 C 
ENDBRANCH  12  23
BRANCH   9  25
ATOM     25  C   UNL     1       0.984   5.695   0.446  0.00  0.00    +0.076 C 
ATOM     26  N   UNL     1       1.694   6.575   0.558  0.00  0.00    -0.196 NA
ENDBRANCH   9  25
BRANCH   7  27
ATOM     27  C   UNL     1      -1.224   1.984   2.458  0.00  0.00    +0.091 C 
ATOM     28  N   UNL     1      -1.033   1.281   3.329  0.00  0.00    -0.195 NA
ENDBRANCH   7  27
BRANCH   7  29
ATOM     29  C   UNL     1      -2.844   3.419   1.429  0.00  0.00    +0.091 C 
ATOM     30  N   UNL     1      -3.903   3.823   1.508  0.00  0.00    -0.195 NA
ENDBRANCH   7  29
TORSDOF 5
