REMARK  Name = ZINC17345800
REMARK  13 active torsions:
REMARK  status: ('A' for Active; 'I' for Inactive)
REMARK    1  A    between atoms: C_1  and  C_2
REMARK    2  A    between atoms: C_2  and  C_3
REMARK    3  A    between atoms: C_3  and  C_4
REMARK    4  A    between atoms: C_4  and  N_5
REMARK    5  A    between atoms: N_5  and  C_6
REMARK    6  A    between atoms: C_7  and  N_19
REMARK    7  A    between atoms: N_8  and  C_15
REMARK    8  A    between atoms: C_15  and  C_16
REMARK    9  A    between atoms: C_16  and  C_17
REMARK   10  A    between atoms: C_16  and  C_18
REMARK   11  A    between atoms: C_20  and  C_22
REMARK   12  A    between atoms: C_23  and  C_34
REMARK   13  A    between atoms: C_25  and  C_27
REMARK                            x       y       z     vdW  Elec       q    Type
REMARK                         _______ _______ _______ _____ _____    ______ ____
ROOT
ATOM      1  N   UNL     1       0.051   1.251  -0.001  0.00  0.00    -0.260 N 
ATOM      2  C   UNL     1       0.348  -0.056  -0.144  0.00  0.00    +0.259 C 
ATOM      3  O   UNL     1       1.469  -0.392  -0.482  0.00  0.00    -0.269 OA
ENDROOT
BRANCH   1   4
ATOM      4  C   UNL     1       1.062   2.224  -0.146  0.00  0.00    +0.140 A 
ATOM      5  C   UNL     1       2.151   2.236   0.702  0.00  0.00    +0.127 A 
ATOM      6  N   UNL     1       3.120   3.198   0.536  0.00  0.00    -0.280 N 
ATOM      7  C   UNL     1       3.008   4.116  -0.441  0.00  0.00    +0.331 A 
ATOM      8  O   UNL     1       3.876   4.958  -0.571  0.00  0.00    -0.246 OA
ATOM      9  N   UNL     1       1.954   4.120  -1.276  0.00  0.00    -0.273 N 
ATOM     10  H   UNL     1       1.893   4.816  -1.991  0.00  0.00    +0.173 HD
ATOM     11  C   UNL     1       0.980   3.196  -1.161  0.00  0.00    +0.277 A 
ATOM     12  O   UNL     1       0.032   3.205  -1.927  0.00  0.00    -0.266 OA
BRANCH   5  13
ATOM     13  N   UNL     1       2.265   1.299   1.701  0.00  0.00    -0.343 N 
ATOM     14  H   UNL     1       1.605   0.592   1.780  0.00  0.00    +0.144 HD
ATOM     15  H   UNL     1       3.005   1.344   2.326  0.00  0.00    +0.144 HD
ENDBRANCH   5  13
BRANCH   6  16
ATOM     16  C   UNL     1       4.282   3.223   1.429  0.00  0.00    +0.131 C 
BRANCH  16  17
ATOM     17  C   UNL     1       5.397   2.358   0.838  0.00  0.00    +0.003 C 
ATOM     18  C   UNL     1       5.882   2.979  -0.474  0.00  0.00    +0.009 C 
ATOM     19  C   UNL     1       6.562   2.283   1.827  0.00  0.00    +0.009 C 
ENDBRANCH  16  17
ENDBRANCH   6  16
ENDBRANCH   1   4
BRANCH   2  20
ATOM     20  C   UNL     1      -0.677  -1.073   0.108  0.00  0.00    +0.097 A 
ATOM     21  C   UNL     1      -0.628  -2.448  -0.081  0.00  0.00    +0.058 A 
ATOM     22  N   UNL     1      -1.690  -3.142   0.225  0.00  0.00    -0.243 NA
ATOM     23  C   UNL     1      -2.785  -2.564   0.701  0.00  0.00    +0.109 A 
ATOM     24  S   UNL     1      -2.334  -0.888   0.752  0.00  0.00    -0.062 S 
ATOM     25  C   UNL     1       0.610  -3.116  -0.622  0.00  0.00    +0.067 C 
BRANCH  23  26
ATOM     26  C   UNL     1      -4.063  -3.190   1.097  0.00  0.00    +0.007 A 
ATOM     27  C   UNL     1      -5.107  -2.402   1.587  0.00  0.00    +0.013 A 
ATOM     28  C   UNL     1      -6.300  -2.991   1.950  0.00  0.00    +0.039 A 
ATOM     29  C   UNL     1      -6.460  -4.363   1.839  0.00  0.00    +0.123 A 
ATOM     30  C   UNL     1      -5.426  -5.151   1.358  0.00  0.00    +0.039 A 
ATOM     31  C   UNL     1      -4.231  -4.572   0.987  0.00  0.00    +0.013 A 
ATOM     32  F   UNL     1      -7.629  -4.935   2.201  0.00  0.00    -0.205 F 
ENDBRANCH  23  26
ENDBRANCH   2  20
BRANCH   1  33
ATOM     33  C   UNL     1      -1.323   1.661   0.298  0.00  0.00    +0.114 C 
BRANCH  33  34
ATOM     34  C   UNL     1      -1.525   1.701   1.814  0.00  0.00    +0.019 C 
BRANCH  34  36
ATOM     35  C   UNL     1      -3.162   2.170   3.642  0.00  0.00    +0.004 C 
ATOM     36  C   UNL     1      -2.960   2.129   2.126  0.00  0.00    -0.002 C 
ENDBRANCH  34  36
ENDBRANCH  33  34
ENDBRANCH   1  33
TORSDOF 9
