REMARK  Name = ZINC41924373
REMARK  7 active torsions:
REMARK  status: ('A' for Active; 'I' for Inactive)
REMARK    1  A    between atoms: C_4  and  N_11
REMARK    2  A    between atoms: C_5  and  C_7
REMARK    3  A    between atoms: C_7  and  C_8
REMARK    4  A    between atoms: C_12  and  C_14
REMARK    5  A    between atoms: N_16  and  C_17
REMARK    6  A    between atoms: C_17  and  C_19
REMARK    7  A    between atoms: C_17  and  C_24
REMARK                            x       y       z     vdW  Elec       q    Type
REMARK                         _______ _______ _______ _____ _____    ______ ____
ROOT
ATOM      1  N   UNL     1       3.620  -0.649  -0.037  0.00  0.00    -0.277 N 
ATOM      2  C   UNL     1       4.774   0.038  -0.147  0.00  0.00    +0.303 C 
ATOM      3  O   UNL     1       4.760   1.252  -0.141  0.00  0.00    -0.265 OA
ATOM      4  H   UNL     1       3.636  -1.617   0.023  0.00  0.00    +0.155 HD
ENDROOT
BRANCH   1   8
ATOM      5  C   UNL     1      -0.015   1.381   0.041  0.00  0.00    +0.000 A 
ATOM      6  C   UNL     1       1.104   1.946   0.627  0.00  0.00    +0.002 A 
ATOM      7  C   UNL     1       2.311   1.275   0.603  0.00  0.00    +0.023 A 
ATOM      8  C   UNL     1       2.401   0.032  -0.011  0.00  0.00    +0.037 A 
ATOM      9  C   UNL     1       1.275  -0.532  -0.598  0.00  0.00    -0.017 A 
ATOM     10  C   UNL     1       0.071   0.144  -0.570  0.00  0.00    +0.006 A 
BRANCH   9  11
ATOM     11  C   UNL     1       1.368  -1.881  -1.265  0.00  0.00    +0.132 C 
BRANCH  11  12
ATOM     12  C   UNL     1       1.195  -2.965  -0.233  0.00  0.00    +0.215 C 
ATOM     13  O   UNL     1       1.014  -2.672   0.930  0.00  0.00    -0.276 OA
ATOM     14  N   UNL     1       1.241  -4.260  -0.602  0.00  0.00    -0.329 N 
ATOM     15  H   UNL     1       1.385  -4.495  -1.532  0.00  0.00    +0.145 HD
ATOM     16  H   UNL     1       1.129  -4.958   0.063  0.00  0.00    +0.145 HD
ENDBRANCH  11  12
ENDBRANCH   9  11
ENDBRANCH   1   8
BRANCH   2  17
ATOM     17  C   UNL     1       6.070  -0.693  -0.277  0.00  0.00    +0.300 C 
ATOM     18  O   UNL     1       6.084  -1.906  -0.284  0.00  0.00    -0.265 OA
ATOM     19  N   UNL     1       7.223  -0.005  -0.387  0.00  0.00    -0.300 N 
ATOM     20  H   UNL     1       7.212   0.965  -0.382  0.00  0.00    +0.150 HD
BRANCH  19  21
ATOM     21  C   UNL     1       8.495  -0.722  -0.514  0.00  0.00    +0.113 C 
BRANCH  21  22
ATOM     22  C   UNL     1       9.008  -1.082   0.856  0.00  0.00    +0.010 A 
ATOM     23  C   UNL     1       9.614  -2.222   1.268  0.00  0.00    +0.013 A 
ATOM     24  C   UNL     1      10.007  -2.333   2.589  0.00  0.00    +0.008 A 
ATOM     25  C   UNL     1       9.773  -1.298   3.433  0.00  0.00    +0.045 A 
ATOM     26  S   UNL     1       8.982  -0.114   2.356  0.00  0.00    -0.100 S 
ENDBRANCH  21  22
BRANCH  21  27
ATOM     27  C   UNL     1       9.515   0.171  -1.223  0.00  0.00    +0.014 C 
ATOM     28  C   UNL     1       9.688   1.494  -0.448  0.00  0.00    +0.006 C 
ATOM     29  C   UNL     1       9.867   2.562  -1.556  0.00  0.00    +0.000 C 
ATOM     30  C   UNL     1       8.884   2.084  -2.653  0.00  0.00    +0.000 C 
ATOM     31  C   UNL     1       9.004   0.546  -2.625  0.00  0.00    +0.006 C 
ENDBRANCH  21  27
ENDBRANCH  19  21
ENDBRANCH   2  17
TORSDOF 7
