REMARK  Name = ZINC17962620
REMARK  5 active torsions:
REMARK  status: ('A' for Active; 'I' for Inactive)
REMARK    1  A    between atoms: C_1  and  C_2
REMARK    2  A    between atoms: C_2  and  C_4
REMARK    3  A    between atoms: C_2  and  N_14
REMARK    4  A    between atoms: C_15  and  C_17
REMARK    5  A    between atoms: C_17  and  C_18
REMARK                            x       y       z     vdW  Elec       q    Type
REMARK                         _______ _______ _______ _____ _____    ______ ____
ROOT
ATOM      1  N   UNL     1       3.422   3.225   0.874  0.00  0.00    -0.308 N 
ATOM      2  C   UNL     1       4.442   3.911   1.427  0.00  0.00    +0.219 C 
ATOM      3  O   UNL     1       4.570   5.095   1.200  0.00  0.00    -0.275 OA
ATOM      4  H   UNL     1       3.320   2.278   1.055  0.00  0.00    +0.149 HD
ENDROOT
BRANCH   1   6
ATOM      5  C   UNL     1       3.021   3.951  -1.427  0.00  0.00    +0.033 C 
ATOM      6  C   UNL     1       2.467   3.911  -0.001  0.00  0.00    +0.100 C 
BRANCH   6   7
ATOM      7  C   UNL     1       1.155   3.170   0.008  0.00  0.00    -0.027 A 
ATOM      8  C   UNL     1       1.155   1.776   0.001  0.00  0.00    +0.006 A 
ATOM      9  C   UNL     1      -0.013   1.076   0.008  0.00  0.00    +0.009 A 
ATOM     10  C   UNL     1      -1.237   1.766   0.018  0.00  0.00    -0.018 A 
ATOM     11  C   UNL     1      -2.462   1.077   0.031  0.00  0.00    +0.008 A 
ATOM     12  C   UNL     1      -3.628   1.779   0.047  0.00  0.00    +0.001 A 
ATOM     13  C   UNL     1      -3.627   3.172   0.055  0.00  0.00    +0.001 A 
ATOM     14  C   UNL     1      -2.460   3.873   0.047  0.00  0.00    +0.008 A 
ATOM     15  C   UNL     1      -1.236   3.183   0.031  0.00  0.00    -0.018 A 
ATOM     16  C   UNL     1      -0.011   3.871   0.023  0.00  0.00    +0.014 A 
ENDBRANCH   6   7
ENDBRANCH   1   6
BRANCH   2  17
ATOM     17  C   UNL     1       5.424   3.205   2.327  0.00  0.00    +0.153 C 
BRANCH  17  18
ATOM     18  C   UNL     1       6.458   4.189   2.810  0.00  0.00    +0.078 A 
ATOM     19  C   UNL     1       7.525   3.746   3.708  0.00  0.00    +0.011 A 
ATOM     20  C   UNL     1       7.628   2.420   4.132  0.00  0.00    +0.010 A 
ATOM     21  C   UNL     1       8.647   2.053   4.966  0.00  0.00    +0.001 A 
ATOM     22  C   UNL     1       9.587   2.982   5.395  0.00  0.00    +0.001 A 
ATOM     23  C   UNL     1       9.514   4.296   4.989  0.00  0.00    +0.014 A 
ATOM     24  C   UNL     1       8.483   4.693   4.138  0.00  0.00    +0.050 A 
ATOM     25  C   UNL     1       8.350   6.078   3.669  0.00  0.00    +0.272 A 
ATOM     26  O   UNL     1       9.148   6.930   4.017  0.00  0.00    -0.266 OA
ATOM     27  N   UNL     1       7.327   6.389   2.846  0.00  0.00    -0.242 N 
ATOM     28  H   UNL     1       7.233   7.302   2.533  0.00  0.00    +0.192 HD
ATOM     29  N   UNL     1       6.399   5.431   2.433  0.00  0.00    -0.175 NA
ENDBRANCH  17  18
ENDBRANCH   2  17
TORSDOF 4
