REMARK  Name = ZINC44019956
REMARK  6 active torsions:
REMARK  status: ('A' for Active; 'I' for Inactive)
REMARK    1  A    between atoms: C_1  and  C_2
REMARK    2  A    between atoms: C_3  and  C_4
REMARK    3  A    between atoms: C_4  and  O_33
REMARK    4  A    between atoms: C_9  and  C_32
REMARK    5  A    between atoms: C_11  and  C_25
REMARK    6  A    between atoms: C_28  and  N_31
REMARK                            x       y       z     vdW  Elec       q    Type
REMARK                         _______ _______ _______ _____ _____    ______ ____
ROOT
ATOM      1  C   UNL     1       0.038  -2.646  -0.013  0.00  0.00    +0.132 C 
ATOM      2  C   UNL     1       0.723  -3.174   1.273  0.00  0.00    +0.049 C 
ATOM      3  C   UNL     1      -0.321  -4.071   1.986  0.00  0.00    +0.008 C 
ATOM      4  C   UNL     1      -1.654  -3.477   1.499  0.00  0.00    +0.006 C 
ATOM      5  C   UNL     1      -1.374  -3.239  -0.002  0.00  0.00    +0.012 C 
ATOM      6  C   UNL     1      -2.476  -2.382  -0.561  0.00  0.00    +0.023 C 
ATOM      7  C   UNL     1      -3.868  -2.965  -0.315  0.00  0.00    +0.046 C 
ATOM      8  C   UNL     1      -4.021  -3.884   0.860  0.00  0.00    -0.055 C 
ATOM      9  C   UNL     1      -5.233  -4.327   1.200  0.00  0.00    -0.044 C 
ATOM     10  C   UNL     1      -6.422  -4.249   0.263  0.00  0.00    +0.043 C 
ATOM     11  C   UNL     1      -7.603  -3.667   1.045  0.00  0.00    +0.083 C 
ATOM     12  C   UNL     1      -7.818  -4.482   2.292  0.00  0.00    +0.157 C 
ATOM     13  O   UNL     1      -8.937  -4.584   2.749  0.00  0.00    -0.293 OA
ATOM     14  C   UNL     1      -6.746  -5.122   2.939  0.00  0.00    +0.050 C 
ATOM     15  C   UNL     1      -5.487  -5.035   2.457  0.00  0.00    -0.041 C 
ATOM     16  C   UNL     1      -4.328  -5.638   3.211  0.00  0.00    +0.036 C 
ATOM     17  C   UNL     1      -3.158  -4.657   3.100  0.00  0.00    +0.013 C 
ATOM     18  C   UNL     1      -2.833  -4.411   1.631  0.00  0.00    +0.020 C 
ATOM     19  C   UNL     1      -1.321  -4.566  -0.776  0.00  0.00    +0.015 C 
ENDROOT
BRANCH   7  20
ATOM     20  C   UNL     1      -4.758  -1.766  -0.106  0.00  0.00    -0.040 A 
ATOM     21  C   UNL     1      -4.497  -0.886   0.928  0.00  0.00    +0.006 A 
ATOM     22  C   UNL     1      -5.310   0.213   1.123  0.00  0.00    +0.023 A 
ATOM     23  C   UNL     1      -6.391   0.434   0.279  0.00  0.00    +0.025 A 
ATOM     24  C   UNL     1      -6.650  -0.452  -0.759  0.00  0.00    +0.023 A 
ATOM     25  C   UNL     1      -5.829  -1.546  -0.952  0.00  0.00    +0.006 A 
BRANCH  23  26
ATOM     26  N   UNL     1      -7.215   1.545   0.474  0.00  0.00    -0.358 N 
ATOM     27  H   UNL     1      -7.033   2.163   1.199  0.00  0.00    +0.142 HD
ATOM     28  H   UNL     1      -7.969   1.698  -0.117  0.00  0.00    +0.142 HD
ENDBRANCH  23  26
ENDBRANCH   7  20
BRANCH   1  31
ATOM     29  C   UNL     1      -0.018   1.468   0.010  0.00  0.00    +0.106 C 
ATOM     30  C   UNL     1       0.002  -0.004   0.002  0.00  0.00    -0.103 C 
ATOM     31  C   UNL     1       0.018  -1.178  -0.004  0.00  0.00    -0.067 C 
ENDBRANCH   1  31
BRANCH   1  32
ATOM     32  O   UNL     1       0.749  -3.114  -1.164  0.00  0.00    -0.376 OA
ATOM     33  H   UNL     1       1.665  -2.810  -1.211  0.00  0.00    +0.211 HD
ENDBRANCH   1  32
TORSDOF 4
