REMARK  Name = ZINC39663724
REMARK  12 active torsions:
REMARK  status: ('A' for Active; 'I' for Inactive)
REMARK    1  A    between atoms: C_1  and  C_2
REMARK    2  A    between atoms: C_2  and  C_3
REMARK    3  A    between atoms: C_6  and  C_9
REMARK    4  A    between atoms: C_13  and  C_22
REMARK    5  A    between atoms: N_24  and  C_25
REMARK    6  A    between atoms: C_25  and  C_26
REMARK    7  A    between atoms: C_26  and  C_28
REMARK    8  A    between atoms: C_26  and  N_36
REMARK    9  A    between atoms: C_31  and  O_34
REMARK   10  A    between atoms: O_34  and  C_35
REMARK   11  A    between atoms: N_36  and  C_37
REMARK   12  A    between atoms: N_36  and  C_38
REMARK                            x       y       z     vdW  Elec       q    Type
REMARK                         _______ _______ _______ _____ _____    ______ ____
ROOT
ATOM      1  C   UNL     1      -5.634  -1.922  -0.088  0.00  0.00    +0.247 C 
ATOM      2  O   UNL     1      -6.262  -2.203   0.914  0.00  0.00    -0.270 OA
ATOM      3  N   UNL     1      -6.215  -2.027  -1.300  0.00  0.00    -0.296 N 
ATOM      4  C   UNL     1      -5.582  -1.855  -2.629  0.00  0.00    +0.121 C 
ATOM      5  C   UNL     1      -6.220  -2.952  -3.510  0.00  0.00    +0.100 C 
ATOM      6  C   UNL     1      -7.565  -3.265  -2.834  0.00  0.00    -0.004 C 
ATOM      7  C   UNL     1      -7.630  -2.348  -1.604  0.00  0.00    +0.115 C 
ATOM      8  C   UNL     1      -7.609  -4.726  -2.397  0.00  0.00    -0.010 C 
ATOM      9  C   UNL     1      -8.977  -5.029  -1.779  0.00  0.00    -0.082 C 
ATOM     10  N   UNL     1     -10.032  -4.759  -2.764  0.00  0.00    +0.379 N 
ATOM     11  C   UNL     1     -10.042  -3.333  -3.110  0.00  0.00    -0.082 C 
ATOM     12  C   UNL     1      -8.719  -2.959  -3.784  0.00  0.00    -0.010 C 
ATOM     13  H   UNL     1      -9.860  -5.304  -3.596  0.00  0.00    -0.086 HD
ATOM     14  H   UNL     1     -10.927  -5.017  -2.376  0.00  0.00    -0.086 HD
ENDROOT
BRANCH   1  18
ATOM     15  C   UNL     1      -1.606  -0.610   0.229  0.00  0.00    -0.048 A 
ATOM     16  C   UNL     1      -2.181  -1.326   1.264  0.00  0.00    +0.004 A 
ATOM     17  C   UNL     1      -3.489  -1.755   1.168  0.00  0.00    +0.013 A 
ATOM     18  C   UNL     1      -4.232  -1.465   0.022  0.00  0.00    +0.037 A 
ATOM     19  C   UNL     1      -3.646  -0.743  -1.018  0.00  0.00    +0.013 A 
ATOM     20  C   UNL     1      -2.339  -0.315  -0.907  0.00  0.00    +0.004 A 
BRANCH  15  22
ATOM     21  C   UNL     1      -0.142   1.241   0.988  0.00  0.00    +0.009 C 
ATOM     22  C   UNL     1      -0.177  -0.145   0.341  0.00  0.00    +0.032 C 
ENDBRANCH  15  22
ENDBRANCH   1  18
BRANCH   5  23
ATOM     23  C   UNL     1      -5.345  -4.178  -3.538  0.00  0.00    +0.218 C 
ATOM     24  O   UNL     1      -4.700  -4.485  -2.558  0.00  0.00    -0.275 OA
ATOM     25  N   UNL     1      -5.280  -4.935  -4.651  0.00  0.00    -0.316 N 
ATOM     26  H   UNL     1      -5.797  -4.690  -5.435  0.00  0.00    +0.149 HD
BRANCH  25  27
ATOM     27  C   UNL     1      -4.430  -6.128  -4.677  0.00  0.00    +0.093 C 
BRANCH  27  28
ATOM     28  C   UNL     1      -4.628  -6.866  -6.003  0.00  0.00    -0.021 C 
BRANCH  28  29
ATOM     29  C   UNL     1      -4.132  -6.005  -7.136  0.00  0.00    -0.059 A 
ATOM     30  C   UNL     1      -2.780  -5.945  -7.417  0.00  0.00    +0.005 A 
ATOM     31  C   UNL     1      -2.323  -5.156  -8.455  0.00  0.00    +0.046 A 
ATOM     32  C   UNL     1      -3.223  -4.424  -9.216  0.00  0.00    +0.120 A 
ATOM     33  C   UNL     1      -4.579  -4.487  -8.933  0.00  0.00    +0.046 A 
ATOM     34  C   UNL     1      -5.032  -5.281  -7.897  0.00  0.00    +0.005 A 
BRANCH  32  35
ATOM     35  O   UNL     1      -2.776  -3.647 -10.238  0.00  0.00    -0.495 OA
ATOM     36  C   UNL     1      -3.759  -2.922 -10.979  0.00  0.00    +0.277 C 
ENDBRANCH  32  35
ENDBRANCH  28  29
BRANCH  28  37
ATOM     37  N   UNL     1      -3.873  -8.126  -5.979  0.00  0.00    +0.382 N 
ATOM     38  C   UNL     1      -4.420  -9.005  -4.936  0.00  0.00    -0.096 C 
ATOM     39  C   UNL     1      -3.985  -8.789  -7.285  0.00  0.00    -0.096 C 
ATOM     40  H   UNL     1      -2.903  -7.933  -5.781  0.00  0.00    -0.082 HD
ENDBRANCH  28  37
ENDBRANCH  27  28
ENDBRANCH  25  27
ENDBRANCH   5  23
TORSDOF 8
