REMARK  Name = ZINC34791067
REMARK  11 active torsions:
REMARK  status: ('A' for Active; 'I' for Inactive)
REMARK    1  A    between atoms: C_1  and  C_2
REMARK    2  A    between atoms: C_2  and  N_3
REMARK    3  A    between atoms: C_6  and  C_11
REMARK    4  A    between atoms: C_14  and  C_17
REMARK    5  A    between atoms: N_23  and  C_25
REMARK    6  A    between atoms: C_25  and  C_27
REMARK    7  A    between atoms: C_25  and  C_30
REMARK    8  A    between atoms: C_27  and  C_28
REMARK    9  A    between atoms: C_27  and  C_29
REMARK   10  A    between atoms: N_32  and  C_33
REMARK   11  A    between atoms: C_33  and  C_34
REMARK                            x       y       z     vdW  Elec       q    Type
REMARK                         _______ _______ _______ _____ _____    ______ ____
ROOT
ATOM      1  N   UNL     1      -0.666   0.614   0.598  0.00  0.00    -0.257 N 
ATOM      2  C   UNL     1      -1.468   0.122   1.589  0.00  0.00    +0.042 C 
ATOM      3  C   UNL     1      -2.700  -0.353   1.319  0.00  0.00    +0.058 C 
ATOM      4  C   UNL     1      -3.167  -0.323  -0.122  0.00  0.00    +0.142 C 
ATOM      5  N   UNL     1      -2.229   0.227  -1.115  0.00  0.00    -0.288 N 
ATOM      6  C   UNL     1      -1.030   0.670  -0.690  0.00  0.00    +0.307 C 
ATOM      7  O   UNL     1      -0.250   1.129  -1.501  0.00  0.00    -0.252 OA
ATOM      8  C   UNL     1      -3.323  -0.801   2.502  0.00  0.00    +0.247 C 
ATOM      9  O   UNL     1      -4.442  -1.279   2.553  0.00  0.00    -0.270 OA
ATOM     10  N   UNL     1      -2.520  -0.632   3.568  0.00  0.00    -0.280 N 
ATOM     11  C   UNL     1      -1.270  -0.030   3.080  0.00  0.00    +0.160 C 
ATOM     12  H   UNL     1      -2.471   0.274  -2.054  0.00  0.00    +0.151 HD
ENDROOT
BRANCH   4  13
ATOM     13  C   UNL     1      -4.436   0.489  -0.182  0.00  0.00    -0.023 A 
ATOM     14  C   UNL     1      -4.373   1.870  -0.195  0.00  0.00    +0.006 A 
ATOM     15  C   UNL     1      -5.536   2.615  -0.251  0.00  0.00    +0.013 A 
ATOM     16  C   UNL     1      -6.762   1.978  -0.293  0.00  0.00    +0.055 A 
ATOM     17  C   UNL     1      -6.825   0.598  -0.281  0.00  0.00    +0.013 A 
ATOM     18  C   UNL     1      -5.662  -0.147  -0.231  0.00  0.00    +0.006 A 
BRANCH  16  19
ATOM     19  C   UNL     1      -8.031   2.790  -0.353  0.00  0.00    +0.417 C 
ATOM     20  F   UNL     1      -8.370   3.028  -1.689  0.00  0.00    -0.166 F 
ATOM     21  F   UNL     1      -9.065   2.086   0.273  0.00  0.00    -0.166 F 
ATOM     22  F   UNL     1      -7.834   4.011   0.303  0.00  0.00    -0.166 F 
ENDBRANCH  16  19
ENDBRANCH   4  13
BRANCH   1  24
ATOM     23  C   UNL     1       0.569   2.603   1.306  0.00  0.00    +0.025 C 
ATOM     24  C   UNL     1       0.661   1.114   0.966  0.00  0.00    +0.111 C 
ENDBRANCH   1  24
BRANCH  10  25
ATOM     25  C   UNL     1      -2.832  -0.981   4.956  0.00  0.00    +0.165 C 
BRANCH  25  26
ATOM     26  C   UNL     1      -4.049  -0.214   5.405  0.00  0.00    +0.234 C 
ATOM     27  O   UNL     1      -4.825   0.227   4.584  0.00  0.00    -0.274 OA
ATOM     28  N   UNL     1      -4.276  -0.020   6.720  0.00  0.00    -0.310 N 
ATOM     29  H   UNL     1      -3.699  -0.437   7.378  0.00  0.00    +0.149 HD
BRANCH  28  30
ATOM     30  C   UNL     1      -5.393   0.823   7.153  0.00  0.00    +0.139 C 
BRANCH  30  31
ATOM     31  C   UNL     1      -5.426   0.877   8.659  0.00  0.00    -0.030 A 
ATOM     32  C   UNL     1      -6.153  -0.060   9.368  0.00  0.00    +0.005 A 
ATOM     33  C   UNL     1      -6.184  -0.010  10.749  0.00  0.00    +0.000 A 
ATOM     34  C   UNL     1      -5.487   0.977  11.421  0.00  0.00    +0.000 A 
ATOM     35  C   UNL     1      -4.760   1.914  10.712  0.00  0.00    +0.000 A 
ATOM     36  C   UNL     1      -4.726   1.861   9.331  0.00  0.00    +0.005 A 
ENDBRANCH  30  31
ENDBRANCH  28  30
ENDBRANCH  25  26
BRANCH  25  37
ATOM     37  C   UNL     1      -3.111  -2.482   5.054  0.00  0.00    +0.012 C 
ATOM     38  C   UNL     1      -1.919  -3.260   4.491  0.00  0.00    +0.009 C 
ATOM     39  C   UNL     1      -3.324  -2.867   6.519  0.00  0.00    +0.009 C 
ENDBRANCH  25  37
ENDBRANCH  10  25
TORSDOF 8
