REMARK  Name = ZINC39635823
REMARK  5 active torsions:
REMARK  status: ('A' for Active; 'I' for Inactive)
REMARK    1  A    between atoms: C_1  and  C_2
REMARK    2  A    between atoms: C_8  and  N_10
REMARK    3  A    between atoms: C_11  and  C_13
REMARK    4  A    between atoms: C_24  and  C_26
REMARK    5  A    between atoms: C_30  and  C_32
REMARK                            x       y       z     vdW  Elec       q    Type
REMARK                         _______ _______ _______ _____ _____    ______ ____
ROOT
ATOM      1  C   UNL     1       0.433   0.977   4.521  0.00  0.00    +0.100 C 
ATOM      2  C   UNL     1      -0.273   2.352   4.521  0.00  0.00    +0.121 C 
ATOM      3  N   UNL     1      -0.069   2.877   5.892  0.00  0.00    -0.296 N 
ATOM      4  C   UNL     1       1.320   2.485   6.234  0.00  0.00    +0.115 C 
ATOM      5  C   UNL     1       1.477   1.068   5.646  0.00  0.00    -0.004 C 
ATOM      6  C   UNL     1       1.194   0.018   6.716  0.00  0.00    -0.010 C 
ATOM      7  C   UNL     1       2.278   0.092   7.795  0.00  0.00    -0.082 C 
ATOM      8  N   UNL     1       3.594  -0.142   7.187  0.00  0.00    +0.379 N 
ATOM      9  C   UNL     1       3.898   0.924   6.225  0.00  0.00    -0.082 C 
ATOM     10  C   UNL     1       2.882   0.886   5.080  0.00  0.00    -0.010 C 
ATOM     11  C   UNL     1      -0.947   3.557   6.655  0.00  0.00    +0.247 C 
ATOM     12  O   UNL     1      -2.092   3.708   6.276  0.00  0.00    -0.270 OA
ATOM     13  H   UNL     1       4.299  -0.154   7.908  0.00  0.00    -0.086 HD
ATOM     14  H   UNL     1       3.589  -1.032   6.710  0.00  0.00    -0.086 HD
ENDROOT
BRANCH  11  15
ATOM     15  C   UNL     1      -0.518   4.119   7.952  0.00  0.00    +0.038 A 
ATOM     16  C   UNL     1       0.836   4.356   8.200  0.00  0.00    +0.016 A 
ATOM     17  C   UNL     1       1.231   4.881   9.412  0.00  0.00    +0.039 A 
ATOM     18  C   UNL     1       0.286   5.173  10.384  0.00  0.00    +0.135 A 
ATOM     19  C   UNL     1      -1.059   4.941  10.143  0.00  0.00    +0.091 A 
ATOM     20  C   UNL     1      -1.465   4.421   8.932  0.00  0.00    +0.028 A 
ATOM     21  F   UNL     1       0.679   5.687  11.570  0.00  0.00    -0.205 F 
BRANCH  19  22
ATOM     22  C   UNL     1      -2.079   5.261  11.205  0.00  0.00    +0.420 C 
ATOM     23  F   UNL     1      -3.358   4.942  10.734  0.00  0.00    -0.166 F 
ATOM     24  F   UNL     1      -1.806   4.512  12.355  0.00  0.00    -0.166 F 
ATOM     25  F   UNL     1      -2.021   6.624  11.511  0.00  0.00    -0.166 F 
ENDBRANCH  19  22
ENDBRANCH  11  15
BRANCH   1  27
ATOM     26  N   UNL     1       1.233  -0.522   2.723  0.00  0.00    -0.312 N 
ATOM     27  C   UNL     1       1.109   0.734   3.196  0.00  0.00    +0.218 C 
ATOM     28  O   UNL     1       1.541   1.669   2.556  0.00  0.00    -0.275 OA
ATOM     29  H   UNL     1       0.887  -1.269   3.235  0.00  0.00    +0.149 HD
BRANCH  26  36
ATOM     30  C   UNL     1      -0.132  -1.985   0.629  0.00  0.00    +0.009 C 
ATOM     31  C   UNL     1       1.382  -2.071   0.837  0.00  0.00    +0.006 C 
ATOM     32  C   UNL     1       1.701  -3.224   1.791  0.00  0.00    +0.005 C 
ATOM     33  C   UNL     1       3.215  -3.309   1.998  0.00  0.00    +0.000 C 
ATOM     34  C   UNL     1       3.723  -1.996   2.597  0.00  0.00    +0.002 C 
ATOM     35  C   UNL     1       3.403  -0.843   1.643  0.00  0.00    +0.022 C 
ATOM     36  C   UNL     1       1.890  -0.758   1.435  0.00  0.00    +0.076 C 
ENDBRANCH  26  36
ENDBRANCH   1  27
TORSDOF 4
