REMARK  Name = ZINC67636932
REMARK  4 active torsions:
REMARK  status: ('A' for Active; 'I' for Inactive)
REMARK    1  A    between atoms: C_4  and  N_7
REMARK    2  A    between atoms: N_7  and  C_8
REMARK    3  A    between atoms: N_16  and  C_17
REMARK    4  A    between atoms: C_20  and  C_22
REMARK                            x       y       z     vdW  Elec       q    Type
REMARK                         _______ _______ _______ _____ _____    ______ ____
ROOT
ATOM      1  C   UNL     1       3.641  -2.114  -0.044  0.00  0.00    +0.089 C 
ATOM      2  C   UNL     1       5.000  -2.653   0.478  0.00  0.00    +0.043 C 
ATOM      3  C   UNL     1       5.113  -4.029  -0.212  0.00  0.00    +0.111 C 
ATOM      4  N   UNL     1       4.248  -3.995  -1.400  0.00  0.00    -0.284 N 
ATOM      5  C   UNL     1       3.625  -2.662  -1.493  0.00  0.00    +0.131 C 
ATOM      6  C   UNL     1       4.056  -5.014  -2.261  0.00  0.00    +0.302 C 
ATOM      7  O   UNL     1       3.314  -4.872  -3.214  0.00  0.00    -0.253 OA
ATOM      8  N   UNL     1       4.686  -6.189  -2.066  0.00  0.00    -0.296 N 
ATOM      9  H   UNL     1       5.277  -6.302  -1.305  0.00  0.00    +0.151 HD
ENDROOT
BRANCH   8  10
ATOM     10  C   UNL     1       4.477  -7.296  -3.002  0.00  0.00    +0.082 C 
ATOM     11  C   UNL     1       5.709  -8.088  -3.445  0.00  0.00    +0.033 C 
ATOM     12  C   UNL     1       4.702  -8.716  -2.478  0.00  0.00    +0.041 C 
BRANCH  12  13
ATOM     13  C   UNL     1       3.808  -9.805  -3.014  0.00  0.00    -0.040 A 
ATOM     14  C   UNL     1       3.794 -10.083  -4.369  0.00  0.00    +0.004 A 
ATOM     15  C   UNL     1       2.975 -11.082  -4.862  0.00  0.00    +0.003 A 
ATOM     16  C   UNL     1       2.169 -11.803  -4.001  0.00  0.00    +0.038 A 
ATOM     17  C   UNL     1       2.183 -11.525  -2.645  0.00  0.00    +0.124 A 
ATOM     18  C   UNL     1       3.008 -10.529  -2.151  0.00  0.00    +0.042 A 
ATOM     19  F   UNL     1       1.395 -12.229  -1.803  0.00  0.00    -0.205 F 
ENDBRANCH  12  13
ENDBRANCH   8  10
BRANCH   1  20
ATOM     20  N   UNL     1       3.620  -0.649  -0.036  0.00  0.00    -0.339 N 
ATOM     21  H   UNL     1       4.452  -0.152  -0.042  0.00  0.00    +0.146 HD
BRANCH  20  25
ATOM     22  C   UNL     1      -0.017   1.379   0.010  0.00  0.00    +0.000 A 
ATOM     23  C   UNL     1       1.169   2.089   0.002  0.00  0.00    +0.002 A 
ATOM     24  C   UNL     1       2.377   1.420  -0.013  0.00  0.00    +0.023 A 
ATOM     25  C   UNL     1       2.400   0.031  -0.021  0.00  0.00    +0.027 A 
ATOM     26  C   UNL     1       1.206  -0.680  -0.013  0.00  0.00    +0.023 A 
ATOM     27  C   UNL     1       0.002  -0.004   0.002  0.00  0.00    +0.002 A 
ENDBRANCH  20  25
ENDBRANCH   1  20
TORSDOF 4
