REMARK  Name = ZINC25810859
REMARK  9 active torsions:
REMARK  status: ('A' for Active; 'I' for Inactive)
REMARK    1  A    between atoms: C_1  and  C_2
REMARK    2  A    between atoms: C_2  and  O_3
REMARK    3  A    between atoms: O_3  and  C_4
REMARK    4  A    between atoms: C_4  and  C_6
REMARK    5  A    between atoms: C_7  and  C_21
REMARK    6  A    between atoms: C_12  and  C_14
REMARK    7  A    between atoms: C_21  and  N_22
REMARK    8  A    between atoms: N_25  and  C_28
REMARK    9  A    between atoms: C_33  and  C_34
REMARK                            x       y       z     vdW  Elec       q    Type
REMARK                         _______ _______ _______ _____ _____    ______ ____
ROOT
ATOM      1  C   UNL     1       1.350  -2.336  -2.518  0.00  0.00    +0.079 C 
ATOM      2  C   UNL     1       1.628  -3.654  -2.615  0.00  0.00    +0.038 C 
ATOM      3  N   UNL     1       2.332  -4.150  -3.675  0.00  0.00    -0.271 N 
ATOM      4  C   UNL     1       2.794  -3.394  -4.678  0.00  0.00    +0.304 C 
ATOM      5  O   UNL     1       3.412  -3.927  -5.580  0.00  0.00    -0.252 OA
ATOM      6  N   UNL     1       2.596  -2.062  -4.722  0.00  0.00    -0.288 N 
ATOM      7  C   UNL     1       1.841  -1.429  -3.628  0.00  0.00    +0.144 C 
ATOM      8  H   UNL     1       2.508  -5.104  -3.701  0.00  0.00    +0.156 HD
ATOM      9  H   UNL     1       2.940  -1.533  -5.459  0.00  0.00    +0.151 HD
ENDROOT
BRANCH   7  10
ATOM     10  C   UNL     1       0.644  -0.734  -4.224  0.00  0.00    -0.022 A 
ATOM     11  C   UNL     1      -0.157  -1.397  -5.135  0.00  0.00    +0.007 A 
ATOM     12  C   UNL     1      -1.255  -0.761  -5.682  0.00  0.00    +0.020 A 
ATOM     13  C   UNL     1      -1.552   0.540  -5.319  0.00  0.00    +0.041 A 
ATOM     14  C   UNL     1      -0.750   1.204  -4.407  0.00  0.00    +0.020 A 
ATOM     15  C   UNL     1       0.344   0.564  -3.856  0.00  0.00    +0.007 A 
ATOM     16 CL   UNL     1      -2.931   1.341  -6.006  0.00  0.00    -0.084 Cl
ENDBRANCH   7  10
BRANCH   1  17
ATOM     17  C   UNL     1       0.620  -1.821  -1.422  0.00  0.00    +0.339 C 
ATOM     18  O   UNL     1      -0.568  -1.583  -1.540  0.00  0.00    -0.245 OA
BRANCH  17  19
ATOM     19  O   UNL     1       1.240  -1.595  -0.245  0.00  0.00    -0.462 OA
BRANCH  19  21
ATOM     20  C   UNL     1       1.311  -0.884   2.064  0.00  0.00    +0.048 C 
ATOM     21  C   UNL     1       0.441  -1.074   0.820  0.00  0.00    +0.229 C 
ENDBRANCH  19  21
ENDBRANCH  17  19
ENDBRANCH   1  17
BRANCH   2  22
ATOM     22  C   UNL     1       1.153  -4.593  -1.536  0.00  0.00    +0.136 C 
BRANCH  22  23
ATOM     23  N   UNL     1       0.182  -5.539  -2.102  0.00  0.00    -0.294 NA
ATOM     24  C   UNL     1      -1.039  -4.845  -2.533  0.00  0.00    +0.103 C 
ATOM     25  C   UNL     1      -1.946  -5.831  -3.278  0.00  0.00    +0.120 C 
ATOM     26  N   UNL     1      -2.167  -7.003  -2.419  0.00  0.00    -0.327 N 
ATOM     27  C   UNL     1      -0.994  -7.671  -1.836  0.00  0.00    +0.120 C 
ATOM     28  C   UNL     1      -0.124  -6.613  -1.147  0.00  0.00    +0.103 C 
BRANCH  26  29
ATOM     29  C   UNL     1      -3.459  -7.470  -2.162  0.00  0.00    +0.033 A 
ATOM     30  C   UNL     1      -4.031  -8.425  -2.993  0.00  0.00    +0.023 A 
ATOM     31  C   UNL     1      -5.308  -8.886  -2.736  0.00  0.00    +0.002 A 
ATOM     32  C   UNL     1      -6.016  -8.396  -1.654  0.00  0.00    +0.000 A 
ATOM     33  C   UNL     1      -5.450  -7.445  -0.826  0.00  0.00    +0.005 A 
ATOM     34  C   UNL     1      -4.171  -6.985  -1.073  0.00  0.00    -0.029 A 
ATOM     35  C   UNL     1      -3.551  -5.954  -0.166  0.00  0.00    +0.045 C 
ENDBRANCH  26  29
ENDBRANCH  22  23
ENDBRANCH   2  22
TORSDOF 7
