REMARK  Name = ZINC00570664
REMARK  6 active torsions:
REMARK  status: ('A' for Active; 'I' for Inactive)
REMARK    1  A    between atoms: C_1  and  C_2
REMARK    2  A    between atoms: C_4  and  C_15
REMARK    3  A    between atoms: C_10  and  O_13
REMARK    4  A    between atoms: O_13  and  C_14
REMARK    5  A    between atoms: C_16  and  C_17
REMARK    6  A    between atoms: C_16  and  C_19
REMARK                            x       y       z     vdW  Elec       q    Type
REMARK                         _______ _______ _______ _____ _____    ______ ____
ROOT
ATOM      1  C   UNL     1       1.056   7.305  -0.080  0.00  0.00    +0.057 C 
ATOM      2  C   UNL     1       0.997   5.885   0.486  0.00  0.00    +0.201 C 
ATOM      3  C   UNL     1       2.259   5.149   0.118  0.00  0.00    -0.005 C 
ATOM      4  C   UNL     1       2.231   3.791  -0.022  0.00  0.00    +0.019 C 
ATOM      5  C   UNL     1       0.946   3.108   0.177  0.00  0.00    +0.021 A 
ATOM      6  C   UNL     1       0.879   1.728   0.383  0.00  0.00    +0.012 A 
ATOM      7  C   UNL     1      -0.347   1.126   0.567  0.00  0.00    +0.004 A 
ATOM      8  C   UNL     1      -1.510   1.880   0.544  0.00  0.00    +0.049 A 
ATOM      9  C   UNL     1      -1.458   3.252   0.346  0.00  0.00    +0.162 A 
ATOM     10  C   UNL     1      -0.232   3.874   0.158  0.00  0.00    +0.170 A 
ATOM     11  O   UNL     1      -0.146   5.213  -0.045  0.00  0.00    -0.480 OA
ENDROOT
BRANCH   9  12
ATOM     12  O   UNL     1      -2.604   3.983   0.330  0.00  0.00    -0.491 OA
ATOM     13  C   UNL     1      -3.829   3.274   0.530  0.00  0.00    +0.277 C 
ENDBRANCH   9  12
BRANCH   3  14
ATOM     14  C   UNL     1       3.454   5.854  -0.079  0.00  0.00    +0.037 C 
ATOM     15  C   UNL     1       4.146   5.725  -1.274  0.00  0.00    +0.129 C 
BRANCH  15  16
ATOM     16  C   UNL     1       5.427   6.345  -1.430  0.00  0.00    +0.110 C 
ATOM     17  N   UNL     1       6.444   6.837  -1.553  0.00  0.00    -0.190 NA
ENDBRANCH  15  16
BRANCH  15  18
ATOM     18  C   UNL     1       3.578   4.973  -2.352  0.00  0.00    +0.110 C 
ATOM     19  N   UNL     1       3.128   4.376  -3.208  0.00  0.00    -0.190 NA
ENDBRANCH  15  18
ENDBRANCH   3  14
TORSDOF 4
