REMARK  Name = ZINC41586160
REMARK  9 active torsions:
REMARK  status: ('A' for Active; 'I' for Inactive)
REMARK    1  A    between atoms: C_1  and  C_2
REMARK    2  A    between atoms: C_2  and  O_3
REMARK    3  A    between atoms: O_3  and  C_4
REMARK    4  A    between atoms: C_4  and  C_6
REMARK    5  A    between atoms: N_9  and  C_12
REMARK    6  A    between atoms: C_12  and  C_13
REMARK    7  A    between atoms: C_14  and  O_32
REMARK    8  A    between atoms: C_16  and  C_31
REMARK    9  A    between atoms: C_21  and  C_22
REMARK                            x       y       z     vdW  Elec       q    Type
REMARK                         _______ _______ _______ _____ _____    ______ ____
ROOT
ATOM      1  C   UNL     1      -5.930  -6.230  -1.552  0.00  0.00    +0.020 A 
ATOM      2  C   UNL     1      -6.065  -6.782  -2.816  0.00  0.00    +0.122 A 
ATOM      3  C   UNL     1      -6.282  -8.148  -2.973  0.00  0.00    +0.050 A 
ATOM      4  C   UNL     1      -6.364  -8.960  -1.877  0.00  0.00    -0.033 A 
ATOM      5  C   UNL     1      -6.229  -8.419  -0.599  0.00  0.00    +0.071 A 
ATOM      6  C   UNL     1      -6.004  -7.043  -0.428  0.00  0.00    +0.145 A 
ATOM      7  O   UNL     1      -5.901  -6.758   0.889  0.00  0.00    -0.451 OA
ATOM      8  C   UNL     1      -6.037  -7.865   1.656  0.00  0.00    +0.176 C 
ATOM      9  C   UNL     1      -5.983  -7.913   3.010  0.00  0.00    +0.058 C 
ATOM     10  C   UNL     1      -6.266  -9.005   0.754  0.00  0.00    +0.232 C 
ATOM     11  O   UNL     1      -6.434 -10.173   1.056  0.00  0.00    -0.283 OA
ATOM     12  C   UNL     1      -6.599 -10.439  -2.050  0.00  0.00    +0.045 C 
ENDROOT
BRANCH   9  13
ATOM     13  C   UNL     1      -5.976  -9.210   3.700  0.00  0.00    -0.021 A 
ATOM     14  C   UNL     1      -5.235 -10.279   3.181  0.00  0.00    +0.009 A 
ATOM     15  C   UNL     1      -5.233 -11.492   3.834  0.00  0.00    +0.020 A 
ATOM     16  C   UNL     1      -5.962 -11.657   5.000  0.00  0.00    +0.041 A 
ATOM     17  C   UNL     1      -6.699 -10.604   5.520  0.00  0.00    +0.020 A 
ATOM     18  C   UNL     1      -6.706  -9.383   4.882  0.00  0.00    +0.009 A 
ATOM     19 CL   UNL     1      -5.954 -13.190   5.815  0.00  0.00    -0.084 Cl
ENDBRANCH   9  13
BRANCH   2  20
ATOM     20  O   UNL     1      -5.986  -5.983  -3.910  0.00  0.00    -0.506 OA
ATOM     21  H   UNL     1      -5.091  -5.886  -4.263  0.00  0.00    +0.292 HD
ENDBRANCH   2  20
BRANCH   1  22
ATOM     22  C   UNL     1      -5.695  -4.750  -1.397  0.00  0.00    -0.036 C 
BRANCH  22  26
ATOM     23  C   UNL     1      -1.812  -3.393  -0.285  0.00  0.00    +0.094 C 
ATOM     24  C   UNL     1      -2.527  -2.739  -1.470  0.00  0.00    -0.004 C 
ATOM     25  C   UNL     1      -4.027  -3.029  -1.378  0.00  0.00    -0.078 C 
ATOM     26  N   UNL     1      -4.252  -4.479  -1.408  0.00  0.00    +0.383 N 
ATOM     27  C   UNL     1      -3.629  -5.104  -0.235  0.00  0.00    -0.078 C 
ATOM     28  C   UNL     1      -2.114  -4.894  -0.284  0.00  0.00    -0.004 C 
ATOM     29  H   UNL     1      -3.845  -4.864  -2.248  0.00  0.00    -0.081 HD
BRANCH  23  30
ATOM     30  C   UNL     1      -0.326  -3.178  -0.411  0.00  0.00    +0.310 C 
ATOM     31  O   UNL     1       0.417  -4.127  -0.493  0.00  0.00    -0.251 OA
BRANCH  30  32
ATOM     32  O   UNL     1       0.172  -1.931  -0.434  0.00  0.00    -0.465 OA
BRANCH  32  34
ATOM     33  C   UNL     1       1.968  -0.319  -0.564  0.00  0.00    +0.048 C 
ATOM     34  C   UNL     1       1.590  -1.802  -0.556  0.00  0.00    +0.229 C 
ENDBRANCH  32  34
ENDBRANCH  30  32
ENDBRANCH  23  30
ENDBRANCH  22  26
ENDBRANCH   1  22
TORSDOF 7
