REMARK  Name = ZINC08454316
REMARK  6 active torsions:
REMARK  status: ('A' for Active; 'I' for Inactive)
REMARK    1  A    between atoms: C_1  and  C_2
REMARK    2  A    between atoms: C_2  and  C_3
REMARK    3  A    between atoms: C_3  and  C_5
REMARK    4  A    between atoms: C_3  and  N_15
REMARK    5  A    between atoms: C_16  and  C_18
REMARK    6  A    between atoms: C_18  and  C_23
REMARK                            x       y       z     vdW  Elec       q    Type
REMARK                         _______ _______ _______ _____ _____    ______ ____
ROOT
ATOM      1  C   UNL     1      -1.450   5.848   2.874  0.00  0.00    +0.079 C 
ENDROOT
BRANCH   1   2
ATOM      2  C   UNL     1      -2.411   6.052   4.046  0.00  0.00    -0.010 C 
ATOM      3  C   UNL     1      -3.848   6.106   3.524  0.00  0.00    +0.012 C 
ATOM      4  C   UNL     1      -4.809   6.311   4.696  0.00  0.00    -0.010 C 
ATOM      5  C   UNL     1      -4.668   5.149   5.681  0.00  0.00    +0.007 C 
ATOM      6  C   UNL     1      -3.231   5.095   6.203  0.00  0.00    -0.010 C 
ATOM      7  C   UNL     1      -2.270   4.890   5.031  0.00  0.00    +0.012 C 
ATOM      8  C   UNL     1      -2.897   6.408   6.913  0.00  0.00    +0.007 C 
ATOM      9  C   UNL     1      -3.038   7.570   5.929  0.00  0.00    -0.010 C 
ATOM     10  C   UNL     1      -4.475   7.625   5.406  0.00  0.00    +0.007 C 
ATOM     11  C   UNL     1      -2.077   7.366   4.756  0.00  0.00    +0.012 C 
ENDBRANCH   1   2
BRANCH   1  12
ATOM     12  N   UNL     1      -1.770   4.590   2.194  0.00  0.00    -0.311 N 
ATOM     13  C   UNL     1      -0.818   3.942   1.492  0.00  0.00    +0.221 C 
ATOM     14  O   UNL     1       0.303   4.400   1.424  0.00  0.00    -0.275 OA
ATOM     15  H   UNL     1      -2.666   4.224   2.248  0.00  0.00    +0.149 HD
BRANCH  13  16
ATOM     16  C   UNL     1      -1.147   2.649   0.793  0.00  0.00    +0.071 C 
ATOM     17  C   UNL     1      -1.162   2.657  -0.738  0.00  0.00    +0.048 C 
ATOM     18  C   UNL     1      -0.025   1.962   0.013  0.00  0.00    +0.096 C 
ATOM     19 BR   UNL     1       0.002  -0.004   0.002  0.00  0.00    -0.071 Br
ATOM     20 BR   UNL     1       1.737   2.834   0.001  0.00  0.00    -0.071 Br
ATOM     21  C   UNL     1      -2.164   1.753   1.504  0.00  0.00    +0.023 C 
ENDBRANCH  13  16
ENDBRANCH   1  12
BRANCH   1  23
ATOM     22  C   UNL     1      -0.544   6.871   0.782  0.00  0.00    +0.006 C 
ATOM     23  C   UNL     1      -1.591   7.010   1.889  0.00  0.00    +0.019 C 
ENDBRANCH   1  23
TORSDOF 4
