REMARK  Name = ZINC08659801
REMARK  6 active torsions:
REMARK  status: ('A' for Active; 'I' for Inactive)
REMARK    1  A    between atoms: C_1  and  C_2
REMARK    2  A    between atoms: C_3  and  N_15
REMARK    3  A    between atoms: N_6  and  C_9
REMARK    4  A    between atoms: N_7  and  C_8
REMARK    5  A    between atoms: N_15  and  S_16
REMARK    6  A    between atoms: S_16  and  C_19
REMARK                            x       y       z     vdW  Elec       q    Type
REMARK                         _______ _______ _______ _____ _____    ______ ____
ROOT
ATOM      1  S   UNL     1      -2.563   8.972   0.232  0.00  0.00    +0.073 S 
ATOM      2  O   UNL     1      -1.428   9.565  -0.383  0.00  0.00    -0.150 OA
ATOM      3  O   UNL     1      -3.841   8.950  -0.389  0.00  0.00    -0.150 OA
ENDROOT
BRANCH   1   4
ATOM      4  C   UNL     1      -2.136   7.295   0.566  0.00  0.00    +0.109 A 
ATOM      5  C   UNL     1      -3.106   6.415   1.009  0.00  0.00    +0.029 A 
ATOM      6  C   UNL     1      -2.785   5.095   1.275  0.00  0.00    +0.014 A 
ATOM      7  C   UNL     1      -1.479   4.649   1.096  0.00  0.00    +0.033 A 
ATOM      8  C   UNL     1      -0.493   5.544   0.645  0.00  0.00    +0.035 A 
ATOM      9  C   UNL     1      -0.833   6.868   0.382  0.00  0.00    +0.041 A 
ATOM     10  C   UNL     1       0.897   5.079   0.451  0.00  0.00    +0.195 C 
ATOM     11  O   UNL     1       1.749   5.853   0.061  0.00  0.00    -0.287 OA
ATOM     12  C   UNL     1       1.248   3.671   0.732  0.00  0.00    +0.033 A 
ATOM     13  C   UNL     1       2.554   3.224   0.552  0.00  0.00    +0.012 A 
ATOM     14  C   UNL     1       2.874   1.904   0.818  0.00  0.00    +0.001 A 
ATOM     15  C   UNL     1       1.904   1.024   1.261  0.00  0.00    +0.001 A 
ATOM     16  C   UNL     1       0.600   1.450   1.440  0.00  0.00    +0.012 A 
ATOM     17  C   UNL     1       0.262   2.776   1.183  0.00  0.00    +0.033 A 
ATOM     18  C   UNL     1      -1.127   3.241   1.377  0.00  0.00    +0.195 C 
ATOM     19  O   UNL     1      -1.979   2.467   1.767  0.00  0.00    -0.287 OA
ENDBRANCH   1   4
BRANCH   1  20
ATOM     20  N   UNL     1      -2.760   9.727   1.693  0.00  0.00    -0.209 N 
ATOM     21  H   UNL     1      -3.635  10.051   1.958  0.00  0.00    +0.174 HD
BRANCH  20  24
ATOM     22  C   UNL     1      -2.931  10.858   4.533  0.00  0.00    +0.067 C 
ATOM     23  C   UNL     1      -1.695  10.394   3.807  0.00  0.00    +0.061 A 
ATOM     24  C   UNL     1      -1.654   9.899   2.552  0.00  0.00    +0.135 A 
ATOM     25  C   UNL     1      -0.306   9.576   2.251  0.00  0.00    +0.295 A 
ATOM     26  O   UNL     1       0.103   9.102   1.206  0.00  0.00    -0.264 OA
ATOM     27  N   UNL     1       0.442   9.892   3.327  0.00  0.00    -0.216 N 
ATOM     28  N   UNL     1      -0.416  10.402   4.310  0.00  0.00    -0.282 N 
ATOM     29  C   UNL     1      -0.019  10.863   5.643  0.00  0.00    +0.171 C 
BRANCH  27  30
ATOM     30  C   UNL     1       1.827   9.733   3.444  0.00  0.00    +0.067 A 
ATOM     31  C   UNL     1       2.666  10.176   2.430  0.00  0.00    +0.028 A 
ATOM     32  C   UNL     1       4.033  10.023   2.551  0.00  0.00    +0.002 A 
ATOM     33  C   UNL     1       4.566   9.418   3.675  0.00  0.00    +0.000 A 
ATOM     34  C   UNL     1       3.733   8.970   4.683  0.00  0.00    +0.002 A 
ATOM     35  C   UNL     1       2.365   9.126   4.571  0.00  0.00    +0.028 A 
ENDBRANCH  27  30
ENDBRANCH  20  24
ENDBRANCH   1  20
TORSDOF 4
