REMARK  Name = ZINC59644445
REMARK  10 active torsions:
REMARK  status: ('A' for Active; 'I' for Inactive)
REMARK    1  A    between atoms: C_1  and  C_2
REMARK    2  A    between atoms: C_5  and  C_8
REMARK    3  A    between atoms: C_8  and  O_9
REMARK    4  A    between atoms: O_9  and  C_10
REMARK    5  A    between atoms: C_11  and  O_29
REMARK    6  A    between atoms: C_13  and  C_17
REMARK    7  A    between atoms: N_18  and  N_19
REMARK    8  A    between atoms: C_20  and  C_22
REMARK    9  A    between atoms: C_22  and  C_23
REMARK   10  A    between atoms: O_29  and  C_30
REMARK                            x       y       z     vdW  Elec       q    Type
REMARK                         _______ _______ _______ _____ _____    ______ ____
ROOT
ATOM      1  C   UNL     1       1.608  -6.080  -0.040  0.00  0.00    +0.176 A 
ATOM      2  C   UNL     1       1.709  -6.775   1.163  0.00  0.00    +0.163 A 
ATOM      3  C   UNL     1       1.908  -8.142   1.157  0.00  0.00    +0.059 A 
ATOM      4  C   UNL     1       2.007  -8.825  -0.058  0.00  0.00    -0.001 A 
ATOM      5  C   UNL     1       1.905  -8.123  -1.261  0.00  0.00    +0.028 A 
ATOM      6  C   UNL     1       1.701  -6.758  -1.247  0.00  0.00    +0.064 A 
ATOM      7 BR   UNL     1       1.555  -5.809  -2.876  0.00  0.00    -0.046 Br
ENDROOT
BRANCH   4   8
ATOM      8  C   UNL     1       2.220 -10.284  -0.070  0.00  0.00    +0.138 C 
ATOM      9  N   UNL     1       2.312 -10.917  -1.200  0.00  0.00    -0.188 NA
BRANCH   9  10
ATOM     10  N   UNL     1       2.514 -12.304  -1.211  0.00  0.00    -0.207 N 
ATOM     11  C   UNL     1       2.609 -12.961  -2.384  0.00  0.00    +0.238 C 
ATOM     12  O   UNL     1       2.520 -12.352  -3.429  0.00  0.00    -0.274 OA
ATOM     13  H   UNL     1       2.585 -12.790  -0.375  0.00  0.00    +0.177 HD
BRANCH  11  14
ATOM     14  C   UNL     1       2.826 -14.452  -2.396  0.00  0.00    +0.153 C 
BRANCH  14  15
ATOM     15  C   UNL     1       2.897 -14.938  -3.821  0.00  0.00    +0.059 A 
ATOM     16  C   UNL     1       3.954 -15.653  -4.273  0.00  0.00    +0.072 A 
ATOM     17  S   UNL     1       3.472 -15.925  -5.971  0.00  0.00    -0.061 S 
ATOM     18  C   UNL     1       1.999 -15.112  -5.928  0.00  0.00    +0.156 A 
ATOM     19  N   UNL     1       1.927 -14.688  -4.684  0.00  0.00    -0.230 NA
ATOM     20  N   UNL     1       1.082 -14.937  -6.952  0.00  0.00    -0.338 N 
ATOM     21  H   UNL     1       1.259 -15.309  -7.830  0.00  0.00    +0.144 HD
ATOM     22  H   UNL     1       0.264 -14.441  -6.791  0.00  0.00    +0.144 HD
ENDBRANCH  14  15
ENDBRANCH  11  14
ENDBRANCH   9  10
ENDBRANCH   4   8
BRANCH   2  23
ATOM     23  O   UNL     1       1.613  -6.107   2.344  0.00  0.00    -0.491 OA
ATOM     24  C   UNL     1       1.725  -6.883   3.539  0.00  0.00    +0.277 C 
ENDBRANCH   2  23
BRANCH   1  25
ATOM     25  O   UNL     1       1.413  -4.734  -0.032  0.00  0.00    -0.483 OA
BRANCH  25  26
ATOM     26  C   UNL     1       0.059  -4.275  -0.021  0.00  0.00    +0.264 C 
BRANCH  26  31
ATOM     27  C   UNL     1      -0.018   1.503   0.010  0.00  0.00    +0.044 C 
ATOM     28  C   UNL     1       0.002  -0.004   0.002  0.00  0.00    -0.050 A 
ATOM     29  C   UNL     1       0.006  -0.689  -1.199  0.00  0.00    +0.004 A 
ATOM     30  C   UNL     1       0.025  -2.071  -1.206  0.00  0.00    +0.007 A 
ATOM     31  C   UNL     1       0.040  -2.768  -0.013  0.00  0.00    -0.010 A 
ATOM     32  C   UNL     1       0.037  -2.084   1.188  0.00  0.00    +0.007 A 
ATOM     33  C   UNL     1       0.023  -0.702   1.195  0.00  0.00    +0.004 A 
ENDBRANCH  26  31
ENDBRANCH  25  26
ENDBRANCH   1  25
TORSDOF 8
