REMARK  Name = ZINC02793915
REMARK  11 active torsions:
REMARK  status: ('A' for Active; 'I' for Inactive)
REMARK    1  A    between atoms: C_1  and  C_2
REMARK    2  A    between atoms: C_5  and  N_8
REMARK    3  A    between atoms: N_8  and  C_9
REMARK    4  A    between atoms: C_9  and  N_11
REMARK    5  A    between atoms: N_11  and  N_12
REMARK    6  A    between atoms: C_13  and  C_15
REMARK    7  A    between atoms: C_20  and  C_35
REMARK    8  A    between atoms: C_23  and  C_26
REMARK    9  A    between atoms: C_29  and  C_32
REMARK   10  A    between atoms: C_32  and  C_33
REMARK   11  A    between atoms: C_32  and  C_34
REMARK                            x       y       z     vdW  Elec       q    Type
REMARK                         _______ _______ _______ _____ _____    ______ ____
ROOT
ATOM      1  C   UNL     1      -5.587   4.599   0.133  0.00  0.00    +0.150 A 
ATOM      2  C   UNL     1      -5.252   3.637   1.112  0.00  0.00    +0.078 A 
ATOM      3  C   UNL     1      -4.905   2.505   0.468  0.00  0.00    +0.119 A 
ATOM      4  N   UNL     1      -5.014   2.729  -0.876  0.00  0.00    -0.238 N 
ATOM      5  N   UNL     1      -5.440   4.044  -1.058  0.00  0.00    -0.164 NA
ATOM      6  C   UNL     1      -4.720   1.718  -1.895  0.00  0.00    +0.215 C 
ATOM      7  C   UNL     1      -4.761   0.331  -1.245  0.00  0.00    +0.063 C 
ATOM      8  C   UNL     1      -3.906   0.325   0.027  0.00  0.00    +0.104 C 
ATOM      9  N   UNL     1      -4.492   1.277   0.991  0.00  0.00    -0.322 N 
ATOM     10  H   UNL     1      -4.581   1.000   2.052  0.00  0.00    +0.148 HD
ENDROOT
BRANCH   8  11
ATOM     11  C   UNL     1      -2.498   0.745  -0.308  0.00  0.00    -0.027 A 
ATOM     12  C   UNL     1      -1.510  -0.210  -0.462  0.00  0.00    +0.006 A 
ATOM     13  C   UNL     1      -0.220   0.175  -0.774  0.00  0.00    +0.004 A 
ATOM     14  C   UNL     1       0.084   1.515  -0.928  0.00  0.00    -0.045 A 
ATOM     15  C   UNL     1      -0.903   2.470  -0.769  0.00  0.00    +0.004 A 
ATOM     16  C   UNL     1      -2.193   2.085  -0.456  0.00  0.00    +0.006 A 
BRANCH  14  17
ATOM     17  C   UNL     1       1.490   1.935  -1.269  0.00  0.00    +0.013 C 
ATOM     18  C   UNL     1       1.489   2.689  -2.600  0.00  0.00    +0.012 C 
ATOM     19  C   UNL     1       2.032   2.846  -0.166  0.00  0.00    +0.012 C 
ENDBRANCH  14  17
ENDBRANCH   8  11
BRANCH   1  21
ATOM     20  N   UNL     1      -6.317   6.806  -0.634  0.00  0.00    -0.230 N 
ATOM     21  C   UNL     1      -6.026   5.985   0.395  0.00  0.00    +0.280 C 
ATOM     22  O   UNL     1      -6.125   6.386   1.538  0.00  0.00    -0.267 OA
ATOM     23  H   UNL     1      -6.228   6.443  -1.669  0.00  0.00    +0.173 HD
BRANCH  20  24
ATOM     24  N   UNL     1      -6.733   8.120  -0.386  0.00  0.00    -0.245 N 
ATOM     25  H   UNL     1      -6.823   8.483   0.649  0.00  0.00    +0.172 HD
BRANCH  24  26
ATOM     26  C   UNL     1      -7.024   8.941  -1.415  0.00  0.00    +0.151 C 
ATOM     27  S   UNL     1      -7.533  10.547  -1.112  0.00  0.00    -0.017 S 
BRANCH  26  28
ATOM     28  N   UNL     1      -6.915   8.497  -2.683  0.00  0.00    -0.296 N 
ATOM     29  H   UNL     1      -6.521   7.489  -2.880  0.00  0.00    +0.154 HD
BRANCH  28  34
ATOM     30  C   UNL     1      -8.485  11.826  -6.999  0.00  0.00    +0.044 C 
ATOM     31  C   UNL     1      -8.068  10.941  -5.853  0.00  0.00    -0.050 A 
ATOM     32  C   UNL     1      -7.295  11.458  -4.829  0.00  0.00    +0.005 A 
ATOM     33  C   UNL     1      -6.911  10.650  -3.776  0.00  0.00    +0.023 A 
ATOM     34  C   UNL     1      -7.302   9.318  -3.747  0.00  0.00    +0.033 A 
ATOM     35  C   UNL     1      -8.073   8.800  -4.780  0.00  0.00    +0.023 A 
ATOM     36  C   UNL     1      -8.459   9.615  -5.827  0.00  0.00    +0.005 A 
ENDBRANCH  28  34
ENDBRANCH  26  28
ENDBRANCH  24  26
ENDBRANCH  20  24
ENDBRANCH   1  21
BRANCH   6  37
ATOM     37  C   UNL     1      -5.766   1.794  -3.009  0.00  0.00    +0.412 C 
ATOM     38  F   UNL     1      -7.037   1.571  -2.470  0.00  0.00    -0.168 F 
ATOM     39  F   UNL     1      -5.726   3.061  -3.601  0.00  0.00    -0.168 F 
ATOM     40  F   UNL     1      -5.491   0.820  -3.974  0.00  0.00    -0.168 F 
ENDBRANCH   6  37
TORSDOF 8
