REMARK  Name = ZINC40987362
REMARK  11 active torsions:
REMARK  status: ('A' for Active; 'I' for Inactive)
REMARK    1  A    between atoms: C_1  and  C_2
REMARK    2  A    between atoms: C_2  and  N_3
REMARK    3  A    between atoms: N_3  and  C_4
REMARK    4  A    between atoms: N_3  and  C_6
REMARK    5  A    between atoms: C_4  and  C_5
REMARK    6  A    between atoms: C_6  and  C_8
REMARK    7  A    between atoms: C_6  and  C_25
REMARK    8  A    between atoms: C_8  and  N_9
REMARK    9  A    between atoms: C_10  and  C_12
REMARK   10  A    between atoms: C_14  and  C_17
REMARK   11  A    between atoms: C_28  and  C_31
REMARK                            x       y       z     vdW  Elec       q    Type
REMARK                         _______ _______ _______ _____ _____    ______ ____
ROOT
ATOM      1  N   UNL     1       0.194   0.892   1.814  0.00  0.00    -0.311 N 
ATOM      2  C   UNL     1      -0.272   1.821   2.673  0.00  0.00    +0.266 C 
ATOM      3  O   UNL     1       0.181   1.889   3.798  0.00  0.00    -0.268 OA
ATOM      4  H   UNL     1      -0.115   0.883   0.895  0.00  0.00    +0.149 HD
ENDROOT
BRANCH   2   5
ATOM      5  C   UNL     1      -1.338   2.759   2.245  0.00  0.00    +0.168 A 
ATOM      6  C   UNL     1      -1.845   3.839   2.999  0.00  0.00    +0.086 A 
ATOM      7  C   UNL     1      -2.807   4.451   2.258  0.00  0.00    +0.168 A 
ATOM      8  O   UNL     1      -2.909   3.795   1.087  0.00  0.00    -0.354 OA
ATOM      9  N   UNL     1      -1.971   2.734   1.096  0.00  0.00    -0.073 NA
BRANCH   7  10
ATOM     10  C   UNL     1      -3.600   5.630   2.665  0.00  0.00    +0.023 A 
ATOM     11  C   UNL     1      -3.387   6.220   3.913  0.00  0.00    +0.014 A 
ATOM     12  C   UNL     1      -4.129   7.320   4.289  0.00  0.00    +0.042 A 
ATOM     13  C   UNL     1      -5.085   7.840   3.433  0.00  0.00    +0.158 A 
ATOM     14  C   UNL     1      -5.302   7.259   2.191  0.00  0.00    +0.159 A 
ATOM     15  C   UNL     1      -4.560   6.161   1.803  0.00  0.00    +0.053 A 
ATOM     16  F   UNL     1      -6.236   7.771   1.360  0.00  0.00    -0.202 F 
ATOM     17  F   UNL     1      -5.810   8.918   3.807  0.00  0.00    -0.202 F 
ENDBRANCH   7  10
ENDBRANCH   2   5
BRANCH   1  18
ATOM     18  C   UNL     1       1.167  -0.103   2.269  0.00  0.00    +0.094 C 
BRANCH  18  19
ATOM     19  C   UNL     1       1.623  -0.952   1.080  0.00  0.00    -0.020 C 
BRANCH  19  20
ATOM     20  C   UNL     1       2.500  -2.075   1.571  0.00  0.00    -0.059 A 
ATOM     21  C   UNL     1       2.371  -2.536   2.868  0.00  0.00    +0.002 A 
ATOM     22  C   UNL     1       3.176  -3.566   3.318  0.00  0.00    +0.003 A 
ATOM     23  C   UNL     1       4.109  -4.135   2.471  0.00  0.00    -0.050 A 
ATOM     24  C   UNL     1       4.237  -3.674   1.174  0.00  0.00    +0.003 A 
ATOM     25  C   UNL     1       3.430  -2.647   0.723  0.00  0.00    +0.002 A 
ATOM     26  C   UNL     1       4.987  -5.257   2.962  0.00  0.00    +0.044 C 
ENDBRANCH  19  20
BRANCH  19  27
ATOM     27  N   UNL     1       0.447  -1.511   0.399  0.00  0.00    +0.385 N 
ATOM     28  H   UNL     1      -0.180  -0.763   0.142  0.00  0.00    -0.081 HD
BRANCH  27  30
ATOM     29  C   UNL     1       1.469  -1.231  -1.809  0.00  0.00    -0.017 C 
ATOM     30  C   UNL     1       0.877  -2.227  -0.810  0.00  0.00    -0.081 C 
ENDBRANCH  27  30
BRANCH  27  31
ATOM     31  C   UNL     1      -0.244  -2.442   1.300  0.00  0.00    -0.081 C 
ATOM     32  C   UNL     1      -1.272  -1.676   2.135  0.00  0.00    -0.017 C 
ENDBRANCH  27  31
ENDBRANCH  19  27
ENDBRANCH  18  19
ENDBRANCH   1  18
TORSDOF 8
