REMARK  Name = ZINC01844258
REMARK  9 active torsions:
REMARK  status: ('A' for Active; 'I' for Inactive)
REMARK    1  A    between atoms: C_1  and  C_2
REMARK    2  A    between atoms: C_2  and  C_3
REMARK    3  A    between atoms: C_2  and  C_4
REMARK    4  A    between atoms: N_14  and  C_30
REMARK    5  A    between atoms: C_17  and  S_20
REMARK    6  A    between atoms: S_20  and  C_21
REMARK    7  A    between atoms: C_21  and  C_22
REMARK    8  A    between atoms: C_33  and  O_36
REMARK    9  A    between atoms: O_36  and  C_37
REMARK                            x       y       z     vdW  Elec       q    Type
REMARK                         _______ _______ _______ _____ _____    ______ ____
ROOT
ATOM      1  C   UNL     1      -1.096  -1.263   1.881  0.00  0.00    +0.126 C 
ATOM      2  C   UNL     1      -1.266  -2.737   1.496  0.00  0.00    +0.068 C 
ATOM      3  C   UNL     1      -2.737  -2.972   1.184  0.00  0.00    -0.018 A 
ATOM      4  C   UNL     1      -3.669  -2.086   1.598  0.00  0.00    +0.021 A 
ATOM      5  S   UNL     1      -5.202  -2.750   1.025  0.00  0.00    -0.072 S 
ATOM      6  C   UNL     1      -4.641  -4.135   0.272  0.00  0.00    +0.102 A 
ATOM      7  C   UNL     1      -3.261  -4.118   0.446  0.00  0.00    +0.075 A 
ATOM      8  C   UNL     1      -2.510  -5.253  -0.136  0.00  0.00    +0.268 A 
ATOM      9  O   UNL     1      -1.298  -5.306  -0.023  0.00  0.00    -0.266 OA
ATOM     10  N   UNL     1      -3.168  -6.224  -0.789  0.00  0.00    -0.245 N 
ATOM     11  C   UNL     1      -4.546  -6.191  -0.933  0.00  0.00    +0.245 A 
ATOM     12  N   UNL     1      -5.274  -5.156  -0.406  0.00  0.00    -0.249 N 
ATOM     13  C   UNL     1      -6.594  -5.381  -0.697  0.00  0.00    +0.198 A 
ATOM     14  N   UNL     1      -6.676  -6.502  -1.371  0.00  0.00    -0.120 NA
ATOM     15  N   UNL     1      -5.381  -7.015  -1.521  0.00  0.00    -0.109 NA
ATOM     16  C   UNL     1      -3.406  -0.832   2.371  0.00  0.00    +0.203 C 
ATOM     17  O   UNL     1      -2.061  -0.901   2.872  0.00  0.00    -0.371 OA
ENDROOT
BRANCH  10  18
ATOM     18  C   UNL     1      -2.447  -7.294  -1.337  0.00  0.00    +0.053 A 
ATOM     19  C   UNL     1      -1.965  -7.213  -2.637  0.00  0.00    +0.030 A 
ATOM     20  C   UNL     1      -1.255  -8.267  -3.176  0.00  0.00    +0.047 A 
ATOM     21  C   UNL     1      -1.022  -9.407  -2.420  0.00  0.00    +0.120 A 
ATOM     22  C   UNL     1      -1.504  -9.488  -1.122  0.00  0.00    +0.047 A 
ATOM     23  C   UNL     1      -2.209  -8.432  -0.579  0.00  0.00    +0.030 A 
BRANCH  21  24
ATOM     24  O   UNL     1      -0.323 -10.444  -2.952  0.00  0.00    -0.495 OA
ATOM     25  C   UNL     1      -0.121 -11.586  -2.116  0.00  0.00    +0.277 C 
ENDBRANCH  21  24
ENDBRANCH  10  18
BRANCH   1  27
ATOM     26  C   UNL     1       0.486   0.428   2.818  0.00  0.00    +0.010 C 
ATOM     27  C   UNL     1       0.311  -1.044   2.439  0.00  0.00    +0.012 C 
ATOM     28  C   UNL     1       0.510  -1.917   3.680  0.00  0.00    +0.010 C 
ENDBRANCH   1  27
BRANCH  13  29
ATOM     29  S   UNL     1      -7.945  -4.345  -0.243  0.00  0.00    -0.081 S 
BRANCH  29  30
ATOM     30  C   UNL     1      -9.397  -5.196  -0.920  0.00  0.00    +0.112 C 
BRANCH  30  31
ATOM     31  C   UNL     1     -10.638  -4.404  -0.599  0.00  0.00    -0.036 A 
ATOM     32  C   UNL     1     -11.326  -4.645   0.576  0.00  0.00    +0.006 A 
ATOM     33  C   UNL     1     -12.465  -3.920   0.872  0.00  0.00    +0.022 A 
ATOM     34  C   UNL     1     -12.917  -2.953  -0.007  0.00  0.00    +0.059 A 
ATOM     35  C   UNL     1     -12.228  -2.711  -1.184  0.00  0.00    +0.060 A 
ATOM     36  C   UNL     1     -11.085  -3.434  -1.476  0.00  0.00    +0.026 A 
ATOM     37 CL   UNL     1     -12.794  -1.498  -2.289  0.00  0.00    -0.082 Cl
ATOM     38 CL   UNL     1     -14.348  -2.042   0.364  0.00  0.00    -0.082 Cl
ENDBRANCH  30  31
ENDBRANCH  29  30
ENDBRANCH  13  29
TORSDOF 6
