REMARK  Name = ZINC44606377
REMARK  2 active torsions:
REMARK  status: ('A' for Active; 'I' for Inactive)
REMARK    1  A    between atoms: C_9  and  S_11
REMARK    2  A    between atoms: S_11  and  N_14
REMARK                            x       y       z     vdW  Elec       q    Type
REMARK                         _______ _______ _______ _____ _____    ______ ____
ROOT
ATOM      1  C   UNL     1      -0.017   1.389   0.010  0.00  0.00    +0.003 A 
ATOM      2  C   UNL     1       1.142   2.103   0.002  0.00  0.00    +0.010 A 
ATOM      3  C   UNL     1       2.373   1.428  -0.013  0.00  0.00    +0.002 A 
ATOM      4  C   UNL     1       3.594   2.130  -0.020  0.00  0.00    +0.011 A 
ATOM      5  C   UNL     1       4.752   1.407  -0.035  0.00  0.00    +0.020 A 
ATOM      6  C   UNL     1       4.703   0.014  -0.042  0.00  0.00    +0.111 A 
ATOM      7  N   UNL     1       3.565  -0.636  -0.035  0.00  0.00    -0.253 NA
ATOM      8  C   UNL     1       2.395   0.011  -0.021  0.00  0.00    +0.097 A 
ATOM      9  C   UNL     1       1.177  -0.691  -0.013  0.00  0.00    +0.131 A 
ATOM     10  C   UNL     1       0.002  -0.004   0.002  0.00  0.00    +0.031 A 
ENDROOT
BRANCH   9  11
ATOM     11  S   UNL     1       1.172  -2.453  -0.024  0.00  0.00    +0.063 S 
ATOM     12  O   UNL     1       2.077  -2.867   0.991  0.00  0.00    -0.153 OA
ATOM     13  O   UNL     1      -0.191  -2.855  -0.040  0.00  0.00    -0.153 OA
BRANCH  11  14
ATOM     14  N   UNL     1       1.826  -2.935  -1.467  0.00  0.00    -0.174 NA
ATOM     15  C   UNL     1       0.975  -3.143  -2.649  0.00  0.00    +0.124 C 
ATOM     16  C   UNL     1       1.281  -4.527  -3.231  0.00  0.00    +0.098 C 
ATOM     17  N   UNL     1       2.724  -4.644  -3.476  0.00  0.00    -0.313 NA
ATOM     18  C   UNL     1       3.487  -4.551  -2.224  0.00  0.00    +0.098 C 
ATOM     19  C   UNL     1       3.272  -3.162  -1.602  0.00  0.00    +0.124 C 
ATOM     20  H   UNL     1       2.940  -5.499  -3.968  0.00  0.00    +0.122 HD
ENDBRANCH  11  14
ENDBRANCH   9  11
TORSDOF 2
