REMARK  Name = ZINC66941936
REMARK  9 active torsions:
REMARK  status: ('A' for Active; 'I' for Inactive)
REMARK    1  A    between atoms: C_1  and  C_2
REMARK    2  A    between atoms: C_2  and  C_3
REMARK    3  A    between atoms: C_3  and  C_5
REMARK    4  A    between atoms: C_3  and  C_6
REMARK    5  A    between atoms: C_6  and  C_8
REMARK    6  A    between atoms: C_6  and  N_23
REMARK    7  A    between atoms: N_10  and  C_11
REMARK    8  A    between atoms: C_13  and  N_19
REMARK    9  A    between atoms: C_20  and  C_22
REMARK                            x       y       z     vdW  Elec       q    Type
REMARK                         _______ _______ _______ _____ _____    ______ ____
ROOT
ATOM      1  C   UNL     1       1.723  -2.449  -2.433  0.00  0.00    +0.238 C 
ATOM      2  O   UNL     1       1.289  -2.886  -3.478  0.00  0.00    -0.273 OA
ATOM      3  N   UNL     1       3.054  -2.389  -2.229  0.00  0.00    -0.282 N 
ATOM      4  H   UNL     1       3.403  -1.968  -1.428  0.00  0.00    +0.155 HD
ENDROOT
BRANCH   3   5
ATOM      5  C   UNL     1       3.933  -2.934  -3.174  0.00  0.00    +0.071 A 
ATOM      6  C   UNL     1       3.502  -3.944  -4.022  0.00  0.00    +0.052 A 
ATOM      7  C   UNL     1       4.373  -4.482  -4.957  0.00  0.00    +0.071 A 
ATOM      8  C   UNL     1       5.678  -4.007  -5.043  0.00  0.00    +0.147 A 
ATOM      9  C   UNL     1       6.106  -3.001  -4.197  0.00  0.00    +0.080 A 
ATOM     10  C   UNL     1       5.236  -2.459  -3.267  0.00  0.00    +0.147 A 
ATOM     11  F   UNL     1       5.655  -1.472  -2.446  0.00  0.00    -0.203 F 
ATOM     12  F   UNL     1       6.528  -4.531  -5.954  0.00  0.00    -0.203 F 
BRANCH   7  13
ATOM     13  N   UNL     1       3.940  -5.503  -5.814  0.00  0.00    -0.283 N 
ATOM     14  C   UNL     1       2.928  -6.310  -5.442  0.00  0.00    +0.214 C 
ATOM     15  O   UNL     1       2.341  -6.107  -4.400  0.00  0.00    -0.276 OA
ATOM     16  C   UNL     1       2.523  -7.465  -6.321  0.00  0.00    +0.109 C 
ATOM     17  H   UNL     1       4.370  -5.628  -6.675  0.00  0.00    +0.155 HD
ENDBRANCH   7  13
ENDBRANCH   3   5
BRANCH   1  18
ATOM     18  C   UNL     1       0.774  -1.973  -1.363  0.00  0.00    +0.163 C 
BRANCH  18  19
ATOM     19  N   UNL     1      -0.550  -2.557  -1.590  0.00  0.00    -0.288 N 
ATOM     20  C   UNL     1      -0.868  -3.743  -1.034  0.00  0.00    +0.298 C 
ATOM     21  O   UNL     1      -0.091  -4.285  -0.272  0.00  0.00    -0.253 OA
ATOM     22  N   UNL     1      -2.047  -4.328  -1.324  0.00  0.00    -0.313 N 
ATOM     23  H   UNL     1      -1.198  -2.089  -2.140  0.00  0.00    +0.151 HD
ATOM     24  H   UNL     1      -2.667  -3.896  -1.932  0.00  0.00    +0.146 HD
ATOM     25  H   UNL     1      -2.276  -5.182  -0.924  0.00  0.00    +0.146 HD
ENDBRANCH  18  19
BRANCH  18  26
ATOM     26  C   UNL     1       0.674  -0.447  -1.412  0.00  0.00    +0.015 C 
ATOM     27  C   UNL     1       0.086  -0.017  -2.757  0.00  0.00    +0.010 C 
BRANCH  26  29
ATOM     28  C   UNL     1      -0.233   1.571  -0.251  0.00  0.00    +0.004 C 
ATOM     29  C   UNL     1      -0.232   0.041  -0.280  0.00  0.00    +0.002 C 
ENDBRANCH  26  29
ENDBRANCH  18  26
ENDBRANCH   1  18
TORSDOF 6
