REMARK  Name = ZINC50037970
REMARK  5 active torsions:
REMARK  status: ('A' for Active; 'I' for Inactive)
REMARK    1  A    between atoms: C_1  and  N_2
REMARK    2  A    between atoms: C_3  and  N_21
REMARK    3  A    between atoms: C_4  and  C_7
REMARK    4  A    between atoms: C_9  and  C_12
REMARK    5  A    between atoms: C_12  and  C_13
REMARK                            x       y       z     vdW  Elec       q    Type
REMARK                         _______ _______ _______ _____ _____    ______ ____
ROOT
ATOM      1  C   UNL     1       0.039  -3.309  -1.508  0.00  0.00    +0.263 A 
ATOM      2  N   UNL     1       0.053  -4.557  -1.084  0.00  0.00    -0.191 NA
ATOM      3  C   UNL     1       0.061  -5.391  -2.125  0.00  0.00    +0.176 A 
ATOM      4  N   UNL     1       0.052  -4.698  -3.229  0.00  0.00    -0.061 NA
ATOM      5  O   UNL     1       0.032  -3.329  -2.853  0.00  0.00    -0.333 OA
ENDROOT
BRANCH   1   9
ATOM      6  C   UNL     1      -0.018   1.461   0.010  0.00  0.00    +0.174 C 
ATOM      7  N   UNL     1       0.002  -0.004   0.002  0.00  0.00    -0.253 N 
ATOM      8  C   UNL     1       0.008  -0.787  -1.097  0.00  0.00    +0.127 A 
ATOM      9  C   UNL     1       0.028  -2.107  -0.660  0.00  0.00    +0.098 A 
ATOM     10  C   UNL     1       0.034  -2.075   0.753  0.00  0.00    +0.149 A 
ATOM     11  N   UNL     1       0.025  -0.828   1.133  0.00  0.00    -0.177 NA
BRANCH   8  12
ATOM     12  N   UNL     1      -0.004  -0.357  -2.412  0.00  0.00    -0.343 N 
ATOM     13  H   UNL     1      -0.018   0.592  -2.611  0.00  0.00    +0.144 HD
ATOM     14  H   UNL     1       0.001  -1.005  -3.134  0.00  0.00    +0.144 HD
ENDBRANCH   8  12
ENDBRANCH   1   9
BRANCH   3  15
ATOM     15  C   UNL     1       0.077  -6.896  -2.039  0.00  0.00    +0.115 C 
BRANCH  15  16
ATOM     16  C   UNL     1      -1.338  -7.413  -2.008  0.00  0.00    -0.038 A 
ATOM     17  C   UNL     1      -1.988  -7.576  -0.798  0.00  0.00    +0.005 A 
ATOM     18  C   UNL     1      -3.285  -8.050  -0.768  0.00  0.00    +0.022 A 
ATOM     19  C   UNL     1      -3.935  -8.362  -1.949  0.00  0.00    +0.059 A 
ATOM     20  C   UNL     1      -3.284  -8.199  -3.160  0.00  0.00    +0.060 A 
ATOM     21  C   UNL     1      -1.987  -7.719  -3.189  0.00  0.00    +0.025 A 
ATOM     22 CL   UNL     1      -4.098  -8.590  -4.643  0.00  0.00    -0.082 Cl
ATOM     23 CL   UNL     1      -5.565  -8.959  -1.912  0.00  0.00    -0.082 Cl
ENDBRANCH  15  16
ENDBRANCH   3  15
TORSDOF 4
