REMARK  Name = ZINC45089264
REMARK  5 active torsions:
REMARK  status: ('A' for Active; 'I' for Inactive)
REMARK    1  A    between atoms: C_1  and  C_2
REMARK    2  A    between atoms: C_3  and  C_22
REMARK    3  A    between atoms: C_7  and  C_8
REMARK    4  A    between atoms: C_8  and  N_10
REMARK    5  A    between atoms: C_15  and  C_17
REMARK                            x       y       z     vdW  Elec       q    Type
REMARK                         _______ _______ _______ _____ _____    ______ ____
ROOT
ATOM      1  C   UNL     1      -0.181   1.252  -0.594  0.00  0.00    +0.046 C 
ATOM      2  C   UNL     1       0.063  -0.228  -0.446  0.00  0.00    -0.015 A 
ATOM      3  C   UNL     1       0.265  -1.032  -1.555  0.00  0.00    +0.064 A 
ATOM      4  N   UNL     1       0.477  -2.325  -1.406  0.00  0.00    -0.152 NA
ATOM      5  N   UNL     1       0.507  -2.895  -0.257  0.00  0.00    -0.133 NA
ATOM      6  C   UNL     1       0.327  -2.220   0.870  0.00  0.00    +0.154 A 
ATOM      7  C   UNL     1       0.099  -0.832   0.818  0.00  0.00    +0.049 A 
ATOM      8  N   UNL     1       0.367  -2.875   2.089  0.00  0.00    -0.310 N 
ATOM      9  C   UNL     1       0.319  -2.229   3.413  0.00  0.00    +0.107 C 
ATOM     10  C   UNL     1       0.997  -3.239   4.372  0.00  0.00    +0.021 C 
ATOM     11  C   UNL     1       0.504  -4.593   3.797  0.00  0.00    +0.024 C 
ATOM     12  C   UNL     1       0.459  -4.330   2.277  0.00  0.00    +0.078 C 
ATOM     13  C   UNL     1       0.241  -0.429  -2.936  0.00  0.00    +0.068 C 
ENDROOT
BRANCH  12  14
ATOM     14  C   UNL     1      -0.766  -5.012   1.665  0.00  0.00    +0.009 C 
ATOM     15  C   UNL     1      -2.041  -4.587   2.421  0.00  0.00    +0.005 C 
ATOM     16  C   UNL     1      -2.911  -5.868   2.451  0.00  0.00    +0.000 C 
ATOM     17  C   UNL     1      -1.862  -6.988   2.665  0.00  0.00    +0.000 C 
ATOM     18  C   UNL     1      -0.652  -6.539   1.820  0.00  0.00    +0.005 C 
ENDBRANCH  12  14
BRANCH   7  19
ATOM     19  C   UNL     1      -0.101  -0.043   2.048  0.00  0.00    +0.081 C 
ATOM     20  S   UNL     1      -1.663   0.092   2.734  0.00  0.00    -0.035 S 
BRANCH  19  21
ATOM     21  N   UNL     1       0.947   0.572   2.631  0.00  0.00    -0.352 N 
ATOM     22  H   UNL     1       1.843   0.437   2.285  0.00  0.00    +0.143 HD
ATOM     23  H   UNL     1       0.805   1.150   3.397  0.00  0.00    +0.143 HD
ENDBRANCH  19  21
ENDBRANCH   7  19
TORSDOF 3
