REMARK  Name = ZINC22969207
REMARK  13 active torsions:
REMARK  status: ('A' for Active; 'I' for Inactive)
REMARK    1  A    between atoms: C_1  and  C_2
REMARK    2  A    between atoms: C_5  and  C_8
REMARK    3  A    between atoms: C_10  and  C_13
REMARK    4  A    between atoms: C_13  and  S_14
REMARK    5  A    between atoms: S_14  and  C_15
REMARK    6  A    between atoms: C_18  and  C_21
REMARK    7  A    between atoms: N_19  and  N_20
REMARK    8  A    between atoms: C_21  and  O_22
REMARK    9  A    between atoms: O_22  and  C_23
REMARK   10  A    between atoms: C_26  and  C_29
REMARK   11  A    between atoms: C_29  and  C_30
REMARK   12  A    between atoms: C_29  and  C_31
REMARK   13  A    between atoms: C_29  and  C_32
REMARK                            x       y       z     vdW  Elec       q    Type
REMARK                         _______ _______ _______ _____ _____    ______ ____
ROOT
ATOM      1  C   UNL     1       5.882   0.660  -1.469  0.00  0.00    +0.209 A 
ATOM      2  N   UNL     1       6.490   0.656  -0.306  0.00  0.00    -0.121 NA
ATOM      3  N   UNL     1       7.763   0.645  -0.478  0.00  0.00    -0.128 NA
ATOM      4  C   UNL     1       8.042   0.650  -1.751  0.00  0.00    +0.189 A 
ATOM      5  N   UNL     1       6.854   0.659  -2.428  0.00  0.00    -0.225 N 
ENDROOT
BRANCH   5   6
ATOM      6  N   UNL     1       6.676   0.667  -3.783  0.00  0.00    -0.295 N 
ATOM      7  H   UNL     1       7.549   0.665  -4.452  0.00  0.00    +0.163 HD
ATOM      8  H   UNL     1       5.660   0.674  -4.204  0.00  0.00    +0.163 HD
ENDBRANCH   5   6
BRANCH   1   9
ATOM      9  S   UNL     1       4.141   0.672  -1.742  0.00  0.00    -0.078 S 
BRANCH   9  10
ATOM     10  C   UNL     1       3.555   0.666  -0.029  0.00  0.00    +0.136 C 
BRANCH  10  13
ATOM     11  C   UNL     1       0.002  -0.004   0.002  0.00  0.00    +0.227 A 
ATOM     12  N   UNL     1       1.252  -0.405  -0.012  0.00  0.00    -0.213 NA
ATOM     13  C   UNL     1       2.048   0.675  -0.014  0.00  0.00    +0.090 A 
ATOM     14  C   UNL     1       1.262   1.767  -0.001  0.00  0.00    +0.221 A 
ATOM     15  O   UNL     1      -0.016   1.340   0.009  0.00  0.00    -0.443 OA
BRANCH  11  20
ATOM     16  C   UNL     1      -4.623  -3.427   0.022  0.00  0.00    +0.044 C 
ATOM     17  C   UNL     1      -3.412  -2.531   0.018  0.00  0.00    -0.050 A 
ATOM     18  C   UNL     1      -3.572  -1.157   0.028  0.00  0.00    +0.004 A 
ATOM     19  C   UNL     1      -2.467  -0.330   0.023  0.00  0.00    +0.013 A 
ATOM     20  C   UNL     1      -1.186  -0.883   0.008  0.00  0.00    +0.037 A 
ATOM     21  C   UNL     1      -1.032  -2.271  -0.007  0.00  0.00    +0.013 A 
ATOM     22  C   UNL     1      -2.145  -3.086   0.002  0.00  0.00    +0.004 A 
ENDBRANCH  11  20
ENDBRANCH  10  13
ENDBRANCH   9  10
ENDBRANCH   1   9
BRANCH   4  23
ATOM     23  C   UNL     1       9.419   0.645  -2.364  0.00  0.00    +0.306 C 
BRANCH  23  24
ATOM     24  O   UNL     1       9.861   1.991  -2.551  0.00  0.00    -0.484 OA
BRANCH  24  25
ATOM     25  C   UNL     1      11.093   2.165  -3.098  0.00  0.00    +0.121 A 
ATOM     26  C   UNL     1      11.863   1.063  -3.443  0.00  0.00    +0.046 A 
ATOM     27  C   UNL     1      13.112   1.243  -4.004  0.00  0.00    +0.008 A 
ATOM     28  C   UNL     1      13.601   2.519  -4.212  0.00  0.00    -0.042 A 
ATOM     29  C   UNL     1      12.838   3.619  -3.865  0.00  0.00    +0.008 A 
ATOM     30  C   UNL     1      11.586   3.445  -3.308  0.00  0.00    +0.046 A 
BRANCH  28  31
ATOM     31  C   UNL     1      14.966   2.712  -4.819  0.00  0.00    -0.013 C 
ATOM     32  C   UNL     1      15.854   3.484  -3.841  0.00  0.00    +0.015 C 
ATOM     33  C   UNL     1      15.594   1.347  -5.108  0.00  0.00    +0.015 C 
ATOM     34  C   UNL     1      14.838   3.501  -6.123  0.00  0.00    +0.015 C 
ENDBRANCH  28  31
ENDBRANCH  24  25
ENDBRANCH  23  24
ENDBRANCH   4  23
TORSDOF 9
