REMARK  Name = ZINC36206537
REMARK  17 active torsions:
REMARK  status: ('A' for Active; 'I' for Inactive)
REMARK    1  A    between atoms: C_1  and  C_2
REMARK    2  A    between atoms: C_2  and  C_3
REMARK    3  A    between atoms: C_2  and  C_4
REMARK    4  A    between atoms: C_4  and  N_5
REMARK    5  A    between atoms: N_5  and  C_6
REMARK    6  A    between atoms: N_5  and  C_26
REMARK    7  A    between atoms: C_6  and  C_7
REMARK    8  A    between atoms: C_13  and  C_18
REMARK    9  A    between atoms: C_23  and  O_24
REMARK   10  A    between atoms: O_24  and  C_25
REMARK   11  A    between atoms: C_26  and  C_27
REMARK   12  A    between atoms: C_27  and  C_29
REMARK   13  A    between atoms: C_27  and  O_34
REMARK   14  A    between atoms: C_29  and  O_30
REMARK   15  A    between atoms: O_30  and  C_31
REMARK   16  A    between atoms: C_31  and  C_32
REMARK   17  A    between atoms: C_31  and  C_33
REMARK                            x       y       z     vdW  Elec       q    Type
REMARK                         _______ _______ _______ _____ _____    ______ ____
ROOT
ATOM      1  C   UNL     1       4.214  -0.740  -0.391  0.00  0.00    +0.094 A 
ATOM      2  N   UNL     1       5.067  -1.490   0.353  0.00  0.00    -0.312 N 
ATOM      3  H   UNL     1       4.715  -2.216   0.891  0.00  0.00    +0.170 HD
ATOM      4  C   UNL     1       6.390  -1.246   0.359  0.00  0.00    +0.260 A 
ATOM      5  O   UNL     1       7.143  -1.929   1.033  0.00  0.00    -0.267 OA
ATOM      6  C   UNL     1       6.901  -0.172  -0.437  0.00  0.00    +0.080 A 
ATOM      7  C   UNL     1       8.276   0.285  -0.597  0.00  0.00    +0.007 A 
ATOM      8  C   UNL     1       8.523   1.336  -1.417  0.00  0.00    +0.056 A 
ATOM      9  S   UNL     1       6.905   1.774  -2.024  0.00  0.00    -0.076 S 
ATOM     10  C   UNL     1       5.945   0.548  -1.173  0.00  0.00    +0.116 A 
ATOM     11  N   UNL     1       4.651   0.244  -1.132  0.00  0.00    -0.229 NA
ENDROOT
BRANCH   7  12
ATOM     12  C   UNL     1       9.384  -0.387   0.123  0.00  0.00    +0.025 A 
ATOM     13  C   UNL     1      10.106   0.302   1.096  0.00  0.00    +0.012 A 
ATOM     14  C   UNL     1      11.136  -0.329   1.764  0.00  0.00    +0.001 A 
ATOM     15  C   UNL     1      11.455  -1.643   1.471  0.00  0.00    +0.004 A 
ATOM     16  C   UNL     1      10.745  -2.335   0.508  0.00  0.00    +0.046 A 
ATOM     17  C   UNL     1       9.705  -1.717  -0.166  0.00  0.00    +0.128 A 
BRANCH  17  18
ATOM     18  O   UNL     1       9.003  -2.398  -1.109  0.00  0.00    -0.495 OA
ATOM     19  C   UNL     1       9.388  -3.753  -1.351  0.00  0.00    +0.277 C 
ENDBRANCH  17  18
ENDBRANCH   7  12
BRANCH   1  20
ATOM     20  C   UNL     1       2.740  -1.050  -0.367  0.00  0.00    -0.003 C 
BRANCH  20  21
ATOM     21  N   UNL     1       2.046  -0.212  -1.354  0.00  0.00    +0.386 N 
ATOM     22  H   UNL     1       2.277   0.757  -1.194  0.00  0.00    -0.081 HD
BRANCH  21  23
ATOM     23  C   UNL     1       0.595  -0.398  -1.222  0.00  0.00    -0.075 C 
BRANCH  23  25
ATOM     24  C   UNL     1       0.379   1.643   0.203  0.00  0.00    +0.005 C 
ATOM     25  C   UNL     1       0.135   0.134   0.137  0.00  0.00    -0.034 C 
ATOM     26  C   UNL     1      -1.358  -0.149   0.317  0.00  0.00    +0.005 C 
ENDBRANCH  23  25
ENDBRANCH  21  23
BRANCH  21  27
ATOM     27  C   UNL     1       2.468  -0.599  -2.707  0.00  0.00    -0.044 C 
BRANCH  27  28
ATOM     28  C   UNL     1       1.843   0.353  -3.728  0.00  0.00    +0.124 C 
BRANCH  28  29
ATOM     29  O   UNL     1       2.363   1.670  -3.532  0.00  0.00    -0.391 OA
ATOM     30  H   UNL     1       3.323   1.733  -3.633  0.00  0.00    +0.210 HD
ENDBRANCH  28  29
BRANCH  28  31
ATOM     31  C   UNL     1       2.179  -0.122  -5.143  0.00  0.00    +0.189 C 
BRANCH  31  32
ATOM     32  O   UNL     1       1.501   0.698  -6.096  0.00  0.00    -0.375 OA
BRANCH  32  33
ATOM     33  C   UNL     1       1.748   0.336  -7.455  0.00  0.00    +0.112 C 
ATOM     34  C   UNL     1       0.707  -0.690  -7.908  0.00  0.00    +0.037 C 
ATOM     35  C   UNL     1       1.656   1.581  -8.340  0.00  0.00    +0.037 C 
ENDBRANCH  32  33
ENDBRANCH  31  32
ENDBRANCH  28  31
ENDBRANCH  27  28
ENDBRANCH  21  27
ENDBRANCH  20  21
ENDBRANCH   1  20
TORSDOF 12
