REMARK  Name = ZINC10759042
REMARK  9 active torsions:
REMARK  status: ('A' for Active; 'I' for Inactive)
REMARK    1  A    between atoms: C_1  and  C_2
REMARK    2  A    between atoms: N_11  and  C_15
REMARK    3  A    between atoms: C_15  and  C_16
REMARK    4  A    between atoms: C_16  and  O_18
REMARK    5  A    between atoms: O_18  and  C_19
REMARK    6  A    between atoms: C_19  and  C_20
REMARK    7  A    between atoms: C_23  and  C_25
REMARK    8  A    between atoms: C_30  and  O_31
REMARK    9  A    between atoms: O_31  and  C_32
REMARK                            x       y       z     vdW  Elec       q    Type
REMARK                         _______ _______ _______ _____ _____    ______ ____
ROOT
ATOM      1  C   UNL     1       2.909   1.266  -1.439  0.00  0.00    +0.326 C 
ATOM      2  O   UNL     1       2.169   1.555  -2.349  0.00  0.00    -0.249 OA
ENDROOT
BRANCH   1   3
ATOM      3  C   UNL     1       2.453   1.440  -0.013  0.00  0.00    +0.238 C 
BRANCH   3  13
ATOM      4  C   UNL     1      -0.712   3.293   2.520  0.00  0.00    +0.010 C 
ATOM      5  C   UNL     1      -1.213   4.053   1.290  0.00  0.00    +0.018 C 
ATOM      6  C   UNL     1      -2.743   4.086   1.300  0.00  0.00    +0.006 C 
ATOM      7  C   UNL     1      -3.244   4.828   0.059  0.00  0.00    +0.000 C 
ATOM      8  C   UNL     1      -2.767   4.099  -1.199  0.00  0.00    +0.003 C 
ATOM      9  C   UNL     1      -1.237   4.066  -1.219  0.00  0.00    +0.035 C 
ATOM     10  C   UNL     1      -0.725   3.352   0.027  0.00  0.00    +0.115 C 
ATOM     11  C   UNL     1       0.785   3.285   0.012  0.00  0.00    +0.247 C 
ATOM     12  O   UNL     1       1.561   4.217   0.010  0.00  0.00    -0.273 OA
ATOM     13  N   UNL     1       1.088   1.971   0.002  0.00  0.00    -0.213 N 
ATOM     14  C   UNL     1      -0.014   1.211   0.009  0.00  0.00    +0.310 C 
ATOM     15  O   UNL     1       0.002  -0.004   0.002  0.00  0.00    -0.252 OA
ATOM     16  N   UNL     1      -1.144   1.945   0.018  0.00  0.00    -0.285 N 
ATOM     17  H   UNL     1      -2.054   1.610   0.019  0.00  0.00    +0.151 HD
ENDBRANCH   3  13
ENDBRANCH   1   3
BRANCH   1  18
ATOM     18  O   UNL     1       4.136   0.789  -1.698  0.00  0.00    -0.457 OA
BRANCH  18  19
ATOM     19  C   UNL     1       4.508   0.647  -3.094  0.00  0.00    +0.288 C 
BRANCH  19  20
ATOM     20  C   UNL     1       5.910   0.102  -3.189  0.00  0.00    +0.086 A 
ATOM     21  C   UNL     1       6.611  -0.172  -2.057  0.00  0.00    +0.074 A 
ATOM     22  S   UNL     1       8.145  -0.768  -2.756  0.00  0.00    -0.075 S 
ATOM     23  C   UNL     1       7.687  -0.587  -4.475  0.00  0.00    +0.112 A 
ATOM     24  N   UNL     1       6.454  -0.113  -4.364  0.00  0.00    -0.240 NA
BRANCH  23  25
ATOM     25  C   UNL     1       8.469  -0.890  -5.691  0.00  0.00    +0.049 A 
ATOM     26  C   UNL     1       7.916  -0.673  -6.953  0.00  0.00    +0.014 A 
ATOM     27  C   UNL     1       8.651  -0.958  -8.085  0.00  0.00    +0.001 A 
ATOM     28  C   UNL     1       9.937  -1.458  -7.974  0.00  0.00    +0.004 A 
ATOM     29  C   UNL     1      10.496  -1.677  -6.729  0.00  0.00    +0.046 A 
ATOM     30  C   UNL     1       9.772  -1.391  -5.583  0.00  0.00    +0.130 A 
BRANCH  30  31
ATOM     31  O   UNL     1      10.323  -1.600  -4.359  0.00  0.00    -0.494 OA
ATOM     32  C   UNL     1      11.656  -2.113  -4.327  0.00  0.00    +0.277 C 
ENDBRANCH  30  31
ENDBRANCH  23  25
ENDBRANCH  19  20
ENDBRANCH  18  19
ENDBRANCH   1  18
TORSDOF 7
