REMARK  Name = ZINC09265047
REMARK  5 active torsions:
REMARK  status: ('A' for Active; 'I' for Inactive)
REMARK    1  A    between atoms: C_7  and  N_23
REMARK    2  A    between atoms: C_8  and  C_10
REMARK    3  A    between atoms: N_15  and  C_18
REMARK    4  A    between atoms: C_24  and  C_26
REMARK    5  A    between atoms: C_26  and  C_27
REMARK                            x       y       z     vdW  Elec       q    Type
REMARK                         _______ _______ _______ _____ _____    ______ ____
ROOT
ATOM      1  C   UNL     1      -2.328  10.600  -6.220  0.00  0.00    +0.001 A 
ATOM      2  C   UNL     1      -3.273   9.790  -5.608  0.00  0.00    +0.004 A 
ATOM      3  C   UNL     1      -3.018   9.212  -4.383  0.00  0.00    +0.047 A 
ATOM      4  C   UNL     1      -1.801   9.441  -3.750  0.00  0.00    +0.138 A 
ATOM      5  C   UNL     1      -0.848  10.263  -4.376  0.00  0.00    +0.042 A 
ATOM      6  C   UNL     1      -1.126  10.839  -5.617  0.00  0.00    +0.013 A 
ATOM      7  C   UNL     1       0.302  10.307  -3.465  0.00  0.00    +0.092 A 
ATOM      8  C   UNL     1      -0.037   9.524  -2.396  0.00  0.00    +0.212 A 
ATOM      9  O   UNL     1      -1.280   9.024  -2.579  0.00  0.00    -0.448 OA
ENDROOT
BRANCH   8  10
ATOM     10  C   UNL     1       0.812   9.270  -1.233  0.00  0.00    +0.284 C 
ATOM     11  O   UNL     1       1.643   8.382  -1.268  0.00  0.00    -0.267 OA
ATOM     12  N   UNL     1       0.673  10.020  -0.122  0.00  0.00    -0.292 N 
ATOM     13  C   UNL     1       1.444   9.718   1.094  0.00  0.00    +0.127 C 
ATOM     14  C   UNL     1       0.475   9.639   2.278  0.00  0.00    +0.125 C 
ATOM     15  N   UNL     1      -0.322  10.872   2.338  0.00  0.00    -0.314 N 
ATOM     16  C   UNL     1      -1.155  11.027   1.138  0.00  0.00    +0.125 C 
ATOM     17  C   UNL     1      -0.253  11.163  -0.093  0.00  0.00    +0.127 C 
BRANCH  15  18
ATOM     18  C   UNL     1      -1.097  10.909   3.491  0.00  0.00    +0.099 A 
ATOM     19  C   UNL     1      -1.924  12.001   3.731  0.00  0.00    +0.042 A 
ATOM     20  C   UNL     1      -2.694  12.023   4.880  0.00  0.00    +0.005 A 
ATOM     21  C   UNL     1      -2.602  10.951   5.759  0.00  0.00    +0.018 A 
ATOM     22  C   UNL     1      -1.760   9.900   5.458  0.00  0.00    +0.084 A 
ATOM     23  N   UNL     1      -0.994   9.842   4.336  0.00  0.00    -0.350 N 
ATOM     24  H   UNL     1      -0.376   9.047   4.137  0.00  0.00    +0.166 HD
ENDBRANCH  15  18
ENDBRANCH   8  10
BRANCH   7  25
ATOM     25  N   UNL     1       1.493  11.000  -3.651  0.00  0.00    -0.282 N 
ATOM     26  C   UNL     1       1.488  12.190  -4.285  0.00  0.00    +0.222 C 
ATOM     27  O   UNL     1       0.463  12.609  -4.779  0.00  0.00    -0.275 OA
ATOM     28  H   UNL     1       2.327  10.628  -3.324  0.00  0.00    +0.155 HD
BRANCH  26  29
ATOM     29  C   UNL     1       2.756  12.997  -4.381  0.00  0.00    +0.138 C 
BRANCH  29  30
ATOM     30  C   UNL     1       2.483  14.274  -5.133  0.00  0.00    -0.001 A 
ATOM     31  C   UNL     1       2.084  15.478  -4.654  0.00  0.00    +0.011 A 
ATOM     32  C   UNL     1       1.897  16.523  -5.540  0.00  0.00    +0.008 A 
ATOM     33  C   UNL     1       2.107  16.310  -6.862  0.00  0.00    +0.045 A 
ATOM     34  S   UNL     1       2.593  14.592  -6.886  0.00  0.00    -0.101 S 
ENDBRANCH  29  30
ENDBRANCH  26  29
ENDBRANCH   7  25
TORSDOF 5
