REMARK  Name = ZINC39081251
REMARK  3 active torsions:
REMARK  status: ('A' for Active; 'I' for Inactive)
REMARK    1  A    between atoms: C_1  and  C_2
REMARK    2  A    between atoms: C_6  and  C_12
REMARK    3  A    between atoms: N_8  and  C_9
REMARK                            x       y       z     vdW  Elec       q    Type
REMARK                         _______ _______ _______ _____ _____    ______ ____
ROOT
ATOM      1  C   UNL     1      -0.019   1.526   0.010  0.00  0.00    +0.028 C 
ATOM      2  C   UNL     1       0.002  -0.004   0.002  0.00  0.00    +0.074 C 
ATOM      3  C   UNL     1      -1.442  -0.549   0.021  0.00  0.00    +0.024 C 
ATOM      4  C   UNL     1      -1.335  -1.785   0.952  0.00  0.00    +0.024 C 
ATOM      5  C   UNL     1      -0.290  -1.304   1.990  0.00  0.00    +0.074 C 
ATOM      6  N   UNL     1       0.675  -0.502   1.210  0.00  0.00    -0.286 N 
ATOM      7  C   UNL     1      -0.962  -0.442   3.061  0.00  0.00    +0.028 C 
ENDROOT
BRANCH   6   8
ATOM      8  C   UNL     1       1.958  -0.265   1.549  0.00  0.00    +0.286 C 
ATOM      9  S   UNL     1       2.597  -0.919   2.997  0.00  0.00    +0.011 S 
ATOM     10  O   UNL     1       2.739   0.487   0.748  0.00  0.00    -0.262 OA
ENDBRANCH   6   8
TORSDOF 1
