REMARK  Name = ZINC63303034
REMARK  11 active torsions:
REMARK  status: ('A' for Active; 'I' for Inactive)
REMARK    1  A    between atoms: C_1  and  O_2
REMARK    2  A    between atoms: O_2  and  C_3
REMARK    3  A    between atoms: C_6  and  C_9
REMARK    4  A    between atoms: C_13  and  C_35
REMARK    5  A    between atoms: N_21  and  C_22
REMARK    6  A    between atoms: C_22  and  C_23
REMARK    7  A    between atoms: C_23  and  C_24
REMARK    8  A    between atoms: C_27  and  O_33
REMARK    9  A    between atoms: O_33  and  C_34
REMARK   10  A    between atoms: C_39  and  O_41
REMARK   11  A    between atoms: O_41  and  C_42
REMARK                            x       y       z     vdW  Elec       q    Type
REMARK                         _______ _______ _______ _____ _____    ______ ____
ROOT
ATOM      1  C   UNL     1       2.445  -2.579  -4.156  0.00  0.00    +0.114 C 
ATOM      2  C   UNL     1       1.458  -3.155  -5.193  0.00  0.00    +0.077 C 
ATOM      3  C   UNL     1       0.053  -2.571  -4.916  0.00  0.00    +0.136 C 
ATOM      4  N   UNL     1      -0.508  -3.446  -3.879  0.00  0.00    -0.305 N 
ATOM      5  N   UNL     1       0.115  -4.499  -3.751  0.00  0.00    -0.203 NA
ATOM      6  C   UNL     1       1.273  -4.614  -4.671  0.00  0.00    +0.218 C 
ATOM      7  C   UNL     1       2.536  -4.883  -3.886  0.00  0.00    +0.243 C 
ATOM      8  O   UNL     1       2.919  -5.983  -3.546  0.00  0.00    -0.273 OA
ATOM      9  N   UNL     1       3.176  -3.731  -3.617  0.00  0.00    -0.292 N 
ATOM     10  H   UNL     1      -1.288  -3.218  -3.350  0.00  0.00    +0.183 HD
ENDROOT
BRANCH   1  14
ATOM     11  C   UNL     1       0.311  -0.593  -1.031  0.00  0.00    +0.120 A 
ATOM     12  C   UNL     1       0.069  -1.933  -1.295  0.00  0.00    +0.046 A 
ATOM     13  C   UNL     1       0.760  -2.573  -2.306  0.00  0.00    +0.009 A 
ATOM     14  C   UNL     1       1.692  -1.879  -3.054  0.00  0.00    -0.026 A 
ATOM     15  C   UNL     1       1.936  -0.543  -2.793  0.00  0.00    +0.009 A 
ATOM     16  C   UNL     1       1.243   0.103  -1.787  0.00  0.00    +0.046 A 
BRANCH  11  18
ATOM     17  C   UNL     1      -1.313  -0.740   0.699  0.00  0.00    +0.277 C 
ATOM     18  O   UNL     1      -0.368   0.038  -0.038  0.00  0.00    -0.495 OA
ENDBRANCH  11  18
ENDBRANCH   1  14
BRANCH   3  19
ATOM     19  C   UNL     1       0.161  -1.155  -4.412  0.00  0.00    -0.020 A 
ATOM     20  C   UNL     1       1.146  -0.319  -4.905  0.00  0.00    +0.006 A 
ATOM     21  C   UNL     1       1.248   0.980  -4.445  0.00  0.00    +0.004 A 
ATOM     22  C   UNL     1       0.366   1.447  -3.489  0.00  0.00    +0.045 A 
ATOM     23  C   UNL     1      -0.623   0.610  -2.992  0.00  0.00    +0.120 A 
ATOM     24  C   UNL     1      -0.727  -0.692  -3.460  0.00  0.00    +0.051 A 
BRANCH  23  25
ATOM     25  O   UNL     1      -1.491   1.067  -2.052  0.00  0.00    -0.495 OA
ATOM     26  C   UNL     1      -1.329   2.419  -1.621  0.00  0.00    +0.277 C 
ENDBRANCH  23  25
ENDBRANCH   3  19
BRANCH   9  27
ATOM     27  C   UNL     1       4.440  -3.638  -2.882  0.00  0.00    +0.113 C 
BRANCH  27  28
ATOM     28  C   UNL     1       4.150  -3.488  -1.387  0.00  0.00    +0.052 C 
BRANCH  28  29
ATOM     29  C   UNL     1       5.450  -3.392  -0.631  0.00  0.00    -0.040 C 
ATOM     30  C   UNL     1       6.086  -2.261  -0.247  0.00  0.00    +0.002 A 
ATOM     31  C   UNL     1       5.772  -0.838  -0.413  0.00  0.00    +0.055 A 
ATOM     32  C   UNL     1       6.617   0.094   0.089  0.00  0.00    +0.121 A 
ATOM     33  C   UNL     1       7.797  -0.252   0.770  0.00  0.00    +0.047 A 
ATOM     34  C   UNL     1       8.171  -1.534   0.972  0.00  0.00    +0.029 A 
ATOM     35  C   UNL     1       7.330  -2.625   0.470  0.00  0.00    +0.043 A 
ATOM     36  N   UNL     1       7.457  -3.927   0.528  0.00  0.00    -0.380 N 
ATOM     37  C   UNL     1       6.305  -4.540  -0.141  0.00  0.00    +0.144 C 
ATOM     38  H   UNL     1       8.190  -4.406   0.947  0.00  0.00    +0.160 HD
BRANCH  32  39
ATOM     39  O   UNL     1       6.314   1.409  -0.072  0.00  0.00    -0.495 OA
ATOM     40  C   UNL     1       7.233   2.358   0.473  0.00  0.00    +0.277 C 
ENDBRANCH  32  39
ENDBRANCH  28  29
ENDBRANCH  27  28
ENDBRANCH   9  27
TORSDOF 8
