REMARK  Name = ZINC09530037
REMARK  12 active torsions:
REMARK  status: ('A' for Active; 'I' for Inactive)
REMARK    1  A    between atoms: C_1  and  C_2
REMARK    2  A    between atoms: C_2  and  O_3
REMARK    3  A    between atoms: O_3  and  C_4
REMARK    4  A    between atoms: C_7  and  C_13
REMARK    5  A    between atoms: C_9  and  O_10
REMARK    6  A    between atoms: O_10  and  C_11
REMARK    7  A    between atoms: C_11  and  C_12
REMARK    8  A    between atoms: C_13  and  C_14
REMARK    9  A    between atoms: C_14  and  N_15
REMARK   10  A    between atoms: C_16  and  C_18
REMARK   11  A    between atoms: C_18  and  C_19
REMARK   12  A    between atoms: C_22  and  N_25
REMARK                            x       y       z     vdW  Elec       q    Type
REMARK                         _______ _______ _______ _____ _____    ______ ____
ROOT
ATOM      1  C   UNL     1      -2.462 -10.237   2.581  0.00  0.00    +0.130 C 
ENDROOT
BRANCH   1   2
ATOM      2  C   UNL     1      -2.513 -10.743   4.000  0.00  0.00    -0.038 A 
ATOM      3  C   UNL     1      -1.344 -11.107   4.644  0.00  0.00    +0.006 A 
ATOM      4  C   UNL     1      -1.383 -11.571   5.942  0.00  0.00    +0.028 A 
ATOM      5  C   UNL     1      -2.607 -11.673   6.607  0.00  0.00    +0.067 A 
ATOM      6  C   UNL     1      -3.783 -11.304   5.951  0.00  0.00    +0.028 A 
ATOM      7  C   UNL     1      -3.728 -10.836   4.654  0.00  0.00    +0.006 A 
BRANCH   5   8
ATOM      8  N   UNL     1      -2.653 -12.133   7.896  0.00  0.00    -0.226 NA
ATOM      9  C   UNL     1      -3.390 -11.512   8.789  0.00  0.00    +0.155 C 
ATOM     10  N   UNL     1      -4.191 -10.378   8.600  0.00  0.00    -0.318 N 
ATOM     11  C   UNL     1      -4.678  -9.784   9.807  0.00  0.00    +0.108 C 
ATOM     12  C   UNL     1      -5.759  -8.718   9.852  0.00  0.00    +0.189 C 
ATOM     13  S   UNL     1      -6.166  -8.743  11.659  0.00  0.00    -0.028 S 
ATOM     14  O   UNL     1      -7.545  -9.046  11.819  0.00  0.00    -0.174 OA
ATOM     15  O   UNL     1      -5.628  -7.579  12.271  0.00  0.00    -0.174 OA
ATOM     16  C   UNL     1      -5.160 -10.216  12.166  0.00  0.00    +0.182 C 
ATOM     17  C   UNL     1      -5.112 -10.931  10.797  0.00  0.00    +0.097 C 
ATOM     18  S   UNL     1      -3.603 -11.933  10.525  0.00  0.00    -0.084 S 
ATOM     19  H   UNL     1      -4.398 -10.024   7.721  0.00  0.00    +0.148 HD
ENDBRANCH   5   8
ENDBRANCH   1   2
BRANCH   1  21
ATOM     20  N   UNL     1      -2.217  -8.065   1.423  0.00  0.00    -0.315 N 
ATOM     21  C   UNL     1      -2.289  -8.740   2.587  0.00  0.00    +0.217 C 
ATOM     22  O   UNL     1      -2.214  -8.143   3.640  0.00  0.00    -0.275 OA
ATOM     23  H   UNL     1      -2.276  -8.543   0.581  0.00  0.00    +0.149 HD
BRANCH  20  24
ATOM     24  C   UNL     1      -2.048  -6.610   1.429  0.00  0.00    +0.109 C 
BRANCH  24  25
ATOM     25  C   UNL     1      -1.996  -6.097  -0.011  0.00  0.00    +0.054 C 
BRANCH  25  29
ATOM     26  C   UNL     1      -1.498  -1.849   0.006  0.00  0.00    +0.162 A 
ATOM     27  C   UNL     1      -0.389  -2.680  -0.003  0.00  0.00    +0.050 A 
ATOM     28  C   UNL     1      -0.553  -4.052  -0.008  0.00  0.00    +0.007 A 
ATOM     29  C   UNL     1      -1.823  -4.600  -0.005  0.00  0.00    -0.042 A 
ATOM     30  C   UNL     1      -2.934  -3.777   0.004  0.00  0.00    +0.053 A 
ATOM     31  C   UNL     1      -2.776  -2.400   0.016  0.00  0.00    +0.162 A 
BRANCH  26  32
ATOM     32  O   UNL     1      -1.339  -0.499   0.012  0.00  0.00    -0.489 OA
BRANCH  32  34
ATOM     33  C   UNL     1      -0.019   1.526   0.010  0.00  0.00    +0.048 C 
ATOM     34  C   UNL     1       0.002  -0.004   0.002  0.00  0.00    +0.226 C 
ENDBRANCH  32  34
ENDBRANCH  26  32
BRANCH  31  35
ATOM     35  O   UNL     1      -3.868  -1.589   0.030  0.00  0.00    -0.489 OA
BRANCH  35  36
ATOM     36  C   UNL     1      -5.148  -2.225   0.039  0.00  0.00    +0.226 C 
ATOM     37  C   UNL     1      -6.246  -1.159   0.055  0.00  0.00    +0.048 C 
ENDBRANCH  35  36
ENDBRANCH  31  35
ENDBRANCH  25  29
ENDBRANCH  24  25
ENDBRANCH  20  24
ENDBRANCH   1  21
TORSDOF 10
