REMARK  Name = ZINC08792300
REMARK  11 active torsions:
REMARK  status: ('A' for Active; 'I' for Inactive)
REMARK    1  A    between atoms: C_1  and  C_2
REMARK    2  A    between atoms: C_2  and  C_4
REMARK    3  A    between atoms: C_2  and  O_14
REMARK    4  A    between atoms: N_6  and  C_7
REMARK    5  A    between atoms: C_7  and  C_8
REMARK    6  A    between atoms: C_8  and  C_9
REMARK    7  A    between atoms: C_9  and  O_10
REMARK    8  A    between atoms: O_10  and  C_11
REMARK    9  A    between atoms: C_11  and  C_12
REMARK   10  A    between atoms: C_11  and  C_13
REMARK   11  A    between atoms: O_14  and  C_15
REMARK                            x       y       z     vdW  Elec       q    Type
REMARK                         _______ _______ _______ _____ _____    ______ ____
ROOT
ATOM      1  C   UNL     1      -1.966  -0.607  -1.189  0.00  0.00    +0.122 A 
ATOM      2  C   UNL     1      -1.267  -0.348  -2.363  0.00  0.00    +0.048 A 
ATOM      3  C   UNL     1      -1.893  -0.455  -3.586  0.00  0.00    +0.030 A 
ATOM      4  C   UNL     1      -3.230  -0.822  -3.660  0.00  0.00    +0.058 A 
ATOM      5  C   UNL     1      -3.941  -1.085  -2.472  0.00  0.00    +0.012 A 
ATOM      6  C   UNL     1      -3.296  -0.980  -1.242  0.00  0.00    +0.056 A 
ATOM      7  C   UNL     1      -5.310  -1.444  -2.872  0.00  0.00    +0.012 A 
ATOM      8  C   UNL     1      -6.508  -1.811  -2.267  0.00  0.00    +0.028 A 
ATOM      9  C   UNL     1      -7.604  -2.073  -3.074  0.00  0.00    +0.084 A 
ATOM     10  N   UNL     1      -7.558  -1.990  -4.394  0.00  0.00    -0.359 N 
ATOM     11  C   UNL     1      -6.441  -1.645  -5.018  0.00  0.00    +0.072 A 
ATOM     12  C   UNL     1      -5.310  -1.368  -4.263  0.00  0.00    +0.082 A 
ATOM     13  N   UNL     1      -4.089  -1.001  -4.745  0.00  0.00    -0.274 N 
ATOM     14  C   UNL     1      -3.924  -0.879  -6.082  0.00  0.00    +0.264 A 
ATOM     15  O   UNL     1      -2.843  -0.548  -6.531  0.00  0.00    -0.267 OA
ATOM     16  C   UNL     1      -5.048  -1.147  -6.997  0.00  0.00    +0.049 A 
ATOM     17  C   UNL     1      -6.308  -1.531  -6.483  0.00  0.00    +0.013 A 
ATOM     18  C   UNL     1      -7.365  -1.786  -7.344  0.00  0.00    +0.011 A 
ATOM     19  C   UNL     1      -7.181  -1.663  -8.708  0.00  0.00    +0.001 A 
ATOM     20  C   UNL     1      -5.948  -1.287  -9.218  0.00  0.00    +0.001 A 
ATOM     21  C   UNL     1      -4.886  -1.027  -8.377  0.00  0.00    +0.014 A 
ATOM     22  H   UNL     1      -8.354  -2.185  -4.913  0.00  0.00    +0.165 HD
ENDROOT
BRANCH   1  23
ATOM     23  O   UNL     1      -1.339  -0.499   0.012  0.00  0.00    -0.480 OA
BRANCH  23  25
ATOM     24  C   UNL     1       0.290   1.280  -0.135  0.00  0.00    +0.062 C 
ATOM     25  C   UNL     1       0.064  -0.228  -0.010  0.00  0.00    +0.255 C 
BRANCH  25  26
ATOM     26  C   UNL     1       0.693  -0.726   1.265  0.00  0.00    +0.254 C 
ATOM     27  O   UNL     1      -0.005  -1.179   2.148  0.00  0.00    -0.272 OA
ATOM     28  N   UNL     1       2.030  -0.670   1.425  0.00  0.00    -0.312 N 
ATOM     29  H   UNL     1       2.588  -0.308   0.718  0.00  0.00    +0.149 HD
BRANCH  28  30
ATOM     30  C   UNL     1       2.641  -1.155   2.665  0.00  0.00    +0.106 C 
BRANCH  30  31
ATOM     31  C   UNL     1       4.159  -0.978   2.589  0.00  0.00    +0.047 C 
BRANCH  31  32
ATOM     32  C   UNL     1       4.797  -1.484   3.884  0.00  0.00    +0.161 C 
BRANCH  32  33
ATOM     33  O   UNL     1       6.215  -1.319   3.813  0.00  0.00    -0.377 OA
BRANCH  33  34
ATOM     34  C   UNL     1       6.911  -1.763   4.979  0.00  0.00    +0.112 C 
ATOM     35  C   UNL     1       8.307  -2.249   4.585  0.00  0.00    +0.037 C 
ATOM     36  C   UNL     1       7.035  -0.605   5.971  0.00  0.00    +0.037 C 
ENDBRANCH  33  34
ENDBRANCH  32  33
ENDBRANCH  31  32
ENDBRANCH  30  31
ENDBRANCH  28  30
ENDBRANCH  25  26
ENDBRANCH  23  25
ENDBRANCH   1  23
TORSDOF 8
