REMARK  Name = ZINC59250781
REMARK  5 active torsions:
REMARK  status: ('A' for Active; 'I' for Inactive)
REMARK    1  A    between atoms: C_1  and  C_2
REMARK    2  A    between atoms: C_2  and  C_4
REMARK    3  A    between atoms: C_2  and  N_14
REMARK    4  A    between atoms: C_15  and  C_17
REMARK    5  A    between atoms: C_20  and  C_25
REMARK                            x       y       z     vdW  Elec       q    Type
REMARK                         _______ _______ _______ _____ _____    ______ ____
ROOT
ATOM      1  N   UNL     1      -1.365  -0.527   0.010  0.00  0.00    -0.305 N 
ATOM      2  C   UNL     1      -2.051  -0.643  -1.145  0.00  0.00    +0.250 C 
ATOM      3  O   UNL     1      -1.563  -0.242  -2.185  0.00  0.00    -0.270 OA
ATOM      4  H   UNL     1      -1.782  -0.777   0.849  0.00  0.00    +0.150 HD
ENDROOT
BRANCH   2   5
ATOM      5  C   UNL     1      -3.387  -1.253  -1.147  0.00  0.00    +0.101 A 
ATOM      6  C   UNL     1      -4.054  -1.489  -2.351  0.00  0.00    +0.020 A 
ATOM      7  C   UNL     1      -5.317  -2.067  -2.323  0.00  0.00    +0.027 A 
ATOM      8  C   UNL     1      -5.895  -2.401  -1.112  0.00  0.00    +0.049 A 
ATOM      9  N   UNL     1      -5.240  -2.169   0.062  0.00  0.00    -0.321 N 
ATOM     10  H   UNL     1      -5.663  -2.410   0.901  0.00  0.00    +0.169 HD
ATOM     11  C   UNL     1      -4.013  -1.615   0.072  0.00  0.00    +0.261 A 
ATOM     12  O   UNL     1      -3.441  -1.421   1.131  0.00  0.00    -0.267 OA
BRANCH   8  13
ATOM     13  C   UNL     1      -7.237  -3.015  -1.090  0.00  0.00    -0.002 A 
ATOM     14  C   UNL     1      -7.915  -3.263  -2.286  0.00  0.00    +0.010 A 
ATOM     15  C   UNL     1      -9.169  -3.837  -2.257  0.00  0.00    +0.001 A 
ATOM     16  C   UNL     1      -9.755  -4.168  -1.048  0.00  0.00    +0.000 A 
ATOM     17  C   UNL     1      -9.089  -3.925   0.141  0.00  0.00    +0.001 A 
ATOM     18  C   UNL     1      -7.832  -3.357   0.127  0.00  0.00    +0.010 A 
ENDBRANCH   8  13
ENDBRANCH   2   5
BRANCH   1  20
ATOM     19  C   UNL     1      -0.008   1.508   0.025  0.00  0.00    +0.033 C 
ATOM     20  C   UNL     1       0.010  -0.022  -0.003  0.00  0.00    +0.100 C 
BRANCH  20  21
ATOM     21  C   UNL     1       0.745  -0.538   1.208  0.00  0.00    -0.027 A 
ATOM     22  C   UNL     1       0.087  -0.603   2.434  0.00  0.00    +0.006 A 
ATOM     23  C   UNL     1       0.722  -1.063   3.547  0.00  0.00    +0.009 A 
ATOM     24  C   UNL     1       2.062  -1.480   3.460  0.00  0.00    -0.018 A 
ATOM     25  C   UNL     1       2.750  -1.962   4.587  0.00  0.00    +0.008 A 
ATOM     26  C   UNL     1       4.047  -2.357   4.465  0.00  0.00    +0.001 A 
ATOM     27  C   UNL     1       4.705  -2.292   3.239  0.00  0.00    +0.001 A 
ATOM     28  C   UNL     1       4.070  -1.831   2.126  0.00  0.00    +0.008 A 
ATOM     29  C   UNL     1       2.731  -1.414   2.213  0.00  0.00    -0.018 A 
ATOM     30  C   UNL     1       2.040  -0.938   1.085  0.00  0.00    +0.014 A 
ENDBRANCH  20  21
ENDBRANCH   1  20
TORSDOF 4
