REMARK  Name = ZINC06077012
REMARK  8 active torsions:
REMARK  status: ('A' for Active; 'I' for Inactive)
REMARK    1  A    between atoms: C_1  and  C_2
REMARK    2  A    between atoms: C_2  and  C_3
REMARK    3  A    between atoms: C_2  and  C_4
REMARK    4  A    between atoms: C_9  and  S_27
REMARK    5  A    between atoms: C_17  and  S_22
REMARK    6  A    between atoms: S_22  and  N_25
REMARK    7  A    between atoms: S_27  and  C_28
REMARK    8  A    between atoms: C_33  and  N_34
REMARK                            x       y       z     vdW  Elec       q    Type
REMARK                         _______ _______ _______ _____ _____    ______ ____
ROOT
ATOM      1  C   UNL     1      -0.729   1.579   1.267  0.00  0.00    +0.077 C 
ATOM      2  C   UNL     1      -2.155   1.050   1.281  0.00  0.00    +0.019 C 
ATOM      3  C   UNL     1      -2.868   1.443   2.593  0.00  0.00    +0.022 C 
ATOM      4  C   UNL     1      -3.997   0.399   2.732  0.00  0.00    +0.070 C 
ATOM      5  C   UNL     1      -3.564  -0.829   1.910  0.00  0.00    +0.101 C 
ATOM      6  C   UNL     1      -2.178  -0.489   1.310  0.00  0.00    +0.044 C 
ATOM      7  C   UNL     1      -1.129  -1.047   2.235  0.00  0.00    -0.020 A 
ATOM      8  C   UNL     1      -1.193  -2.395   2.561  0.00  0.00    +0.034 A 
ATOM      9  C   UNL     1      -0.259  -2.954   3.409  0.00  0.00    +0.105 A 
ATOM     10  C   UNL     1       0.751  -2.175   3.943  0.00  0.00    +0.030 A 
ATOM     11  C   UNL     1       0.825  -0.834   3.624  0.00  0.00    +0.025 A 
ATOM     12  C   UNL     1      -0.116  -0.271   2.768  0.00  0.00    +0.031 A 
ATOM     13  N   UNL     1      -0.022   1.091   2.457  0.00  0.00    -0.340 N 
ATOM     14 CL   UNL     1      -3.437  -2.275   2.979  0.00  0.00    -0.120 Cl
ATOM     15  H   UNL     1       0.495   1.694   3.013  0.00  0.00    +0.146 HD
ENDROOT
BRANCH   1  17
ATOM     16  C   UNL     1       1.423   1.615  -0.003  0.00  0.00    +0.009 C 
ATOM     17  C   UNL     1      -0.013   1.086   0.008  0.00  0.00    +0.003 C 
ATOM     18  C   UNL     1      -0.753   1.593  -1.232  0.00  0.00    +0.009 C 
ENDBRANCH   1  17
BRANCH   9  19
ATOM     19  S   UNL     1      -0.354  -4.666   3.814  0.00  0.00    +0.056 S 
ATOM     20  O   UNL     1      -1.066  -5.294   2.757  0.00  0.00    -0.153 OA
ATOM     21  O   UNL     1       0.955  -5.067   4.194  0.00  0.00    -0.153 OA
BRANCH  19  22
ATOM     22  N   UNL     1      -1.301  -4.798   5.166  0.00  0.00    -0.204 NA
ATOM     23  H   UNL     1      -1.832  -5.597   5.311  0.00  0.00    +0.144 HD
ATOM     24  H   UNL     1      -1.325  -4.076   5.814  0.00  0.00    +0.144 HD
ENDBRANCH  19  22
ENDBRANCH   9  19
BRANCH   4  25
ATOM     25  S   UNL     1      -4.208  -0.063   4.473  0.00  0.00    -0.118 S 
BRANCH  25  26
ATOM     26  C   UNL     1      -5.585  -1.161   4.460  0.00  0.00    +0.038 A 
ATOM     27  C   UNL     1      -6.220  -1.467   3.262  0.00  0.00    +0.017 A 
ATOM     28  C   UNL     1      -7.299  -2.329   3.255  0.00  0.00    +0.001 A 
ATOM     29  C   UNL     1      -7.749  -2.886   4.438  0.00  0.00    +0.002 A 
ATOM     30  C   UNL     1      -7.120  -2.584   5.632  0.00  0.00    +0.034 A 
ATOM     31  C   UNL     1      -6.036  -1.728   5.646  0.00  0.00    +0.140 A 
BRANCH  31  32
ATOM     32  N   UNL     1      -5.359  -1.410   6.923  0.00  0.00    +0.058 N 
ATOM     33  O   UNL     1      -5.755  -1.908   7.962  0.00  0.00    -0.126 OA
ATOM     34  O   UNL     1      -4.407  -0.651   6.935  0.00  0.00    -0.126 OA
ENDBRANCH  31  32
ENDBRANCH  25  26
ENDBRANCH   4  25
TORSDOF 6
