REMARK  Name = ZINC62671334
REMARK  10 active torsions:
REMARK  status: ('A' for Active; 'I' for Inactive)
REMARK    1  A    between atoms: C_1  and  C_2
REMARK    2  A    between atoms: C_4  and  C_34
REMARK    3  A    between atoms: C_4  and  C_35
REMARK    4  A    between atoms: N_11  and  C_12
REMARK    5  A    between atoms: C_14  and  C_24
REMARK    6  A    between atoms: P_16  and  N_18
REMARK    7  A    between atoms: C_27  and  O_32
REMARK    8  A    between atoms: C_28  and  O_30
REMARK    9  A    between atoms: O_30  and  C_31
REMARK   10  A    between atoms: O_32  and  C_33
REMARK                            x       y       z     vdW  Elec       q    Type
REMARK                         _______ _______ _______ _____ _____    ______ ____
ROOT
ATOM      1  C   UNL     1      -0.048   1.588  -0.201  0.00  0.00    +0.027 C 
ATOM      2  C   UNL     1      -0.062   0.065  -0.349  0.00  0.00    +0.062 C 
ATOM      3  C   UNL     1       0.744  -0.372  -1.593  0.00  0.00    +0.009 C 
ATOM      4  C   UNL     1       2.126  -0.627  -1.027  0.00  0.00    -0.020 A 
ATOM      5  C   UNL     1       3.357  -0.761  -1.651  0.00  0.00    +0.021 A 
ATOM      6  C   UNL     1       4.471  -0.983  -0.892  0.00  0.00    +0.058 A 
ATOM      7  C   UNL     1       4.391  -1.077   0.506  0.00  0.00    +0.082 A 
ATOM      8  C   UNL     1       3.148  -0.946   1.119  0.00  0.00    +0.050 A 
ATOM      9  C   UNL     1       2.016  -0.723   0.350  0.00  0.00    +0.019 A 
ATOM     10  N   UNL     1       0.677  -0.577   0.760  0.00  0.00    -0.393 NA
ATOM     11  C   UNL     1       0.096  -1.895   1.047  0.00  0.00    +0.107 C 
ATOM     12  N   UNL     1       5.533  -1.285   1.214  0.00  0.00    -0.212 NA
ATOM     13  C   UNL     1       6.745  -1.199   0.788  0.00  0.00    +0.227 C 
ATOM     14  O   UNL     1       7.166  -0.786  -0.426  0.00  0.00    -0.433 OA
ATOM     15  P   UNL     1       6.131  -1.176  -1.615  0.00  0.00    +0.198 P 
ATOM     16  S   UNL     1       6.344  -0.020  -3.061  0.00  0.00    -0.003 S 
ATOM     17  C   UNL     1       0.782   0.747  -2.635  0.00  0.00    +0.018 C 
ATOM     18  C   UNL     1       0.160  -1.653  -2.194  0.00  0.00    +0.018 C 
ATOM     19  H   UNL     1       0.630   0.004   1.583  0.00  0.00    +0.126 HD
ENDROOT
BRANCH  15  20
ATOM     20  N   UNL     1       6.367  -2.729  -2.088  0.00  0.00    -0.239 NA
ATOM     21  C   UNL     1       5.236  -3.661  -2.220  0.00  0.00    +0.120 C 
ATOM     22  C   UNL     1       5.319  -4.329  -3.598  0.00  0.00    +0.175 C 
ATOM     23  O   UNL     1       6.624  -4.886  -3.772  0.00  0.00    -0.377 OA
ATOM     24  C   UNL     1       7.679  -3.921  -3.760  0.00  0.00    +0.175 C 
ATOM     25  C   UNL     1       7.716  -3.230  -2.397  0.00  0.00    +0.120 C 
ENDBRANCH  15  20
BRANCH  13  26
ATOM     26  C   UNL     1       7.799  -1.597   1.740  0.00  0.00    +0.040 A 
ATOM     27  C   UNL     1       9.144  -1.529   1.365  0.00  0.00    +0.017 A 
ATOM     28  C   UNL     1      10.127  -1.902   2.257  0.00  0.00    +0.050 A 
ATOM     29  C   UNL     1       9.785  -2.344   3.527  0.00  0.00    +0.162 A 
ATOM     30  C   UNL     1       8.446  -2.415   3.907  0.00  0.00    +0.162 A 
ATOM     31  C   UNL     1       7.456  -2.037   3.022  0.00  0.00    +0.062 A 
BRANCH  30  32
ATOM     32  O   UNL     1       8.115  -2.849   5.153  0.00  0.00    -0.491 OA
ATOM     33  C   UNL     1       6.724  -2.896   5.475  0.00  0.00    +0.277 C 
ENDBRANCH  30  32
BRANCH  29  34
ATOM     34  O   UNL     1      10.758  -2.711   4.402  0.00  0.00    -0.491 OA
ATOM     35  C   UNL     1      12.110  -2.615   3.946  0.00  0.00    +0.277 C 
ENDBRANCH  29  34
ENDBRANCH  13  26
TORSDOF 4
