REMARK  Name = ZINC24714004
REMARK  8 active torsions:
REMARK  status: ('A' for Active; 'I' for Inactive)
REMARK    1  A    between atoms: C_1  and  C_2
REMARK    2  A    between atoms: C_2  and  C_27
REMARK    3  A    between atoms: C_3  and  C_4
REMARK    4  A    between atoms: C_6  and  C_11
REMARK    5  A    between atoms: C_8  and  C_9
REMARK    6  A    between atoms: C_8  and  C_10
REMARK    7  A    between atoms: N_13  and  N_14
REMARK    8  A    between atoms: C_15  and  C_17
REMARK                            x       y       z     vdW  Elec       q    Type
REMARK                         _______ _______ _______ _____ _____    ______ ____
ROOT
ATOM      1  N   UNL     1       2.738   1.632  -0.255  0.00  0.00    -0.234 N 
ATOM      2  C   UNL     1       3.178   2.648  -1.023  0.00  0.00    +0.235 C 
ATOM      3  O   UNL     1       4.028   2.448  -1.865  0.00  0.00    -0.274 OA
ATOM      4  H   UNL     1       1.968   1.814   0.509  0.00  0.00    +0.173 HD
ENDROOT
BRANCH   2   5
ATOM      5  C   UNL     1       2.611   4.032  -0.840  0.00  0.00    +0.049 C 
ATOM      6  C   UNL     1       1.102   4.003  -1.094  0.00  0.00    +0.019 C 
ATOM      7  C   UNL     1       0.526   5.407  -0.908  0.00  0.00    -0.009 C 
ATOM      8  C   UNL     1       1.192   6.367  -1.897  0.00  0.00    +0.007 C 
ATOM      9  C   UNL     1       2.700   6.396  -1.642  0.00  0.00    -0.009 C 
ATOM     10  C   UNL     1       3.276   4.991  -1.828  0.00  0.00    +0.019 C 
ATOM     11  C   UNL     1       2.966   6.872  -0.212  0.00  0.00    +0.007 C 
ATOM     12  C   UNL     1       2.301   5.912   0.776  0.00  0.00    -0.009 C 
ATOM     13  C   UNL     1       0.793   5.883   0.522  0.00  0.00    +0.007 C 
ATOM     14  C   UNL     1       2.877   4.507   0.590  0.00  0.00    +0.019 C 
ENDBRANCH   2   5
BRANCH   1  17
ATOM     15  C   UNL     1       2.822  -0.672   0.339  0.00  0.00    +0.233 C 
ATOM     16  O   UNL     1       1.972  -0.472   1.181  0.00  0.00    -0.274 OA
ATOM     17  N   UNL     1       3.262   0.344  -0.429  0.00  0.00    -0.234 N 
ATOM     18  H   UNL     1       4.032   0.163  -1.194  0.00  0.00    +0.173 HD
BRANCH  15  20
ATOM     19  C   UNL     1       2.417  -3.160  -0.282  0.00  0.00    +0.030 C 
ATOM     20  C   UNL     1       3.385  -2.057   0.151  0.00  0.00    +0.090 C 
ATOM     21  C   UNL     1       3.443  -2.609  -1.275  0.00  0.00    -0.016 C 
ATOM     22  C   UNL     1       2.925  -1.712  -2.401  0.00  0.00    +0.012 C 
ATOM     23  C   UNL     1       4.628  -3.506  -1.638  0.00  0.00    +0.012 C 
BRANCH  19  26
ATOM     24  C   UNL     1       0.481  -5.159  -0.723  0.00  0.00    +0.038 C 
ATOM     25  C   UNL     1       0.074  -3.708  -0.694  0.00  0.00    -0.079 C 
ATOM     26  C   UNL     1       0.974  -2.779  -0.489  0.00  0.00    -0.023 C 
ATOM     27  C   UNL     1      -1.369  -3.326  -0.900  0.00  0.00    +0.038 C 
ENDBRANCH  19  26
ENDBRANCH  15  20
ENDBRANCH   1  17
TORSDOF 4
