REMARK  Name = ZINC39442636
REMARK  8 active torsions:
REMARK  status: ('A' for Active; 'I' for Inactive)
REMARK    1  A    between atoms: C_1  and  C_2
REMARK    2  A    between atoms: C_3  and  C_17
REMARK    3  A    between atoms: C_5  and  C_7
REMARK    4  A    between atoms: C_17  and  N_18
REMARK    5  A    between atoms: C_24  and  C_26
REMARK    6  A    between atoms: C_26  and  C_27
REMARK    7  A    between atoms: C_27  and  O_29
REMARK    8  A    between atoms: O_29  and  C_30
REMARK                            x       y       z     vdW  Elec       q    Type
REMARK                         _______ _______ _______ _____ _____    ______ ____
ROOT
ATOM      1  C   UNL     1       0.232   1.043  -0.395  0.00  0.00    +0.088 C 
ATOM      2  C   UNL     1       0.077  -0.453  -0.482  0.00  0.00    +0.127 A 
ATOM      3  C   UNL     1      -1.063  -1.147  -0.321  0.00  0.00    +0.097 A 
ATOM      4  N   UNL     1      -0.777  -2.450  -0.478  0.00  0.00    -0.212 NA
ATOM      5  C   UNL     1       0.505  -2.570  -0.730  0.00  0.00    +0.229 A 
ATOM      6  O   UNL     1       1.056  -1.344  -0.743  0.00  0.00    -0.440 OA
ENDROOT
BRANCH   5   7
ATOM      7  C   UNL     1       1.222  -3.840  -0.965  0.00  0.00    +0.059 A 
ATOM      8  C   UNL     1       2.596  -3.832  -1.218  0.00  0.00    +0.064 A 
ATOM      9  C   UNL     1       3.264  -5.022  -1.437  0.00  0.00    +0.167 A 
ATOM     10  C   UNL     1       2.566  -6.229  -1.405  0.00  0.00    +0.168 A 
ATOM     11  C   UNL     1       1.202  -6.237  -1.153  0.00  0.00    +0.070 A 
ATOM     12  C   UNL     1       0.530  -5.053  -0.928  0.00  0.00    +0.057 A 
ATOM     13 CL   UNL     1      -1.176  -5.069  -0.607  0.00  0.00    -0.083 Cl
ATOM     14  O   UNL     1       3.444  -7.246  -1.648  0.00  0.00    -0.453 OA
ATOM     15  C   UNL     1       4.602  -6.622  -2.234  0.00  0.00    +0.466 C 
ATOM     16  O   UNL     1       4.577  -5.285  -1.701  0.00  0.00    -0.453 OA
ENDBRANCH   5   7
BRANCH   3  17
ATOM     17  C   UNL     1      -2.420  -0.567  -0.018  0.00  0.00    +0.144 C 
BRANCH  17  18
ATOM     18  N   UNL     1      -3.179  -0.416  -1.267  0.00  0.00    -0.284 NA
ATOM     19  C   UNL     1      -2.549   0.579  -2.150  0.00  0.00    +0.104 C 
ATOM     20  C   UNL     1      -3.183   0.476  -3.538  0.00  0.00    +0.119 C 
ATOM     21  N   UNL     1      -4.638   0.506  -3.427  0.00  0.00    -0.313 N 
ATOM     22  C   UNL     1      -5.285   0.257  -2.284  0.00  0.00    +0.231 C 
ATOM     23  O   UNL     1      -6.498   0.273  -2.287  0.00  0.00    -0.274 OA
ATOM     24  C   UNL     1      -4.573  -0.041  -0.995  0.00  0.00    +0.154 C 
ATOM     25  H   UNL     1      -5.159   0.716  -4.218  0.00  0.00    +0.149 HD
BRANCH  24  26
ATOM     26  C   UNL     1      -5.278  -1.195  -0.280  0.00  0.00    +0.149 C 
BRANCH  26  27
ATOM     27  C   UNL     1      -5.195  -2.438  -1.128  0.00  0.00    +0.309 C 
ATOM     28  O   UNL     1      -4.547  -2.431  -2.148  0.00  0.00    -0.251 OA
BRANCH  27  29
ATOM     29  O   UNL     1      -5.840  -3.553  -0.751  0.00  0.00    -0.468 OA
ATOM     30  C   UNL     1      -5.717  -4.694  -1.603  0.00  0.00    +0.280 C 
ENDBRANCH  27  29
ENDBRANCH  26  27
ENDBRANCH  24  26
ENDBRANCH  17  18
ENDBRANCH   3  17
TORSDOF 6
