REMARK  Name = ZINC16032574
REMARK  7 active torsions:
REMARK  status: ('A' for Active; 'I' for Inactive)
REMARK    1  A    between atoms: C_1  and  C_2
REMARK    2  A    between atoms: C_2  and  O_3
REMARK    3  A    between atoms: O_3  and  C_4
REMARK    4  A    between atoms: C_9  and  C_10
REMARK    5  A    between atoms: N_29  and  C_32
REMARK    6  A    between atoms: C_32  and  C_33
REMARK    7  A    between atoms: C_33  and  C_34
REMARK                            x       y       z     vdW  Elec       q    Type
REMARK                         _______ _______ _______ _____ _____    ______ ____
ROOT
ATOM      1  C   UNL     1      -1.982   2.457   3.520  0.00  0.00    +0.157 C 
ATOM      2  C   UNL     1      -3.197   1.595   3.264  0.00  0.00    +0.046 A 
ATOM      3  C   UNL     1      -4.124   1.314   4.205  0.00  0.00    -0.015 A 
ATOM      4  C   UNL     1      -5.119   0.466   3.580  0.00  0.00    +0.003 A 
ATOM      5  C   UNL     1      -6.291  -0.130   4.056  0.00  0.00    +0.010 A 
ATOM      6  C   UNL     1      -7.008  -0.888   3.164  0.00  0.00    +0.001 A 
ATOM      7  C   UNL     1      -6.601  -1.062   1.852  0.00  0.00    +0.002 A 
ATOM      8  C   UNL     1      -5.445  -0.485   1.354  0.00  0.00    +0.026 A 
ATOM      9  C   UNL     1      -4.696   0.290   2.237  0.00  0.00    +0.047 A 
ATOM     10  N   UNL     1      -3.532   0.986   2.084  0.00  0.00    -0.356 N 
ATOM     11  H   UNL     1      -3.019   1.042   1.262  0.00  0.00    +0.166 HD
ATOM     12  C   UNL     1      -4.085   1.819   5.625  0.00  0.00    +0.069 C 
ATOM     13  C   UNL     1      -2.664   2.306   5.940  0.00  0.00    +0.167 C 
ATOM     14  N   UNL     1      -2.178   3.120   4.827  0.00  0.00    -0.276 N 
ATOM     15  C   UNL     1      -1.909   4.423   4.939  0.00  0.00    +0.234 C 
ATOM     16  O   UNL     1      -1.577   5.020   3.937  0.00  0.00    -0.274 OA
ATOM     17  C   UNL     1      -1.988   5.194   6.216  0.00  0.00    +0.203 C 
ATOM     18  N   UNL     1      -2.365   4.353   7.340  0.00  0.00    -0.291 N 
ATOM     19  C   UNL     1      -2.667   3.061   7.230  0.00  0.00    +0.237 C 
ATOM     20  O   UNL     1      -2.962   2.459   8.240  0.00  0.00    -0.274 OA
ENDROOT
BRANCH   1  26
ATOM     21  C   UNL     1       0.508   2.181   3.427  0.00  0.00    +0.126 A 
ATOM     22  C   UNL     1       1.647   1.389   3.471  0.00  0.00    +0.046 A 
ATOM     23  C   UNL     1       1.530   0.023   3.642  0.00  0.00    +0.004 A 
ATOM     24  C   UNL     1       0.281  -0.555   3.769  0.00  0.00    +0.001 A 
ATOM     25  C   UNL     1      -0.855   0.232   3.727  0.00  0.00    +0.009 A 
ATOM     26  C   UNL     1      -0.744   1.599   3.561  0.00  0.00    +0.020 A 
BRANCH  21  27
ATOM     27  O   UNL     1       0.621   3.524   3.259  0.00  0.00    -0.492 OA
BRANCH  27  29
ATOM     28  C   UNL     1       1.867   5.572   2.953  0.00  0.00    +0.048 C 
ATOM     29  C   UNL     1       1.942   4.055   3.134  0.00  0.00    +0.225 C 
ENDBRANCH  27  29
ENDBRANCH  21  27
ENDBRANCH   1  26
BRANCH  18  30
ATOM     30  C   UNL     1      -2.415   4.962   8.672  0.00  0.00    +0.113 C 
BRANCH  30  31
ATOM     31  C   UNL     1      -1.046   4.832   9.344  0.00  0.00    +0.056 C 
BRANCH  31  32
ATOM     32  C   UNL     1      -1.098   5.459  10.713  0.00  0.00    -0.021 A 
ATOM     33  C   UNL     1      -0.739   6.713  11.032  0.00  0.00    +0.087 A 
ATOM     34  N   UNL     1      -0.924   6.925  12.371  0.00  0.00    -0.360 N 
ATOM     35  H   UNL     1      -0.735   7.755  12.835  0.00  0.00    +0.165 HD
ATOM     36  C   UNL     1      -1.419   5.784  12.962  0.00  0.00    +0.047 A 
ATOM     37  C   UNL     1      -1.555   4.817  11.948  0.00  0.00    +0.003 A 
ATOM     38  C   UNL     1      -2.036   3.544  12.260  0.00  0.00    +0.010 A 
ATOM     39  C   UNL     1      -2.382   3.246  13.548  0.00  0.00    +0.001 A 
ATOM     40  C   UNL     1      -2.255   4.198  14.550  0.00  0.00    +0.002 A 
ATOM     41  C   UNL     1      -1.778   5.459  14.266  0.00  0.00    +0.026 A 
ENDBRANCH  31  32
ENDBRANCH  30  31
ENDBRANCH  18  30
TORSDOF 6
