REMARK  Name = ZINC39884104
REMARK  8 active torsions:
REMARK  status: ('A' for Active; 'I' for Inactive)
REMARK    1  A    between atoms: C_1  and  C_2
REMARK    2  A    between atoms: C_2  and  C_3
REMARK    3  A    between atoms: C_2  and  C_4
REMARK    4  A    between atoms: C_2  and  C_5
REMARK    5  A    between atoms: C_8  and  C_11
REMARK    6  A    between atoms: N_15  and  C_19
REMARK    7  A    between atoms: C_19  and  C_20
REMARK    8  A    between atoms: N_22  and  C_23
REMARK                            x       y       z     vdW  Elec       q    Type
REMARK                         _______ _______ _______ _____ _____    ______ ____
ROOT
ATOM      1  C   UNL     1       2.704  -1.897  -4.742  0.00  0.00    +0.072 C 
ATOM      2  C   UNL     1       3.907  -2.660  -4.321  0.00  0.00    +0.033 A 
ATOM      3  C   UNL     1       5.168  -2.567  -4.783  0.00  0.00    +0.091 A 
ATOM      4  N   UNL     1       6.061  -3.442  -4.208  0.00  0.00    -0.288 N 
ATOM      5  C   UNL     1       5.654  -4.284  -3.241  0.00  0.00    +0.292 A 
ATOM      6  O   UNL     1       6.310  -5.109  -2.629  0.00  0.00    -0.259 OA
ATOM      7  S   UNL     1       4.019  -3.924  -3.079  0.00  0.00    -0.030 S 
ATOM      8  S   UNL     1       5.610  -1.377  -6.021  0.00  0.00    -0.093 S 
ATOM      9  C   UNL     1       4.010  -0.868  -6.727  0.00  0.00    +0.153 C 
ATOM     10  C   UNL     1       2.961  -0.733  -5.619  0.00  0.00    +0.112 C 
ATOM     11  C   UNL     1       3.257   0.600  -5.010  0.00  0.00    +0.245 C 
ATOM     12  O   UNL     1       2.935   1.005  -3.772  0.00  0.00    -0.273 OA
ATOM     13  N   UNL     1       3.894   1.299  -5.924  0.00  0.00    -0.145 NA
ATOM     14  C   UNL     1       4.168   0.629  -7.054  0.00  0.00    +0.253 C 
ATOM     15  O   UNL     1       4.489   1.108  -8.123  0.00  0.00    -0.272 OA
ENDROOT
BRANCH   1  19
ATOM     16  C   UNL     1       0.705  -0.512  -1.230  0.00  0.00    -0.042 A 
ATOM     17  C   UNL     1      -0.023  -0.811  -2.367  0.00  0.00    +0.004 A 
ATOM     18  C   UNL     1       0.624  -1.259  -3.503  0.00  0.00    +0.004 A 
ATOM     19  C   UNL     1       1.999  -1.408  -3.503  0.00  0.00    -0.039 A 
ATOM     20  C   UNL     1       2.726  -1.108  -2.366  0.00  0.00    +0.004 A 
ATOM     21  C   UNL     1       2.079  -0.656  -1.231  0.00  0.00    +0.004 A 
BRANCH  16  23
ATOM     22  C   UNL     1       0.517   1.369   0.375  0.00  0.00    +0.015 C 
ATOM     23  C   UNL     1      -0.001  -0.024   0.009  0.00  0.00    -0.013 C 
ATOM     24  C   UNL     1       0.271  -0.989   1.165  0.00  0.00    +0.015 C 
ATOM     25  C   UNL     1      -1.506   0.045  -0.255  0.00  0.00    +0.015 C 
ENDBRANCH  16  23
ENDBRANCH   1  19
BRANCH   4  26
ATOM     26  C   UNL     1       7.458  -3.457  -4.650  0.00  0.00    +0.222 C 
BRANCH  26  27
ATOM     27  C   UNL     1       8.258  -2.488  -3.818  0.00  0.00    +0.237 C 
ATOM     28  O   UNL     1       7.716  -1.848  -2.943  0.00  0.00    -0.274 OA
ATOM     29  N   UNL     1       9.578  -2.333  -4.048  0.00  0.00    -0.284 N 
ATOM     30  H   UNL     1       9.996  -2.785  -4.797  0.00  0.00    +0.155 HD
BRANCH  29  31
ATOM     31  C   UNL     1      10.343  -1.519  -3.205  0.00  0.00    +0.033 A 
ATOM     32  C   UNL     1      11.391  -0.770  -3.724  0.00  0.00    +0.023 A 
ATOM     33  C   UNL     1      12.145   0.031  -2.890  0.00  0.00    +0.002 A 
ATOM     34  C   UNL     1      11.857   0.089  -1.539  0.00  0.00    +0.000 A 
ATOM     35  C   UNL     1      10.814  -0.655  -1.018  0.00  0.00    +0.002 A 
ATOM     36  C   UNL     1      10.053  -1.454  -1.849  0.00  0.00    +0.023 A 
ENDBRANCH  29  31
ENDBRANCH  26  27
ENDBRANCH   4  26
TORSDOF 5
