REMARK  Name = ZINC20517564
REMARK  7 active torsions:
REMARK  status: ('A' for Active; 'I' for Inactive)
REMARK    1  A    between atoms: C_1  and  C_2
REMARK    2  A    between atoms: C_2  and  C_3
REMARK    3  A    between atoms: C_4  and  C_22
REMARK    4  A    between atoms: C_5  and  C_12
REMARK    5  A    between atoms: C_6  and  C_10
REMARK    6  A    between atoms: C_7  and  N_9
REMARK    7  A    between atoms: C_14  and  N_19
REMARK                            x       y       z     vdW  Elec       q    Type
REMARK                         _______ _______ _______ _____ _____    ______ ____
ROOT
ATOM      1  C   UNL     1       0.002  -0.004   0.002  0.00  0.00    +0.047 A 
ATOM      2  C   UNL     1       1.190  -0.706  -0.014  0.00  0.00    -0.020 A 
ATOM      3  C   UNL     1       2.399  -0.007  -0.021  0.00  0.00    +0.009 A 
ATOM      4  C   UNL     1       2.351   1.403  -0.013  0.00  0.00    +0.099 A 
ATOM      5  C   UNL     1       1.096   2.034   0.003  0.00  0.00    +0.135 A 
ATOM      6  N   UNL     1      -0.016   1.316   0.009  0.00  0.00    -0.236 NA
ATOM      7  C   UNL     1       1.183  -2.213  -0.023  0.00  0.00    +0.046 C 
ENDROOT
BRANCH   3   8
ATOM      8  C   UNL     1       3.694  -0.725  -0.038  0.00  0.00    +0.004 A 
ATOM      9  C   UNL     1       4.295  -1.057  -1.253  0.00  0.00    +0.042 A 
ATOM     10  C   UNL     1       5.501  -1.726  -1.262  0.00  0.00    +0.127 A 
ATOM     11  C   UNL     1       6.116  -2.068  -0.071  0.00  0.00    +0.034 A 
ATOM     12  C   UNL     1       5.527  -1.742   1.137  0.00  0.00    +0.023 A 
ATOM     13  C   UNL     1       4.322  -1.067   1.160  0.00  0.00    +0.049 A 
ATOM     14 CL   UNL     1       3.586  -0.651   2.677  0.00  0.00    -0.083 Cl
BRANCH  10  15
ATOM     15  N   UNL     1       6.139  -2.079  -2.551  0.00  0.00    +0.056 N 
ATOM     16  O   UNL     1       5.599  -1.779  -3.600  0.00  0.00    -0.126 OA
ATOM     17  O   UNL     1       7.204  -2.670  -2.561  0.00  0.00    -0.126 OA
ENDBRANCH  10  15
ENDBRANCH   3   8
BRANCH   5  18
ATOM     18  N   UNL     1       1.022   3.416   0.011  0.00  0.00    -0.342 N 
ATOM     19  H   UNL     1       0.041   3.914   0.023  0.00  0.00    +0.144 HD
ATOM     20  H   UNL     1       1.943   4.016   0.005  0.00  0.00    +0.144 HD
ENDBRANCH   5  18
BRANCH   1  22
ATOM     21  C   UNL     1      -1.757  -1.008  -1.429  0.00  0.00    +0.010 C 
ATOM     22  C   UNL     1      -1.302  -0.760   0.010  0.00  0.00    +0.052 C 
ENDBRANCH   1  22
BRANCH   4  23
ATOM     23  C   UNL     1       3.557   2.175  -0.021  0.00  0.00    +0.103 C 
ATOM     24  N   UNL     1       4.514   2.788  -0.027  0.00  0.00    -0.191 NA
ENDBRANCH   4  23
TORSDOF 5
