REMARK  Name = ZINC33050921
REMARK  6 active torsions:
REMARK  status: ('A' for Active; 'I' for Inactive)
REMARK    1  A    between atoms: C_1  and  C_2
REMARK    2  A    between atoms: N_5  and  C_7
REMARK    3  A    between atoms: C_18  and  C_33
REMARK    4  A    between atoms: N_24  and  C_25
REMARK    5  A    between atoms: C_25  and  C_26
REMARK    6  A    between atoms: C_26  and  C_27
REMARK                            x       y       z     vdW  Elec       q    Type
REMARK                         _______ _______ _______ _____ _____    ______ ____
ROOT
ATOM      1  C   UNL     1       2.464   1.925  -3.080  0.00  0.00    +0.068 C 
ATOM      2  C   UNL     1       1.774   3.025  -2.316  0.00  0.00    +0.067 A 
ATOM      3  C   UNL     1       1.221   2.911  -1.044  0.00  0.00    +0.035 A 
ATOM      4  C   UNL     1       0.668   4.119  -0.727  0.00  0.00    +0.146 A 
ATOM      5  N   UNL     1       0.912   4.972  -1.739  0.00  0.00    -0.215 N 
ATOM      6  N   UNL     1       1.592   4.255  -2.738  0.00  0.00    -0.169 NA
ATOM      7  N   UNL     1      -0.059   4.279   0.459  0.00  0.00    -0.303 N 
ATOM      8  C   UNL     1      -0.041   5.274   1.375  0.00  0.00    +0.093 A 
ATOM      9  C   UNL     1      -0.870   4.923   2.385  0.00  0.00    +0.020 A 
ATOM     10  C   UNL     1      -1.433   3.671   2.057  0.00  0.00    +0.025 A 
ATOM     11  C   UNL     1      -0.942   3.309   0.860  0.00  0.00    +0.050 A 
ATOM     12  C   UNL     1      -1.284   2.110   0.019  0.00  0.00    +0.155 C 
ATOM     13  N   UNL     1      -0.161   1.144  -0.022  0.00  0.00    -0.269 N 
ATOM     14  C   UNL     1       1.198   1.726  -0.124  0.00  0.00    +0.151 C 
ATOM     15  C   UNL     1      -0.364  -0.187   0.025  0.00  0.00    +0.303 C 
ATOM     16  O   UNL     1      -1.495  -0.627   0.110  0.00  0.00    -0.253 OA
ATOM     17  N   UNL     1       0.685  -1.031  -0.021  0.00  0.00    -0.299 N 
ATOM     18  H   UNL     1       1.708  -0.633  -0.097  0.00  0.00    +0.150 HD
ENDROOT
BRANCH  12  19
ATOM     19  C   UNL     1      -1.599   2.559  -1.384  0.00  0.00    -0.021 A 
ATOM     20  C   UNL     1      -2.306   3.728  -1.593  0.00  0.00    +0.007 A 
ATOM     21  C   UNL     1      -2.590   4.144  -2.880  0.00  0.00    +0.020 A 
ATOM     22  C   UNL     1      -2.176   3.384  -3.959  0.00  0.00    +0.041 A 
ATOM     23  C   UNL     1      -1.474   2.211  -3.750  0.00  0.00    +0.020 A 
ATOM     24  C   UNL     1      -1.185   1.799  -2.462  0.00  0.00    +0.007 A 
ATOM     25 CL   UNL     1      -2.539   3.901  -5.576  0.00  0.00    -0.084 Cl
ENDBRANCH  12  19
BRANCH   5  26
ATOM     26  C   UNL     1       0.553   6.326  -1.788  0.00  0.00    +0.068 A 
ATOM     27  C   UNL     1      -0.637   6.751  -1.213  0.00  0.00    +0.028 A 
ATOM     28  C   UNL     1      -0.985   8.087  -1.258  0.00  0.00    +0.002 A 
ATOM     29  C   UNL     1      -0.156   8.998  -1.886  0.00  0.00    +0.000 A 
ATOM     30  C   UNL     1       1.026   8.577  -2.465  0.00  0.00    +0.002 A 
ATOM     31  C   UNL     1       1.383   7.243  -2.418  0.00  0.00    +0.028 A 
ENDBRANCH   5  26
BRANCH  17  32
ATOM     32  C   UNL     1       0.465  -2.479   0.031  0.00  0.00    +0.110 C 
BRANCH  32  33
ATOM     33  C   UNL     1       1.811  -3.203  -0.037  0.00  0.00    +0.054 C 
BRANCH  33  34
ATOM     34  C   UNL     1       1.584  -4.691   0.016  0.00  0.00    -0.046 A 
ATOM     35  C   UNL     1       1.562  -5.344   1.234  0.00  0.00    +0.004 A 
ATOM     36  C   UNL     1       1.350  -6.709   1.283  0.00  0.00    +0.000 A 
ATOM     37  C   UNL     1       1.167  -7.423   0.113  0.00  0.00    +0.000 A 
ATOM     38  C   UNL     1       1.194  -6.771  -1.106  0.00  0.00    +0.000 A 
ATOM     39  C   UNL     1       1.403  -5.405  -1.154  0.00  0.00    +0.004 A 
ENDBRANCH  33  34
ENDBRANCH  32  33
ENDBRANCH  17  32
TORSDOF 5
