REMARK  Name = ZINC22504807
REMARK  3 active torsions:
REMARK  status: ('A' for Active; 'I' for Inactive)
REMARK    1  A    between atoms: C_4  and  C_7
REMARK    2  A    between atoms: C_9  and  C_13
REMARK    3  A    between atoms: C_16  and  C_21
REMARK                            x       y       z     vdW  Elec       q    Type
REMARK                         _______ _______ _______ _____ _____    ______ ____
ROOT
ATOM      1  C   UNL     1       1.764  -0.202   0.386  0.00  0.00    +0.150 A 
ATOM      2  N   UNL     1       2.195   1.032   0.296  0.00  0.00    -0.154 NA
ATOM      3  N   UNL     1       1.311   2.092   0.139  0.00  0.00    -0.185 N 
ATOM      4  C   UNL     1       1.326   3.473   0.008  0.00  0.00    +0.187 A 
ATOM      5  N   UNL     1       0.082   3.878  -0.109  0.00  0.00    -0.126 NA
ATOM      6  N   UNL     1      -0.714   2.867  -0.058  0.00  0.00    -0.120 NA
ATOM      7  C   UNL     1      -0.024   1.775   0.085  0.00  0.00    +0.219 A 
ATOM      8  S   UNL     1      -0.004   0.007   0.255  0.00  0.00    -0.025 S 
ENDROOT
BRANCH   4   9
ATOM      9  C   UNL     1       2.526   4.335   0.001  0.00  0.00    +0.035 A 
ATOM     10  C   UNL     1       3.627   3.996  -0.789  0.00  0.00    +0.013 A 
ATOM     11  C   UNL     1       4.745   4.805  -0.791  0.00  0.00    +0.001 A 
ATOM     12  C   UNL     1       4.777   5.949  -0.014  0.00  0.00    +0.001 A 
ATOM     13  C   UNL     1       3.690   6.291   0.771  0.00  0.00    +0.016 A 
ATOM     14  C   UNL     1       2.563   5.494   0.778  0.00  0.00    +0.029 A 
ATOM     15 BR   UNL     1       1.075   5.967   1.845  0.00  0.00    -0.050 Br
ENDBRANCH   4   9
BRANCH   1  18
ATOM     16  C   UNL     1       3.111  -3.595   0.795  0.00  0.00    +0.093 A 
ATOM     17  C   UNL     1       2.032  -2.708   0.649  0.00  0.00    +0.060 A 
ATOM     18  C   UNL     1       2.541  -1.444   0.554  0.00  0.00    +0.093 A 
ATOM     19  N   UNL     1       3.900  -1.541   0.648  0.00  0.00    -0.274 N 
ATOM     20  H   UNL     1       4.520  -0.634   0.601  0.00  0.00    +0.189 HD
ATOM     21  N   UNL     1       4.226  -2.895   0.798  0.00  0.00    -0.173 NA
BRANCH  16  25
ATOM     22  C   UNL     1       2.825  -7.821   1.182  0.00  0.00    +0.000 A 
ATOM     23  C   UNL     1       4.066  -7.210   1.200  0.00  0.00    +0.001 A 
ATOM     24  C   UNL     1       4.164  -5.838   1.075  0.00  0.00    +0.010 A 
ATOM     25  C   UNL     1       3.011  -5.070   0.929  0.00  0.00    +0.002 A 
ATOM     26  C   UNL     1       1.764  -5.691   0.917  0.00  0.00    +0.010 A 
ATOM     27  C   UNL     1       1.677  -7.063   1.037  0.00  0.00    +0.001 A 
ENDBRANCH  16  25
ENDBRANCH   1  18
TORSDOF 3
