REMARK  Name = ZINC03215007
REMARK  4 active torsions:
REMARK  status: ('A' for Active; 'I' for Inactive)
REMARK    1  A    between atoms: C_4  and  C_7
REMARK    2  A    between atoms: C_10  and  C_25
REMARK    3  A    between atoms: C_13  and  C_15
REMARK    4  A    between atoms: C_19  and  N_21
REMARK                            x       y       z     vdW  Elec       q    Type
REMARK                         _______ _______ _______ _____ _____    ______ ____
ROOT
ATOM      1  C   UNL     1       5.042   3.928  -0.543  0.00  0.00    +0.152 C 
ATOM      2  C   UNL     1       3.556   3.651  -0.503  0.00  0.00    +0.027 C 
ATOM      3  C   UNL     1       3.399   2.338  -0.359  0.00  0.00    +0.050 C 
ATOM      4  N   UNL     1       4.622   1.683  -0.306  0.00  0.00    -0.261 N 
ATOM      5  N   UNL     1       5.673   2.604  -0.413  0.00  0.00    -0.207 N 
ATOM      6  C   UNL     1       6.993   2.333  -0.401  0.00  0.00    +0.264 C 
ATOM      7  O   UNL     1       7.379   1.204  -0.168  0.00  0.00    -0.268 OA
ATOM      8  H   UNL     1       4.733   0.724  -0.208  0.00  0.00    +0.170 HD
ENDROOT
BRANCH   6   9
ATOM      9  C   UNL     1       7.971   3.408  -0.669  0.00  0.00    +0.041 A 
ATOM     10  C   UNL     1       7.583   4.746  -0.581  0.00  0.00    +0.014 A 
ATOM     11  C   UNL     1       8.499   5.745  -0.833  0.00  0.00    +0.023 A 
ATOM     12  C   UNL     1       9.803   5.422  -1.173  0.00  0.00    +0.071 A 
ATOM     13  C   UNL     1      10.194   4.097  -1.262  0.00  0.00    +0.145 A 
ATOM     14  C   UNL     1       9.287   3.089  -1.006  0.00  0.00    +0.047 A 
ATOM     15 CL   UNL     1      10.952   6.685  -1.489  0.00  0.00    -0.081 Cl
BRANCH  13  16
ATOM     16  N   UNL     1      11.588   3.760  -1.627  0.00  0.00    +0.058 N 
ATOM     17  O   UNL     1      11.933   2.595  -1.706  0.00  0.00    -0.126 OA
ATOM     18  O   UNL     1      12.391   4.649  -1.848  0.00  0.00    -0.126 OA
ENDBRANCH  13  16
ENDBRANCH   6   9
BRANCH   1  22
ATOM     19  C   UNL     1       6.113   5.728  -4.266  0.00  0.00    +0.000 A 
ATOM     20  C   UNL     1       5.973   6.510  -3.135  0.00  0.00    +0.000 A 
ATOM     21  C   UNL     1       5.626   5.928  -1.930  0.00  0.00    +0.006 A 
ATOM     22  C   UNL     1       5.420   4.563  -1.857  0.00  0.00    -0.021 A 
ATOM     23  C   UNL     1       5.565   3.780  -2.986  0.00  0.00    +0.006 A 
ATOM     24  C   UNL     1       5.908   4.363  -4.192  0.00  0.00    +0.000 A 
ENDBRANCH   1  22
BRANCH   3  25
ATOM     25  C   UNL     1       2.085   1.660  -0.273  0.00  0.00    -0.003 A 
ATOM     26  C   UNL     1       0.908   2.404  -0.336  0.00  0.00    +0.010 A 
ATOM     27  C   UNL     1      -0.314   1.766  -0.255  0.00  0.00    +0.001 A 
ATOM     28  C   UNL     1      -0.371   0.392  -0.112  0.00  0.00    +0.000 A 
ATOM     29  C   UNL     1       0.794  -0.352  -0.049  0.00  0.00    +0.001 A 
ATOM     30  C   UNL     1       2.021   0.274  -0.128  0.00  0.00    +0.010 A 
ENDBRANCH   3  25
TORSDOF 4
