REMARK  Name = ZINC31809512
REMARK  6 active torsions:
REMARK  status: ('A' for Active; 'I' for Inactive)
REMARK    1  A    between atoms: C_1  and  C_2
REMARK    2  A    between atoms: C_22  and  C_24
REMARK    3  A    between atoms: C_29  and  O_30
REMARK    4  A    between atoms: O_30  and  C_31
REMARK    5  A    between atoms: C_31  and  C_32
REMARK    6  A    between atoms: C_31  and  C_33
REMARK                            x       y       z     vdW  Elec       q    Type
REMARK                         _______ _______ _______ _____ _____    ______ ____
ROOT
ATOM      1  C   UNL     1      -0.082   1.349   0.035  0.00  0.00    +0.068 C 
ATOM      2  C   UNL     1       0.118  -0.142  -0.059  0.00  0.00    +0.067 A 
ATOM      3  C   UNL     1       0.228  -0.881  -1.257  0.00  0.00    +0.033 A 
ATOM      4  C   UNL     1       0.401  -2.179  -0.927  0.00  0.00    +0.135 A 
ATOM      5  N   UNL     1       0.397  -2.248   0.451  0.00  0.00    -0.197 N 
ATOM      6  N   UNL     1       0.225  -0.957   0.950  0.00  0.00    -0.168 NA
ATOM      7  C   UNL     1       0.544  -3.406   1.212  0.00  0.00    +0.187 A 
ATOM      8  C   UNL     1       1.436  -3.445   2.294  0.00  0.00    +0.152 A 
ATOM      9  C   UNL     1       1.541  -4.642   3.026  0.00  0.00    +0.163 A 
ATOM     10  N   UNL     1       2.468  -4.404   4.009  0.00  0.00    -0.329 N 
ATOM     11  H   UNL     1       2.765  -5.036   4.682  0.00  0.00    +0.168 HD
ATOM     12  C   UNL     1       2.894  -3.118   3.865  0.00  0.00    +0.198 A 
ATOM     13  N   UNL     1       2.288  -2.557   2.859  0.00  0.00    -0.231 NA
ATOM     14  N   UNL     1       0.798  -5.684   2.668  0.00  0.00    -0.216 NA
ATOM     15  C   UNL     1      -0.025  -5.600   1.644  0.00  0.00    +0.226 A 
ATOM     16  N   UNL     1      -0.161  -4.496   0.933  0.00  0.00    -0.214 NA
ATOM     17  N   UNL     1       0.565  -3.307  -1.693  0.00  0.00    -0.269 N 
ATOM     18  C   UNL     1       0.565  -3.558  -2.968  0.00  0.00    +0.228 C 
ATOM     19  O   UNL     1       0.644  -4.734  -3.256  0.00  0.00    -0.275 OA
ATOM     20  C   UNL     1       0.485  -2.639  -4.123  0.00  0.00    +0.166 C 
ATOM     21  S   UNL     1      -0.634  -1.259  -3.845  0.00  0.00    -0.138 S 
ATOM     22  C   UNL     1       0.148  -0.229  -2.602  0.00  0.00    +0.115 C 
ATOM     23  H   UNL     1       0.716  -4.102  -1.158  0.00  0.00    +0.156 HD
ENDROOT
BRANCH  22  24
ATOM     24  C   UNL     1      -0.635   1.052  -2.472  0.00  0.00    +0.012 A 
ATOM     25  C   UNL     1       0.021   2.268  -2.483  0.00  0.00    +0.008 A 
ATOM     26  C   UNL     1      -0.698   3.443  -2.364  0.00  0.00    +0.001 A 
ATOM     27  C   UNL     1      -2.074   3.405  -2.233  0.00  0.00    +0.004 A 
ATOM     28  C   UNL     1      -2.734   2.192  -2.223  0.00  0.00    +0.046 A 
ATOM     29  C   UNL     1      -2.016   1.011  -2.347  0.00  0.00    +0.125 A 
BRANCH  29  30
ATOM     30  O   UNL     1      -2.664  -0.183  -2.342  0.00  0.00    -0.489 OA
BRANCH  30  31
ATOM     31  C   UNL     1      -4.083  -0.151  -2.172  0.00  0.00    +0.167 C 
ATOM     32  C   UNL     1      -4.696  -1.426  -2.755  0.00  0.00    +0.051 C 
ATOM     33  C   UNL     1      -4.415  -0.061  -0.681  0.00  0.00    +0.051 C 
ENDBRANCH  30  31
ENDBRANCH  29  30
ENDBRANCH  22  24
TORSDOF 3
