REMARK  Name = ZINC12529075
REMARK  11 active torsions:
REMARK  status: ('A' for Active; 'I' for Inactive)
REMARK    1  A    between atoms: C_1  and  C_2
REMARK    2  A    between atoms: C_2  and  C_4
REMARK    3  A    between atoms: C_2  and  N_14
REMARK    4  A    between atoms: C_15  and  C_17
REMARK    5  A    between atoms: C_17  and  O_18
REMARK    6  A    between atoms: O_18  and  C_19
REMARK    7  A    between atoms: C_19  and  C_21
REMARK    8  A    between atoms: C_22  and  C_30
REMARK    9  A    between atoms: C_30  and  S_31
REMARK   10  A    between atoms: S_31  and  C_32
REMARK   11  A    between atoms: C_32  and  C_33
REMARK                            x       y       z     vdW  Elec       q    Type
REMARK                         _______ _______ _______ _____ _____    ______ ____
ROOT
ATOM      1  C   UNL     1      -0.014   1.212   0.009  0.00  0.00    +0.376 C 
ATOM      2  O   UNL     1       0.002  -0.004   0.002  0.00  0.00    -0.241 OA
ENDROOT
BRANCH   1   3
ATOM      3  C   UNL     1      -1.296   1.928   0.019  0.00  0.00    +0.217 A 
ATOM      4  C   UNL     1      -2.521   1.340   0.016  0.00  0.00    +0.022 A 
ATOM      5  C   UNL     1      -3.494   2.432   0.031  0.00  0.00    +0.025 A 
ATOM      6  C   UNL     1      -4.890   2.492   0.036  0.00  0.00    +0.012 A 
ATOM      7  C   UNL     1      -5.515   3.707   0.046  0.00  0.00    +0.001 A 
ATOM      8  C   UNL     1      -4.773   4.880   0.049  0.00  0.00    +0.004 A 
ATOM      9  C   UNL     1      -3.395   4.842   0.043  0.00  0.00    +0.047 A 
ATOM     10  C   UNL     1      -2.736   3.618   0.034  0.00  0.00    +0.136 A 
ATOM     11  O   UNL     1      -1.435   3.271   0.026  0.00  0.00    -0.448 OA
BRANCH   4  12
ATOM     12  C   UNL     1      -2.817  -0.137   0.003  0.00  0.00    +0.109 C 
BRANCH  12  13
ATOM     13  S   UNL     1      -2.933  -0.746   1.708  0.00  0.00    -0.151 S 
BRANCH  13  14
ATOM     14  C   UNL     1      -3.288  -2.514   1.520  0.00  0.00    +0.104 C 
BRANCH  14  15
ATOM     15  C   UNL     1      -3.410  -3.150   2.881  0.00  0.00    -0.038 A 
ATOM     16  C   UNL     1      -2.294  -3.681   3.499  0.00  0.00    +0.004 A 
ATOM     17  C   UNL     1      -2.405  -4.260   4.749  0.00  0.00    +0.000 A 
ATOM     18  C   UNL     1      -3.635  -4.316   5.378  0.00  0.00    +0.000 A 
ATOM     19  C   UNL     1      -4.753  -3.789   4.757  0.00  0.00    +0.000 A 
ATOM     20  C   UNL     1      -4.640  -3.206   3.509  0.00  0.00    +0.004 A 
ENDBRANCH  14  15
ENDBRANCH  13  14
ENDBRANCH  12  13
ENDBRANCH   4  12
ENDBRANCH   1   3
BRANCH   1  21
ATOM     21  O   UNL     1       1.144   1.902   0.001  0.00  0.00    -0.450 OA
BRANCH  21  22
ATOM     22  C   UNL     1       2.373   1.128  -0.015  0.00  0.00    +0.328 C 
BRANCH  22  24
ATOM     23  N   UNL     1       4.807   1.564  -0.035  0.00  0.00    -0.309 N 
ATOM     24  C   UNL     1       3.555   2.062  -0.021  0.00  0.00    +0.251 C 
ATOM     25  O   UNL     1       3.380   3.262  -0.013  0.00  0.00    -0.272 OA
ATOM     26  H   UNL     1       4.947   0.604  -0.042  0.00  0.00    +0.149 HD
BRANCH  23  28
ATOM     27  C   UNL     1       6.293   2.879   1.395  0.00  0.00    +0.028 C 
ATOM     28  C   UNL     1       5.957   2.472  -0.042  0.00  0.00    +0.076 C 
BRANCH  28  29
ATOM     29  C   UNL     1       7.162   1.765  -0.666  0.00  0.00    -0.010 C 
ATOM     30  C   UNL     1       6.825   1.358  -2.103  0.00  0.00    +0.012 C 
ATOM     31  C   UNL     1       8.030   0.652  -2.728  0.00  0.00    -0.010 C 
ATOM     32  C   UNL     1       9.231   1.600  -2.734  0.00  0.00    +0.007 C 
ATOM     33  C   UNL     1       9.567   2.007  -1.298  0.00  0.00    -0.010 C 
ATOM     34  C   UNL     1       8.362   2.714  -0.673  0.00  0.00    +0.012 C 
ATOM     35  C   UNL     1       9.907   0.760  -0.480  0.00  0.00    +0.007 C 
ATOM     36  C   UNL     1       8.706  -0.189  -0.474  0.00  0.00    -0.010 C 
ATOM     37  C   UNL     1       8.370  -0.596  -1.910  0.00  0.00    +0.007 C 
ATOM     38  C   UNL     1       7.502   0.518   0.151  0.00  0.00    +0.012 C 
ENDBRANCH  28  29
ENDBRANCH  23  28
ENDBRANCH  22  24
ENDBRANCH  21  22
ENDBRANCH   1  21
TORSDOF 10
