REMARK  Name = ZINC15304341
REMARK  9 active torsions:
REMARK  status: ('A' for Active; 'I' for Inactive)
REMARK    1  A    between atoms: C_1  and  C_2
REMARK    2  A    between atoms: C_2  and  O_3
REMARK    3  A    between atoms: O_3  and  C_4
REMARK    4  A    between atoms: C_6  and  C_12
REMARK    5  A    between atoms: C_9  and  O_10
REMARK    6  A    between atoms: C_17  and  C_27
REMARK    7  A    between atoms: C_19  and  C_23
REMARK    8  A    between atoms: C_23  and  O_25
REMARK    9  A    between atoms: O_25  and  C_26
REMARK                            x       y       z     vdW  Elec       q    Type
REMARK                         _______ _______ _______ _____ _____    ______ ____
ROOT
ATOM      1  C   UNL     1       2.446   4.744   0.005  0.00  0.00    +0.136 C 
ATOM      2  C   UNL     1       3.005   4.726  -1.398  0.00  0.00    +0.037 C 
ATOM      3  C   UNL     1       4.093   4.052  -1.805  0.00  0.00    +0.017 C 
ATOM      4  C   UNL     1       4.531   4.102  -3.260  0.00  0.00    +0.055 C 
ATOM      5  C   UNL     1       4.186   5.463  -3.861  0.00  0.00    +0.013 C 
ATOM      6  C   UNL     1       2.667   5.649  -3.755  0.00  0.00    +0.171 C 
ATOM      7  C   UNL     1       2.269   5.513  -2.316  0.00  0.00    +0.177 C 
ATOM      8  O   UNL     1       1.280   6.099  -1.923  0.00  0.00    -0.291 OA
ATOM      9  C   UNL     1       4.899   6.570  -3.082  0.00  0.00    +0.009 C 
ATOM     10  N   UNL     1       4.878   3.288  -1.004  0.00  0.00    -0.316 N 
ATOM     11  C   UNL     1       4.405   2.349  -0.093  0.00  0.00    +0.052 A 
ATOM     12  C   UNL     1       4.659   0.995  -0.227  0.00  0.00    +0.025 A 
ATOM     13  C   UNL     1       4.196   0.119   0.740  0.00  0.00    +0.002 A 
ATOM     14  C   UNL     1       3.490   0.594   1.831  0.00  0.00    +0.002 A 
ATOM     15  C   UNL     1       3.221   1.945   1.957  0.00  0.00    +0.025 A 
ATOM     16  C   UNL     1       3.663   2.822   0.979  0.00  0.00    +0.049 A 
ATOM     17  N   UNL     1       3.324   4.171   1.004  0.00  0.00    -0.331 N 
ATOM     18  H   UNL     1       5.838   3.405  -1.071  0.00  0.00    +0.152 HD
ATOM     19  H   UNL     1       3.681   4.737   1.706  0.00  0.00    +0.147 HD
ENDROOT
BRANCH   1  22
ATOM     20  C   UNL     1      -1.227   3.922   0.326  0.00  0.00    +0.163 A 
ATOM     21  C   UNL     1      -0.033   4.625   0.318  0.00  0.00    +0.055 A 
ATOM     22  C   UNL     1       1.149   3.977   0.013  0.00  0.00    -0.018 A 
ATOM     23  C   UNL     1       1.144   2.627  -0.286  0.00  0.00    +0.025 A 
ATOM     24  C   UNL     1      -0.045   1.919  -0.280  0.00  0.00    +0.063 A 
ATOM     25  C   UNL     1      -1.234   2.565   0.021  0.00  0.00    +0.173 A 
ATOM     26 BR   UNL     1      -0.048   0.073  -0.688  0.00  0.00    -0.046 Br
BRANCH  25  27
ATOM     27  O   UNL     1      -2.405   1.872   0.022  0.00  0.00    -0.503 OA
ATOM     28  H   UNL     1      -2.630   1.482   0.877  0.00  0.00    +0.292 HD
ENDBRANCH  25  27
BRANCH  20  29
ATOM     29  O   UNL     1      -2.391   4.559   0.627  0.00  0.00    -0.489 OA
BRANCH  29  31
ATOM     30  C   UNL     1      -3.707   6.492   1.235  0.00  0.00    +0.048 C 
ATOM     31  C   UNL     1      -2.309   5.954   0.924  0.00  0.00    +0.226 C 
ENDBRANCH  29  31
ENDBRANCH  20  29
ENDBRANCH   1  22
BRANCH   6  32
ATOM     32  C   UNL     1       1.970   4.594  -4.574  0.00  0.00    +0.318 C 
ATOM     33  O   UNL     1       2.617   3.776  -5.183  0.00  0.00    -0.250 OA
BRANCH  32  34
ATOM     34  O   UNL     1       0.629   4.565  -4.628  0.00  0.00    -0.467 OA
ATOM     35  C   UNL     1       0.025   3.521  -5.438  0.00  0.00    +0.280 C 
ENDBRANCH  32  34
ENDBRANCH   6  32
TORSDOF 6
