REMARK  Name = ZINC20780158
REMARK  7 active torsions:
REMARK  status: ('A' for Active; 'I' for Inactive)
REMARK    1  A    between atoms: C_3  and  N_17
REMARK    2  A    between atoms: C_6  and  C_7
REMARK    3  A    between atoms: C_13  and  O_16
REMARK    4  A    between atoms: C_20  and  N_23
REMARK    5  A    between atoms: N_23  and  C_24
REMARK    6  A    between atoms: C_24  and  C_25
REMARK    7  A    between atoms: C_25  and  N_32
REMARK                            x       y       z     vdW  Elec       q    Type
REMARK                         _______ _______ _______ _____ _____    ______ ____
ROOT
ATOM      1  N   UNL     1      -1.572  -0.336   0.401  0.00  0.00    -0.330 N 
ATOM      2  C   UNL     1      -0.232  -0.935   0.448  0.00  0.00    +0.103 C 
ATOM      3  C   UNL     1      -0.355  -2.455   0.571  0.00  0.00    +0.003 C 
ATOM      4  C   UNL     1      -1.133  -2.798   1.844  0.00  0.00    -0.069 C 
ATOM      5  C   UNL     1      -2.506  -2.123   1.791  0.00  0.00    +0.003 C 
ATOM      6  C   UNL     1      -2.321  -0.612   1.633  0.00  0.00    +0.103 C 
ENDROOT
BRANCH   1   9
ATOM      7  C   UNL     1      -0.752   2.854  -1.210  0.00  0.00    +0.015 A 
ATOM      8  C   UNL     1      -0.827   1.502  -0.967  0.00  0.00    +0.024 A 
ATOM      9  C   UNL     1      -1.498   1.031   0.158  0.00  0.00    +0.030 A 
ATOM     10  C   UNL     1      -2.101   1.926   1.038  0.00  0.00    +0.024 A 
ATOM     11  C   UNL     1      -2.025   3.280   0.803  0.00  0.00    +0.015 A 
ATOM     12  C   UNL     1      -1.352   3.756  -0.326  0.00  0.00    +0.037 A 
BRANCH  12  13
ATOM     13  C   UNL     1      -1.274   5.206  -0.583  0.00  0.00    +0.247 C 
ATOM     14  O   UNL     1      -0.293   5.676  -1.127  0.00  0.00    -0.270 OA
ATOM     15  N   UNL     1      -2.291   6.011  -0.216  0.00  0.00    -0.295 N 
ATOM     16  C   UNL     1      -3.466   5.465   0.475  0.00  0.00    +0.108 C 
ATOM     17  C   UNL     1      -4.726   5.883  -0.289  0.00  0.00    +0.021 C 
ATOM     18  C   UNL     1      -4.741   7.405  -0.446  0.00  0.00    +0.034 C 
ATOM     19  C   UNL     1      -3.518   7.848  -1.252  0.00  0.00    +0.132 C 
ATOM     20  C   UNL     1      -2.242   7.453  -0.494  0.00  0.00    +0.139 C 
BRANCH  19  21
ATOM     21  O   UNL     1      -3.549   9.267  -1.425  0.00  0.00    -0.390 OA
ATOM     22  H   UNL     1      -2.746   9.770  -1.982  0.00  0.00    +0.210 HD
ENDBRANCH  19  21
ENDBRANCH  12  13
ENDBRANCH   1   9
BRANCH   4  23
ATOM     23  N   UNL     1      -1.306  -4.254   1.937  0.00  0.00    +0.382 N 
ATOM     24  H   UNL     1      -2.196  -4.480   2.541  0.00  0.00    -0.085 HD
ATOM     25  H   UNL     1      -1.431  -4.674   0.927  0.00  0.00    -0.085 HD
BRANCH  23  26
ATOM     26  C   UNL     1      -0.137  -4.884   2.566  0.00  0.00    -0.060 C 
BRANCH  26  27
ATOM     27  C   UNL     1      -0.404  -6.378   2.759  0.00  0.00    +0.007 C 
ATOM     28  C   UNL     1       0.141  -6.821   4.090  0.00  0.00    +0.020 C 
ATOM     29  C   UNL     1       1.304  -5.931   4.574  0.00  0.00    +0.002 C 
ATOM     30  C   UNL     1       2.282  -5.554   3.444  0.00  0.00    +0.000 C 
ATOM     31  C   UNL     1       2.581  -6.711   2.531  0.00  0.00    +0.000 C 
ATOM     32  C   UNL     1       1.617  -6.648   1.328  0.00  0.00    +0.002 C 
ATOM     33  C   UNL     1       0.300  -7.178   1.645  0.00  0.00    +0.020 C 
BRANCH  27  34
ATOM     34  N   UNL     1      -1.851  -6.630   2.710  0.00  0.00    -0.294 NA
ATOM     35  C   UNL     1      -2.550  -5.897   3.775  0.00  0.00    +0.113 C 
ATOM     36  C   UNL     1      -4.056  -6.141   3.651  0.00  0.00    +0.175 C 
ATOM     37  O   UNL     1      -4.313  -7.547   3.703  0.00  0.00    -0.377 OA
ATOM     38  C   UNL     1      -3.648  -8.292   2.679  0.00  0.00    +0.175 C 
ATOM     39  C   UNL     1      -2.137  -8.070   2.793  0.00  0.00    +0.113 C 
ENDBRANCH  27  34
ENDBRANCH  26  27
ENDBRANCH  23  26
ENDBRANCH   4  23
TORSDOF 7
