REMARK  Name = ZINC10040622
REMARK  12 active torsions:
REMARK  status: ('A' for Active; 'I' for Inactive)
REMARK    1  A    between atoms: C_1  and  C_2
REMARK    2  A    between atoms: C_2  and  C_3
REMARK    3  A    between atoms: C_2  and  C_4
REMARK    4  A    between atoms: C_4  and  C_6
REMARK    5  A    between atoms: C_4  and  N_22
REMARK    6  A    between atoms: N_8  and  N_9
REMARK    7  A    between atoms: C_10  and  C_11
REMARK    8  A    between atoms: C_16  and  O_17
REMARK    9  A    between atoms: O_17  and  C_18
REMARK   10  A    between atoms: C_18  and  C_19
REMARK   11  A    between atoms: C_18  and  C_20
REMARK   12  A    between atoms: C_23  and  C_25
REMARK                            x       y       z     vdW  Elec       q    Type
REMARK                         _______ _______ _______ _____ _____    ______ ____
ROOT
ATOM      1  C   UNL     1       4.044  -3.292  -0.208  0.00  0.00    +0.253 C 
ATOM      2  O   UNL     1       3.719  -4.455  -0.319  0.00  0.00    -0.272 OA
ATOM      3  N   UNL     1       3.254  -2.433   0.467  0.00  0.00    -0.205 N 
ATOM      4  H   UNL     1       3.539  -1.516   0.603  0.00  0.00    +0.177 HD
ENDROOT
BRANCH   3   5
ATOM      5  N   UNL     1       2.020  -2.865   0.970  0.00  0.00    -0.188 NA
ATOM      6  C   UNL     1       1.310  -2.074   1.716  0.00  0.00    +0.142 C 
BRANCH   6   7
ATOM      7  C   UNL     1       1.922  -0.868   2.301  0.00  0.00    +0.038 A 
ATOM      8  C   UNL     1       3.297  -0.826   2.544  0.00  0.00    +0.033 A 
ATOM      9  C   UNL     1       3.864   0.306   3.093  0.00  0.00    +0.042 A 
ATOM     10  C   UNL     1       3.074   1.401   3.405  0.00  0.00    +0.023 A 
ATOM     11  C   UNL     1       1.713   1.371   3.169  0.00  0.00    +0.048 A 
ATOM     12  C   UNL     1       1.128   0.242   2.618  0.00  0.00    +0.130 A 
ATOM     13 CL   UNL     1       5.571   0.356   3.402  0.00  0.00    -0.084 Cl
BRANCH  12  14
ATOM     14  O   UNL     1      -0.210   0.211   2.386  0.00  0.00    -0.489 OA
BRANCH  14  15
ATOM     15  C   UNL     1      -0.950   1.393   2.699  0.00  0.00    +0.167 C 
ATOM     16  C   UNL     1      -0.971   2.319   1.480  0.00  0.00    +0.051 C 
ATOM     17  C   UNL     1      -2.383   1.014   3.075  0.00  0.00    +0.051 C 
ENDBRANCH  14  15
ENDBRANCH  12  14
ENDBRANCH   6   7
ENDBRANCH   3   5
BRANCH   1  18
ATOM     18  C   UNL     1       5.331  -2.807  -0.823  0.00  0.00    +0.163 C 
BRANCH  18  19
ATOM     19  N   UNL     1       6.076  -3.948  -1.361  0.00  0.00    -0.300 N 
ATOM     20  C   UNL     1       7.415  -3.875  -1.495  0.00  0.00    +0.245 C 
ATOM     21  O   UNL     1       8.005  -2.863  -1.170  0.00  0.00    -0.270 OA
ATOM     22  H   UNL     1       5.606  -4.755  -1.620  0.00  0.00    +0.150 HD
BRANCH  20  23
ATOM     23  C   UNL     1       8.167  -5.027  -2.037  0.00  0.00    +0.038 A 
ATOM     24  C   UNL     1       7.493  -6.192  -2.406  0.00  0.00    +0.014 A 
ATOM     25  C   UNL     1       8.198  -7.262  -2.917  0.00  0.00    +0.022 A 
ATOM     26  C   UNL     1       9.575  -7.186  -3.053  0.00  0.00    +0.059 A 
ATOM     27  C   UNL     1      10.250  -6.033  -2.684  0.00  0.00    +0.060 A 
ATOM     28  C   UNL     1       9.554  -4.954  -2.178  0.00  0.00    +0.034 A 
ATOM     29 CL   UNL     1      11.975  -5.946  -2.860  0.00  0.00    -0.082 Cl
ATOM     30 CL   UNL     1      10.456  -8.539  -3.690  0.00  0.00    -0.082 Cl
ENDBRANCH  20  23
ENDBRANCH  18  19
BRANCH  18  32
ATOM     31  C   UNL     1       4.260  -0.621  -1.387  0.00  0.00    +0.009 C 
ATOM     32  C   UNL     1       5.018  -1.824  -1.953  0.00  0.00    +0.012 C 
ATOM     33  C   UNL     1       6.324  -1.349  -2.593  0.00  0.00    +0.009 C 
ENDBRANCH  18  32
ENDBRANCH   1  18
TORSDOF 8
