REMARK  Name = ZINC67589880
REMARK  3 active torsions:
REMARK  status: ('A' for Active; 'I' for Inactive)
REMARK    1  A    between atoms: C_1  and  C_2
REMARK    2  A    between atoms: C_7  and  C_10
REMARK    3  A    between atoms: N_18  and  C_19
REMARK                            x       y       z     vdW  Elec       q    Type
REMARK                         _______ _______ _______ _____ _____    ______ ____
ROOT
ATOM      1  C   UNL     1      -0.019   1.526   0.011  0.00  0.00    +0.039 C 
ATOM      2  C   UNL     1       0.002  -0.004   0.002  0.00  0.00    +0.133 C 
ATOM      3  C   UNL     1       0.722  -0.499  -1.258  0.00  0.00    +0.140 C 
ATOM      4  N   UNL     1       0.893  -1.957  -1.151  0.00  0.00    -0.280 N 
ATOM      5  C   UNL     1       1.483  -2.495   0.085  0.00  0.00    +0.145 C 
ATOM      6  C   UNL     1       0.726  -1.903   1.280  0.00  0.00    +0.166 C 
ATOM      7  O   UNL     1       0.695  -0.479   1.159  0.00  0.00    -0.366 OA
ATOM      8  C   UNL     1       0.522  -2.775  -2.156  0.00  0.00    +0.303 C 
ATOM      9  O   UNL     1      -0.046  -2.321  -3.130  0.00  0.00    -0.253 OA
ATOM     10  N   UNL     1       0.780  -4.096  -2.080  0.00  0.00    -0.292 N 
ATOM     11  H   UNL     1       1.167  -4.469  -1.273  0.00  0.00    +0.151 HD
ENDROOT
BRANCH  10  12
ATOM     12  C   UNL     1       0.475  -4.968  -3.217  0.00  0.00    +0.111 C 
ATOM     13  C   UNL     1       0.254  -6.397  -2.718  0.00  0.00    +0.068 C 
ATOM     14  C   UNL     1       0.233  -7.334  -3.933  0.00  0.00    +0.231 C 
ATOM     15  O   UNL     1       1.525  -7.311  -4.542  0.00  0.00    -0.492 OA
ATOM     16  C   UNL     1       2.084  -6.099  -4.797  0.00  0.00    +0.125 A 
ATOM     17  C   UNL     1       1.627  -4.943  -4.191  0.00  0.00    +0.015 A 
ATOM     18  C   UNL     1       2.231  -3.731  -4.478  0.00  0.00    +0.009 A 
ATOM     19  C   UNL     1       3.286  -3.670  -5.367  0.00  0.00    +0.001 A 
ATOM     20  C   UNL     1       3.743  -4.824  -5.976  0.00  0.00    +0.004 A 
ATOM     21  C   UNL     1       3.145  -6.034  -5.694  0.00  0.00    +0.046 A 
ENDBRANCH  10  12
BRANCH   6  22
ATOM     22  C   UNL     1       1.425  -2.285   2.558  0.00  0.00    -0.017 A 
ATOM     23  C   UNL     1       2.479  -1.523   3.025  0.00  0.00    +0.006 A 
ATOM     24  C   UNL     1       3.121  -1.874   4.198  0.00  0.00    +0.000 A 
ATOM     25  C   UNL     1       2.707  -2.987   4.905  0.00  0.00    +0.000 A 
ATOM     26  C   UNL     1       1.653  -3.750   4.439  0.00  0.00    +0.000 A 
ATOM     27  C   UNL     1       1.008  -3.396   3.268  0.00  0.00    +0.006 A 
ENDBRANCH   6  22
TORSDOF 2
