REMARK  Name = ZINC09985774
REMARK  11 active torsions:
REMARK  status: ('A' for Active; 'I' for Inactive)
REMARK    1  A    between atoms: C_1  and  C_2
REMARK    2  A    between atoms: C_2  and  O_3
REMARK    3  A    between atoms: O_3  and  C_4
REMARK    4  A    between atoms: C_6  and  C_11
REMARK    5  A    between atoms: C_9  and  O_10
REMARK    6  A    between atoms: C_16  and  C_21
REMARK    7  A    between atoms: C_27  and  C_39
REMARK    8  A    between atoms: C_28  and  C_29
REMARK    9  A    between atoms: C_29  and  O_31
REMARK   10  A    between atoms: O_31  and  C_32
REMARK   11  A    between atoms: C_32  and  C_33
REMARK                            x       y       z     vdW  Elec       q    Type
REMARK                         _______ _______ _______ _____ _____    ______ ____
ROOT
ATOM      1  C   UNL     1      -2.800   2.272  -2.426  0.00  0.00    +0.092 C 
ATOM      2  C   UNL     1      -2.076   1.783  -1.196  0.00  0.00    +0.024 C 
ATOM      3  C   UNL     1      -0.741   1.585  -1.215  0.00  0.00    +0.016 C 
ATOM      4  C   UNL     1      -0.013   1.086   0.008  0.00  0.00    +0.060 C 
ATOM      5  C   UNL     1      -0.728   1.579   1.268  0.00  0.00    +0.039 C 
ATOM      6  C   UNL     1      -2.174   1.073   1.236  0.00  0.00    +0.088 C 
ATOM      7  C   UNL     1      -2.829   1.545  -0.033  0.00  0.00    +0.162 C 
ATOM      8  O   UNL     1      -4.031   1.722  -0.053  0.00  0.00    -0.292 OA
ATOM      9  N   UNL     1      -0.017   1.837  -2.349  0.00  0.00    -0.321 N 
ATOM     10  C   UNL     1      -0.521   2.641  -3.333  0.00  0.00    +0.016 C 
ATOM     11  C   UNL     1      -1.842   2.881  -3.408  0.00  0.00    +0.065 C 
ATOM     12  C   UNL     1       0.410   3.263  -4.342  0.00  0.00    +0.061 C 
ATOM     13  H   UNL     1       0.980   1.391  -2.476  0.00  0.00    +0.152 HD
ENDROOT
BRANCH   1  16
ATOM     14  C   UNL     1      -5.531   0.055  -3.804  0.00  0.00    +0.162 A 
ATOM     15  C   UNL     1      -4.881   1.121  -3.204  0.00  0.00    +0.054 A 
ATOM     16  C   UNL     1      -3.505   1.110  -3.078  0.00  0.00    -0.032 A 
ATOM     17  C   UNL     1      -2.773   0.039  -3.555  0.00  0.00    +0.008 A 
ATOM     18  C   UNL     1      -3.415  -1.031  -4.150  0.00  0.00    +0.049 A 
ATOM     19  C   UNL     1      -4.795  -1.026  -4.279  0.00  0.00    +0.158 A 
BRANCH  19  20
ATOM     20  O   UNL     1      -5.428  -2.076  -4.868  0.00  0.00    -0.503 OA
ATOM     21  H   UNL     1      -4.845  -2.930  -5.243  0.00  0.00    +0.292 HD
ENDBRANCH  19  20
BRANCH  14  22
ATOM     22  O   UNL     1      -6.885   0.064  -3.928  0.00  0.00    -0.489 OA
BRANCH  22  24
ATOM     23  C   UNL     1      -9.079   1.038  -3.647  0.00  0.00    +0.048 C 
ATOM     24  C   UNL     1      -7.576   1.207  -3.418  0.00  0.00    +0.226 C 
ENDBRANCH  22  24
ENDBRANCH  14  22
ENDBRANCH   1  16
BRANCH   5  25
ATOM     25  C   UNL     1      -0.030   1.039   2.490  0.00  0.00    -0.006 A 
ATOM     26  C   UNL     1       0.560   1.716   3.505  0.00  0.00    +0.011 A 
ATOM     27  C   UNL     1       1.142   1.004   4.537  0.00  0.00    +0.008 A 
ATOM     28  C   UNL     1       1.115  -0.350   4.498  0.00  0.00    +0.045 A 
ATOM     29  S   UNL     1       0.240  -0.658   2.973  0.00  0.00    -0.101 S 
ENDBRANCH   5  25
BRANCH  11  30
ATOM     30  C   UNL     1      -2.338   3.722  -4.430  0.00  0.00    +0.338 C 
ATOM     31  O   UNL     1      -1.571   4.222  -5.232  0.00  0.00    -0.245 OA
BRANCH  30  32
ATOM     32  O   UNL     1      -3.662   3.971  -4.517  0.00  0.00    -0.459 OA
BRANCH  32  33
ATOM     33  C   UNL     1      -4.093   4.830  -5.574  0.00  0.00    +0.264 C 
BRANCH  33  34
ATOM     34  C   UNL     1      -5.612   4.994  -5.511  0.00  0.00    +0.156 C 
ATOM     35  C   UNL     1      -6.100   5.826  -6.716  0.00  0.00    +0.037 C 
ATOM     36  C   UNL     1      -7.206   6.711  -6.080  0.00  0.00    +0.031 C 
ATOM     37  C   UNL     1      -6.621   6.939  -4.663  0.00  0.00    +0.160 C 
ATOM     38  O   UNL     1      -5.976   5.702  -4.321  0.00  0.00    -0.373 OA
ENDBRANCH  33  34
ENDBRANCH  32  33
ENDBRANCH  30  32
ENDBRANCH  11  30
TORSDOF 9
