REMARK  Name = ZINC37561245
REMARK  4 active torsions:
REMARK  status: ('A' for Active; 'I' for Inactive)
REMARK    1  A    between atoms: C_3  and  N_10
REMARK    2  A    between atoms: C_6  and  C_7
REMARK    3  A    between atoms: C_11  and  C_13
REMARK    4  A    between atoms: C_13  and  C_14
REMARK                            x       y       z     vdW  Elec       q    Type
REMARK                         _______ _______ _______ _____ _____    ______ ____
ROOT
ATOM      1  C   UNL     1      -0.019   1.526   0.010  0.00  0.00    +0.016 C 
ATOM      2  C   UNL     1       1.417   2.055  -0.000  0.00  0.00    +0.023 C 
ATOM      3  C   UNL     1       2.133   1.562  -1.259  0.00  0.00    +0.073 C 
ATOM      4  C   UNL     1       2.154   0.032  -1.268  0.00  0.00    +0.023 C 
ATOM      5  C   UNL     1       0.718  -0.497  -1.257  0.00  0.00    +0.016 C 
ATOM      6  C   UNL     1       0.002  -0.004   0.002  0.00  0.00    +0.102 C 
ENDROOT
BRANCH   3   7
ATOM      7  N   UNL     1       1.424   2.047  -2.446  0.00  0.00    -0.312 N 
ATOM      8  C   UNL     1       2.084   2.191  -3.613  0.00  0.00    +0.222 C 
ATOM      9  O   UNL     1       3.264   1.919  -3.680  0.00  0.00    -0.275 OA
ATOM     10  H   UNL     1       0.481   2.265  -2.392  0.00  0.00    +0.149 HD
BRANCH   8  11
ATOM     11  C   UNL     1       1.355   2.691  -4.834  0.00  0.00    +0.208 C 
BRANCH  11  12
ATOM     12  C   UNL     1       2.326   2.762  -6.014  0.00  0.00    +0.398 C 
ATOM     13  F   UNL     1       2.844   1.488  -6.269  0.00  0.00    -0.170 F 
ATOM     14  F   UNL     1       1.649   3.225  -7.147  0.00  0.00    -0.170 F 
ATOM     15  F   UNL     1       3.372   3.638  -5.705  0.00  0.00    -0.170 F 
ENDBRANCH  11  12
ENDBRANCH   8  11
ENDBRANCH   3   7
BRANCH   6  16
ATOM     16  C   UNL     1      -1.412  -0.526   0.013  0.00  0.00    +0.359 C 
ATOM     17  O   UNL     1      -1.672  -1.592  -0.518  0.00  0.00    -0.246 OA
ATOM     18  O   UNL     1      -2.295   0.118   0.553  0.00  0.00    -0.246 OA
ENDBRANCH   6  16
TORSDOF 4
