REMARK  Name = ZINC22310938
REMARK  9 active torsions:
REMARK  status: ('A' for Active; 'I' for Inactive)
REMARK    1  A    between atoms: C_1  and  C_2
REMARK    2  A    between atoms: C_2  and  N_3
REMARK    3  A    between atoms: C_7  and  S_25
REMARK    4  A    between atoms: C_11  and  S_12
REMARK    5  A    between atoms: S_12  and  C_13
REMARK    6  A    between atoms: C_13  and  C_14
REMARK    7  A    between atoms: N_16  and  C_17
REMARK    8  A    between atoms: C_20  and  C_24
REMARK    9  A    between atoms: S_25  and  N_28
REMARK                            x       y       z     vdW  Elec       q    Type
REMARK                         _______ _______ _______ _____ _____    ______ ____
ROOT
ATOM      1  N   UNL     1      -5.687  -2.317   0.309  0.00  0.00    -0.319 N 
ATOM      2  C   UNL     1      -4.706  -1.392  -0.011  0.00  0.00    +0.070 A 
ATOM      3  C   UNL     1      -4.195  -0.908  -1.205  0.00  0.00    +0.030 A 
ATOM      4  C   UNL     1      -3.194   0.042  -1.189  0.00  0.00    +0.030 A 
ATOM      5  C   UNL     1      -2.688   0.508   0.015  0.00  0.00    +0.107 A 
ATOM      6  C   UNL     1      -3.184   0.038   1.211  0.00  0.00    +0.058 A 
ATOM      7  C   UNL     1      -4.201  -0.919   1.212  0.00  0.00    +0.092 A 
ATOM      8  N   UNL     1      -4.878  -1.560   2.200  0.00  0.00    -0.222 NA
ATOM      9  C   UNL     1      -5.752  -2.382   1.673  0.00  0.00    +0.170 A 
ENDROOT
BRANCH   5  10
ATOM     10  S   UNL     1      -1.405   1.716   0.015  0.00  0.00    +0.056 S 
ATOM     11  O   UNL     1      -1.485   2.394   1.262  0.00  0.00    -0.153 OA
ATOM     12  O   UNL     1      -1.488   2.397  -1.229  0.00  0.00    -0.153 OA
BRANCH  10  13
ATOM     13  N   UNL     1       0.036   0.900   0.013  0.00  0.00    -0.204 NA
ATOM     14  H   UNL     1       0.866   1.622   0.013  0.00  0.00    +0.144 HD
ATOM     15  H   UNL     1       0.099   0.269  -0.886  0.00  0.00    +0.144 HD
ENDBRANCH  10  13
ENDBRANCH   5  10
BRANCH   1  17
ATOM     16  C   UNL     1      -7.775  -2.297  -0.964  0.00  0.00    +0.027 C 
ATOM     17  C   UNL     1      -6.502  -3.082  -0.637  0.00  0.00    +0.121 C 
ENDBRANCH   1  17
BRANCH   9  18
ATOM     18  S   UNL     1      -6.849  -3.416   2.585  0.00  0.00    -0.078 S 
BRANCH  18  19
ATOM     19  C   UNL     1      -6.370  -2.970   4.273  0.00  0.00    +0.173 C 
BRANCH  19  20
ATOM     20  C   UNL     1      -7.201  -3.755   5.255  0.00  0.00    +0.228 C 
ATOM     21  O   UNL     1      -8.035  -4.539   4.854  0.00  0.00    -0.275 OA
ATOM     22  N   UNL     1      -7.018  -3.586   6.579  0.00  0.00    -0.284 N 
ATOM     23  H   UNL     1      -6.213  -2.931   6.944  0.00  0.00    +0.155 HD
BRANCH  22  24
ATOM     24  C   UNL     1      -7.852  -4.243   7.491  0.00  0.00    +0.047 A 
ATOM     25  C   UNL     1      -8.333  -5.513   7.203  0.00  0.00    +0.024 A 
ATOM     26  C   UNL     1      -9.156  -6.159   8.105  0.00  0.00    +0.005 A 
ATOM     27  C   UNL     1      -9.501  -5.543   9.294  0.00  0.00    -0.049 A 
ATOM     28  C   UNL     1      -9.024  -4.278   9.584  0.00  0.00    +0.020 A 
ATOM     29  C   UNL     1      -8.196  -3.628   8.688  0.00  0.00    +0.039 A 
ATOM     30 BR   UNL     1      -7.538  -1.901   9.089  0.00  0.00    -0.048 Br
ATOM     31  C   UNL     1     -10.399  -6.251  10.275  0.00  0.00    +0.044 C 
ENDBRANCH  22  24
ENDBRANCH  19  20
ENDBRANCH  18  19
ENDBRANCH   9  18
TORSDOF 7
