REMARK  Name = ZINC13033029
REMARK  15 active torsions:
REMARK  status: ('A' for Active; 'I' for Inactive)
REMARK    1  A    between atoms: C_1  and  C_2
REMARK    2  A    between atoms: C_7  and  C_15
REMARK    3  A    between atoms: C_13  and  C_14
REMARK    4  A    between atoms: C_15  and  N_71
REMARK    5  A    between atoms: C_16  and  C_17
REMARK    6  A    between atoms: C_16  and  N_71
REMARK    7  A    between atoms: C_17  and  C_18
REMARK    8  A    between atoms: C_21  and  O_26
REMARK    9  A    between atoms: C_22  and  O_24
REMARK   10  A    between atoms: O_24  and  C_25
REMARK   11  A    between atoms: O_26  and  C_27
REMARK   12  A    between atoms: C_28  and  C_29
REMARK   13  A    between atoms: C_28  and  N_71
REMARK   14  A    between atoms: N_33  and  C_34
REMARK   15  A    between atoms: C_34  and  C_35
REMARK                            x       y       z     vdW  Elec       q    Type
REMARK                         _______ _______ _______ _____ _____    ______ ____
ROOT
ATOM      1  N   UNL     1       0.043   1.134  -2.247  0.00  0.00    +0.387 N 
ATOM      2  H   UNL     1       1.056   1.291  -2.204  0.00  0.00    -0.081 HD
ENDROOT
BRANCH   1   3
ATOM      3  C   UNL     1      -0.532   1.996  -3.301  0.00  0.00    -0.037 C 
BRANCH   3  10
ATOM      4  C   UNL     1       3.512   8.868  -3.506  0.00  0.00    +0.044 C 
ATOM      5  C   UNL     1       2.903   7.495  -3.626  0.00  0.00    -0.046 A 
ATOM      6  C   UNL     1       3.466   6.567  -4.491  0.00  0.00    +0.004 A 
ATOM      7  C   UNL     1       2.929   5.316  -4.614  0.00  0.00    +0.010 A 
ATOM      8  C   UNL     1       1.803   4.968  -3.861  0.00  0.00    -0.001 A 
ATOM      9  C   UNL     1       1.205   3.636  -3.965  0.00  0.00    +0.017 A 
ATOM     10  C   UNL     1       0.111   3.357  -3.215  0.00  0.00    +0.001 A 
ATOM     11  C   UNL     1      -0.426   4.334  -2.350  0.00  0.00    +0.251 A 
ATOM     12  O   UNL     1      -1.408   4.061  -1.681  0.00  0.00    -0.268 OA
ATOM     13  N   UNL     1       0.119   5.559  -2.245  0.00  0.00    -0.322 N 
ATOM     14  H   UNL     1      -0.276   6.207  -1.640  0.00  0.00    +0.169 HD
ATOM     15  C   UNL     1       1.229   5.907  -2.983  0.00  0.00    +0.052 A 
ATOM     16  C   UNL     1       1.793   7.174  -2.875  0.00  0.00    -0.024 A 
ATOM     17  C   UNL     1       1.192   8.192  -1.940  0.00  0.00    +0.046 C 
ENDBRANCH   3  10
ENDBRANCH   1   3
BRANCH   1  18
ATOM     18  C   UNL     1      -0.552   1.472  -0.937  0.00  0.00    -0.073 C 
BRANCH  18  19
ATOM     19  C   UNL     1       0.213   0.729   0.159  0.00  0.00    +0.017 C 
BRANCH  19  20
ATOM     20  C   UNL     1      -0.368   1.081   1.504  0.00  0.00    -0.045 A 
ATOM     21  C   UNL     1       0.133   2.158   2.212  0.00  0.00    +0.007 A 
ATOM     22  C   UNL     1      -0.401   2.488   3.444  0.00  0.00    +0.049 A 
ATOM     23  C   UNL     1      -1.433   1.733   3.977  0.00  0.00    +0.161 A 
ATOM     24  C   UNL     1      -1.933   0.646   3.267  0.00  0.00    +0.162 A 
ATOM     25  C   UNL     1      -1.398   0.324   2.030  0.00  0.00    +0.053 A 
BRANCH  24  26
ATOM     26  O   UNL     1      -2.947  -0.098   3.786  0.00  0.00    -0.491 OA
ATOM     27  C   UNL     1      -3.410  -1.199   3.001  0.00  0.00    +0.277 C 
ENDBRANCH  24  26
BRANCH  23  28
ATOM     28  O   UNL     1      -1.955   2.054   5.191  0.00  0.00    -0.491 OA
ATOM     29  C   UNL     1      -1.392   3.182   5.862  0.00  0.00    +0.277 C 
ENDBRANCH  23  28
ENDBRANCH  19  20
ENDBRANCH  18  19
ENDBRANCH   1  18
BRANCH   1  30
ATOM     30  C   UNL     1      -0.210  -0.288  -2.564  0.00  0.00    +0.001 C 
BRANCH  30  31
ATOM     31  C   UNL     1       0.674  -0.692  -3.716  0.00  0.00    +0.136 A 
ATOM     32  N   UNL     1       0.352  -0.694  -4.987  0.00  0.00    -0.115 NA
ATOM     33  N   UNL     1       1.376  -1.100  -5.656  0.00  0.00    -0.023 NA
ATOM     34  N   UNL     1       2.340  -1.365  -4.844  0.00  0.00    -0.044 NA
ATOM     35  N   UNL     1       1.946  -1.126  -3.639  0.00  0.00    -0.224 N 
BRANCH  35  36
ATOM     36  C   UNL     1       2.736  -1.294  -2.417  0.00  0.00    +0.221 C 
BRANCH  36  37
ATOM     37  C   UNL     1       2.542  -2.690  -1.883  0.00  0.00    +0.126 A 
ATOM     38  C   UNL     1       3.286  -3.765  -2.203  0.00  0.00    +0.046 A 
ATOM     39  C   UNL     1       2.761  -4.857  -1.475  0.00  0.00    +0.041 A 
ATOM     40  C   UNL     1       1.723  -4.387  -0.760  0.00  0.00    +0.195 A 
ATOM     41  O   UNL     1       1.595  -3.074  -1.011  0.00  0.00    -0.466 OA
ENDBRANCH  36  37
ENDBRANCH  35  36
ENDBRANCH  30  31
ENDBRANCH   1  30
TORSDOF 11
