REMARK  Name = ZINC02758144
REMARK  7 active torsions:
REMARK  status: ('A' for Active; 'I' for Inactive)
REMARK    1  A    between atoms: C_1  and  C_2
REMARK    2  A    between atoms: C_2  and  C_3
REMARK    3  A    between atoms: C_3  and  C_5
REMARK    4  A    between atoms: C_3  and  S_21
REMARK    5  A    between atoms: S_21  and  C_22
REMARK    6  A    between atoms: N_32  and  C_33
REMARK    7  A    between atoms: C_33  and  C_34
REMARK                            x       y       z     vdW  Elec       q    Type
REMARK                         _______ _______ _______ _____ _____    ______ ____
ROOT
ATOM      1  C   UNL     1       0.631  10.256  -0.175  0.00  0.00    +0.141 C 
ENDROOT
BRANCH   1   2
ATOM      2  C   UNL     1       1.312  11.600  -0.202  0.00  0.00    +0.238 C 
ATOM      3  O   UNL     1       2.508  11.670  -0.395  0.00  0.00    -0.274 OA
ATOM      4  N   UNL     1       0.594  12.724  -0.011  0.00  0.00    -0.237 N 
ATOM      5  C   UNL     1       1.198  13.966  -0.241  0.00  0.00    +0.055 A 
ATOM      6  C   UNL     1       2.526  14.173   0.086  0.00  0.00    +0.025 A 
ATOM      7  C   UNL     1       3.114  15.403  -0.147  0.00  0.00    +0.002 A 
ATOM      8  C   UNL     1       2.385  16.432  -0.713  0.00  0.00    +0.001 A 
ATOM      9  C   UNL     1       1.056  16.237  -1.050  0.00  0.00    +0.017 A 
ATOM     10  C   UNL     1       0.464  15.009  -0.818  0.00  0.00    +0.035 A 
ATOM     11  S   UNL     1      -1.229  14.730  -1.238  0.00  0.00    -0.086 S 
ATOM     12  C   UNL     1      -1.708  13.494  -0.071  0.00  0.00    +0.035 A 
ATOM     13  C   UNL     1      -0.736  12.618   0.418  0.00  0.00    +0.055 A 
ATOM     14  C   UNL     1      -1.099  11.643   1.335  0.00  0.00    +0.025 A 
ATOM     15  C   UNL     1      -2.413  11.545   1.755  0.00  0.00    +0.002 A 
ATOM     16  C   UNL     1      -3.372  12.414   1.268  0.00  0.00    +0.001 A 
ATOM     17  C   UNL     1      -3.020  13.392   0.352  0.00  0.00    +0.017 A 
ENDBRANCH   1   2
BRANCH   1  19
ATOM     18  C   UNL     1       2.280   9.557  -1.916  0.00  0.00    +0.005 C 
ATOM     19  C   UNL     1       0.799   9.572  -1.533  0.00  0.00    +0.020 C 
ENDBRANCH   1  19
BRANCH   1  20
ATOM     20  S   UNL     1       1.375   9.228   1.115  0.00  0.00    -0.072 S 
BRANCH  20  21
ATOM     21  C   UNL     1       0.155   7.962   1.239  0.00  0.00    +0.212 A 
ATOM     22  N   UNL     1       0.321   6.983   2.118  0.00  0.00    -0.201 NA
ATOM     23  C   UNL     1      -0.600   6.028   2.210  0.00  0.00    +0.165 A 
ATOM     24  C   UNL     1      -1.724   6.099   1.361  0.00  0.00    +0.138 A 
ATOM     25  C   UNL     1      -2.558   4.928   1.680  0.00  0.00    +0.029 A 
ATOM     26  C   UNL     1      -3.773   4.452   1.191  0.00  0.00    +0.012 A 
ATOM     27  C   UNL     1      -4.311   3.292   1.704  0.00  0.00    +0.001 A 
ATOM     28  C   UNL     1      -3.653   2.604   2.712  0.00  0.00    +0.002 A 
ATOM     29  C   UNL     1      -2.450   3.063   3.205  0.00  0.00    +0.026 A 
ATOM     30  C   UNL     1      -1.888   4.230   2.697  0.00  0.00    +0.053 A 
ATOM     31  N   UNL     1      -0.718   4.909   2.996  0.00  0.00    -0.320 N 
ATOM     32  N   UNL     1      -1.831   7.103   0.504  0.00  0.00    -0.143 NA
ATOM     33  N   UNL     1      -0.913   8.007   0.449  0.00  0.00    -0.122 NA
BRANCH  31  34
ATOM     34  C   UNL     1       0.255   4.492   4.009  0.00  0.00    +0.150 C 
BRANCH  34  35
ATOM     35  C   UNL     1       1.281   3.587   3.377  0.00  0.00    -0.013 C 
ATOM     36  C   UNL     1       2.555   3.874   3.474  0.00  0.00    +0.005 C 
ENDBRANCH  34  35
ENDBRANCH  31  34
ENDBRANCH  20  21
ENDBRANCH   1  20
TORSDOF 6
