REMARK  Name = ZINC10602533
REMARK  12 active torsions:
REMARK  status: ('A' for Active; 'I' for Inactive)
REMARK    1  A    between atoms: C_1  and  C_2
REMARK    2  A    between atoms: C_2  and  C_3
REMARK    3  A    between atoms: C_2  and  N_4
REMARK    4  A    between atoms: N_4  and  S_5
REMARK    5  A    between atoms: S_5  and  C_8
REMARK    6  A    between atoms: C_11  and  C_14
REMARK    7  A    between atoms: C_14  and  O_16
REMARK    8  A    between atoms: O_16  and  C_17
REMARK    9  A    between atoms: C_17  and  C_18
REMARK   10  A    between atoms: N_20  and  C_21
REMARK   11  A    between atoms: N_20  and  C_22
REMARK   12  A    between atoms: C_22  and  C_23
REMARK                            x       y       z     vdW  Elec       q    Type
REMARK                         _______ _______ _______ _____ _____    ______ ____
ROOT
ATOM      1  C   UNL     1       0.120  -2.984   8.174  0.00  0.00    +0.105 A 
ATOM      2  C   UNL     1       0.103  -1.613   8.366  0.00  0.00    +0.029 A 
ATOM      3  C   UNL     1       0.081  -0.762   7.282  0.00  0.00    +0.017 A 
ATOM      4  C   UNL     1       0.076  -1.285   5.987  0.00  0.00    +0.059 A 
ATOM      5  C   UNL     1       0.087  -2.669   5.800  0.00  0.00    +0.017 A 
ATOM      6  C   UNL     1       0.115  -3.509   6.894  0.00  0.00    +0.029 A 
ENDROOT
BRANCH   1   7
ATOM      7  S   UNL     1       0.147  -4.064   9.565  0.00  0.00    +0.059 S 
ATOM      8  O   UNL     1       0.711  -5.289   9.117  0.00  0.00    -0.153 OA
ATOM      9  O   UNL     1       0.699  -3.323  10.645  0.00  0.00    -0.153 OA
BRANCH   7  10
ATOM     10  N   UNL     1      -1.427  -4.386   9.967  0.00  0.00    -0.187 NA
ATOM     11  H   UNL     1      -1.781  -4.086  10.818  0.00  0.00    +0.148 HD
BRANCH  10  13
ATOM     12  C   UNL     1      -2.270  -6.611   9.400  0.00  0.00    +0.025 C 
ATOM     13  C   UNL     1      -2.284  -5.125   9.036  0.00  0.00    +0.070 C 
ATOM     14  C   UNL     1      -3.715  -4.590   9.127  0.00  0.00    +0.025 C 
ENDBRANCH  10  13
ENDBRANCH   7  10
ENDBRANCH   1   7
BRANCH   4  15
ATOM     15  C   UNL     1       0.053  -0.379   4.821  0.00  0.00    +0.340 C 
ATOM     16  O   UNL     1       0.038   0.824   4.986  0.00  0.00    -0.245 OA
BRANCH  15  17
ATOM     17  O   UNL     1       0.048  -0.887   3.573  0.00  0.00    -0.452 OA
BRANCH  17  18
ATOM     18  C   UNL     1       0.025   0.062   2.475  0.00  0.00    +0.328 C 
BRANCH  18  19
ATOM     19  C   UNL     1       0.022  -0.684   1.165  0.00  0.00    +0.253 C 
ATOM     20  O   UNL     1       0.039  -1.897   1.159  0.00  0.00    -0.272 OA
ATOM     21  N   UNL     1       0.002  -0.004   0.002  0.00  0.00    -0.297 N 
ATOM     22  C   UNL     1      -0.018   1.461   0.010  0.00  0.00    +0.132 C 
BRANCH  21  23
ATOM     23  C   UNL     1      -0.000  -0.730  -1.271  0.00  0.00    +0.149 C 
BRANCH  23  24
ATOM     24  C   UNL     1       1.420  -0.959  -1.720  0.00  0.00    +0.007 A 
ATOM     25  C   UNL     1       2.243  -2.001  -1.449  0.00  0.00    +0.013 A 
ATOM     26  C   UNL     1       3.520  -2.002  -1.979  0.00  0.00    +0.008 A 
ATOM     27  C   UNL     1       3.914  -0.955  -2.745  0.00  0.00    +0.045 A 
ATOM     28  S   UNL     1       2.456   0.075  -2.742  0.00  0.00    -0.100 S 
ENDBRANCH  23  24
ENDBRANCH  21  23
ENDBRANCH  18  19
ENDBRANCH  17  18
ENDBRANCH  15  17
ENDBRANCH   4  15
TORSDOF 9
