REMARK  Name = ZINC03830747
REMARK  12 active torsions:
REMARK  status: ('A' for Active; 'I' for Inactive)
REMARK    1  A    between atoms: C_1  and  C_2
REMARK    2  A    between atoms: C_2  and  C_3
REMARK    3  A    between atoms: C_11  and  O_38
REMARK    4  A    between atoms: C_12  and  O_36
REMARK    5  A    between atoms: C_18  and  C_20
REMARK    6  A    between atoms: C_20  and  C_21
REMARK    7  A    between atoms: C_25  and  O_34
REMARK    8  A    between atoms: C_26  and  O_32
REMARK    9  A    between atoms: O_32  and  C_33
REMARK   10  A    between atoms: O_34  and  C_35
REMARK   11  A    between atoms: O_36  and  C_37
REMARK   12  A    between atoms: O_38  and  C_39
REMARK                            x       y       z     vdW  Elec       q    Type
REMARK                         _______ _______ _______ _____ _____    ______ ____
ROOT
ATOM      1  C   UNL     1       0.718  -0.497  -1.257  0.00  0.00    -0.025 C 
ATOM      2  C   UNL     1       2.188  -0.073  -1.207  0.00  0.00    -0.074 C 
ATOM      3  N   UNL     1       2.875  -0.554  -2.412  0.00  0.00    +0.385 N 
ATOM      4  C   UNL     1       4.265  -0.081  -2.420  0.00  0.00    -0.073 C 
ATOM      5  C   UNL     1       4.854  -0.322  -3.811  0.00  0.00    +0.017 C 
ATOM      6  C   UNL     1       4.609  -1.749  -4.233  0.00  0.00    -0.044 A 
ATOM      7  C   UNL     1       5.346  -2.264  -5.288  0.00  0.00    +0.053 A 
ATOM      8  C   UNL     1       5.149  -3.568  -5.708  0.00  0.00    +0.162 A 
ATOM      9  C   UNL     1       4.204  -4.363  -5.066  0.00  0.00    +0.162 A 
ATOM     10  C   UNL     1       3.472  -3.844  -4.013  0.00  0.00    +0.051 A 
ATOM     11  C   UNL     1       3.675  -2.538  -3.594  0.00  0.00    -0.054 A 
ATOM     12  C   UNL     1       2.864  -2.018  -2.438  0.00  0.00    -0.037 C 
ATOM     13  C   UNL     1       1.422  -2.519  -2.544  0.00  0.00    -0.007 C 
ATOM     14  C   UNL     1       0.631  -2.024  -1.329  0.00  0.00    -0.012 C 
ATOM     15  H   UNL     1       2.401  -0.202  -3.230  0.00  0.00    -0.081 HD
ENDROOT
BRANCH   1  17
ATOM     16  C   UNL     1      -0.019   1.526   0.010  0.00  0.00    +0.004 C 
ATOM     17  C   UNL     1       0.002  -0.004   0.002  0.00  0.00    -0.002 C 
ENDBRANCH   1  17
BRANCH   9  18
ATOM     18  O   UNL     1       4.001  -5.645  -5.472  0.00  0.00    -0.491 OA
ATOM     19  C   UNL     1       3.016  -6.401  -4.766  0.00  0.00    +0.277 C 
ENDBRANCH   9  18
BRANCH   8  20
ATOM     20  O   UNL     1       5.874  -4.069  -6.743  0.00  0.00    -0.491 OA
ATOM     21  C   UNL     1       6.825  -3.194  -7.353  0.00  0.00    +0.277 C 
ENDBRANCH   8  20
BRANCH  14  22
ATOM     22  C   UNL     1      -0.833  -2.446  -1.465  0.00  0.00    -0.008 C 
BRANCH  22  23
ATOM     23  C   UNL     1      -0.931  -3.972  -1.412  0.00  0.00    -0.040 C 
ATOM     24  C   UNL     1      -2.353  -4.388  -1.682  0.00  0.00    -0.055 A 
ATOM     25  C   UNL     1      -3.059  -3.725  -2.676  0.00  0.00    +0.051 A 
ATOM     26  C   UNL     1      -4.366  -4.077  -2.961  0.00  0.00    +0.162 A 
ATOM     27  C   UNL     1      -4.976  -5.102  -2.244  0.00  0.00    +0.162 A 
ATOM     28  C   UNL     1      -4.270  -5.760  -1.253  0.00  0.00    +0.053 A 
ATOM     29  C   UNL     1      -2.960  -5.403  -0.972  0.00  0.00    -0.044 A 
ATOM     30  C   UNL     1      -2.230  -6.141   0.121  0.00  0.00    +0.016 C 
ATOM     31  C   UNL     1      -0.726  -5.888   0.003  0.00  0.00    -0.077 C 
ATOM     32  N   UNL     1      -0.501  -4.438  -0.090  0.00  0.00    +0.384 N 
ATOM     33  H   UNL     1       0.480  -4.241   0.034  0.00  0.00    -0.085 HD
ATOM     34  H   UNL     1      -1.035  -3.966   0.624  0.00  0.00    -0.085 HD
BRANCH  27  35
ATOM     35  O   UNL     1      -6.261  -5.456  -2.517  0.00  0.00    -0.491 OA
ATOM     36  C   UNL     1      -6.820  -6.518  -1.741  0.00  0.00    +0.277 C 
ENDBRANCH  27  35
BRANCH  26  37
ATOM     37  O   UNL     1      -5.052  -3.423  -3.936  0.00  0.00    -0.491 OA
ATOM     38  C   UNL     1      -4.361  -2.382  -4.629  0.00  0.00    +0.277 C 
ENDBRANCH  26  37
ENDBRANCH  22  23
ENDBRANCH  14  22
TORSDOF 7
