REMARK  Name = ZINC02701386
REMARK  5 active torsions:
REMARK  status: ('A' for Active; 'I' for Inactive)
REMARK    1  A    between atoms: C_3  and  C_6
REMARK    2  A    between atoms: C_8  and  C_20
REMARK    3  A    between atoms: C_10  and  C_15
REMARK    4  A    between atoms: C_10  and  O_19
REMARK    5  A    between atoms: C_20  and  C_22
REMARK                            x       y       z     vdW  Elec       q    Type
REMARK                         _______ _______ _______ _____ _____    ______ ____
ROOT
ATOM      1  C   UNL     1       3.761   1.845  -0.024  0.00  0.00    +0.127 C 
ATOM      2  C   UNL     1       4.342   1.772   1.391  0.00  0.00    +0.145 C 
ATOM      3  C   UNL     1       5.817   2.185   1.335  0.00  0.00    +0.243 C 
ATOM      4  N   UNL     1       6.516   1.339   0.366  0.00  0.00    -0.264 N 
ATOM      5  C   UNL     1       5.877   0.815  -0.691  0.00  0.00    +0.302 C 
ATOM      6  O   UNL     1       6.506   0.127  -1.472  0.00  0.00    -0.253 OA
ATOM      7  N   UNL     1       4.571   1.019  -0.921  0.00  0.00    -0.291 N 
ATOM      8  H   UNL     1       7.460   1.154   0.490  0.00  0.00    +0.153 HD
ATOM      9  H   UNL     1       4.154   0.610  -1.696  0.00  0.00    +0.151 HD
ENDROOT
BRANCH   1  12
ATOM     10  C   UNL     1      -0.016   1.351   0.009  0.00  0.00    +0.008 A 
ATOM     11  C   UNL     1       1.183   2.038   0.002  0.00  0.00    +0.013 A 
ATOM     12  C   UNL     1       2.343   1.336  -0.013  0.00  0.00    +0.011 A 
ATOM     13  S   UNL     1       1.754  -0.349  -0.017  0.00  0.00    -0.100 S 
ATOM     14  C   UNL     1       0.002  -0.004   0.002  0.00  0.00    +0.045 A 
ENDBRANCH   1  12
BRANCH   3  15
ATOM     15  C   UNL     1       5.922   3.649   0.905  0.00  0.00    +0.436 C 
ATOM     16  F   UNL     1       5.248   4.456   1.828  0.00  0.00    -0.166 F 
ATOM     17  F   UNL     1       7.269   4.025   0.853  0.00  0.00    -0.166 F 
ATOM     18  F   UNL     1       5.346   3.806  -0.360  0.00  0.00    -0.166 F 
ENDBRANCH   3  15
BRANCH   3  19
ATOM     19  O   UNL     1       6.409   2.021   2.625  0.00  0.00    -0.364 OA
ATOM     20  H   UNL     1       7.344   2.264   2.663  0.00  0.00    +0.212 HD
ENDBRANCH   3  19
BRANCH   2  21
ATOM     21  C   UNL     1       4.227   0.364   1.914  0.00  0.00    +0.180 C 
ATOM     22  O   UNL     1       5.162  -0.403   1.804  0.00  0.00    -0.291 OA
BRANCH  21  23
ATOM     23  C   UNL     1       3.031  -0.065   2.531  0.00  0.00    +0.055 A 
ATOM     24  C   UNL     1       2.722  -1.306   3.080  0.00  0.00    +0.019 A 
ATOM     25  C   UNL     1       1.464  -1.423   3.614  0.00  0.00    +0.008 A 
ATOM     26  C   UNL     1       0.627  -0.355   3.575  0.00  0.00    +0.046 A 
ATOM     27  S   UNL     1       1.525   0.846   2.818  0.00  0.00    -0.094 S 
ENDBRANCH  21  23
ENDBRANCH   2  21
TORSDOF 5
