REMARK  Name = ZINC59677938
REMARK  15 active torsions:
REMARK  status: ('A' for Active; 'I' for Inactive)
REMARK    1  A    between atoms: C_1  and  C_2
REMARK    2  A    between atoms: C_2  and  N_3
REMARK    3  A    between atoms: N_3  and  C_4
REMARK    4  A    between atoms: N_3  and  C_6
REMARK    5  A    between atoms: C_4  and  C_5
REMARK    6  A    between atoms: C_9  and  C_11
REMARK    7  A    between atoms: C_18  and  C_36
REMARK    8  A    between atoms: C_19  and  C_31
REMARK    9  A    between atoms: C_20  and  C_22
REMARK   10  A    between atoms: C_25  and  C_28
REMARK   11  A    between atoms: C_28  and  C_29
REMARK   12  A    between atoms: C_28  and  C_30
REMARK   13  A    between atoms: C_31  and  O_33
REMARK   14  A    between atoms: O_33  and  C_34
REMARK   15  A    between atoms: C_34  and  C_35
REMARK                            x       y       z     vdW  Elec       q    Type
REMARK                         _______ _______ _______ _____ _____    ______ ____
ROOT
ATOM      1  C   UNL     1      -3.011  -0.809  -4.299  0.00  0.00    +0.067 C 
ATOM      2  C   UNL     1      -4.063  -0.396  -3.508  0.00  0.00    +0.084 A 
ATOM      3  C   UNL     1      -5.437  -0.274  -3.831  0.00  0.00    +0.268 A 
ATOM      4  O   UNL     1      -5.858  -0.548  -4.942  0.00  0.00    -0.266 OA
ATOM      5  N   UNL     1      -6.251   0.156  -2.857  0.00  0.00    -0.275 N 
ATOM      6  C   UNL     1      -5.699   0.443  -1.633  0.00  0.00    +0.178 A 
ATOM      7  N   UNL     1      -6.392   0.872  -0.604  0.00  0.00    -0.228 NA
ATOM      8  C   UNL     1      -7.701   1.082  -0.606  0.00  0.00    +0.053 C 
ATOM      9  C   UNL     1      -8.442   0.855  -1.733  0.00  0.00    +0.085 C 
ATOM     10  C   UNL     1      -7.721   0.360  -2.966  0.00  0.00    +0.162 C 
ATOM     11  C   UNL     1      -8.379   1.577   0.646  0.00  0.00    +0.066 C 
ATOM     12  S   UNL     1      -4.059   0.120  -1.801  0.00  0.00    -0.046 S 
ENDROOT
BRANCH  10  13
ATOM     13  C   UNL     1      -7.971   1.347  -4.077  0.00  0.00    -0.020 A 
ATOM     14  C   UNL     1      -7.137   2.438  -4.233  0.00  0.00    +0.006 A 
ATOM     15  C   UNL     1      -7.367   3.343  -5.252  0.00  0.00    +0.004 A 
ATOM     16  C   UNL     1      -8.430   3.157  -6.116  0.00  0.00    -0.045 A 
ATOM     17  C   UNL     1      -9.263   2.065  -5.961  0.00  0.00    +0.004 A 
ATOM     18  C   UNL     1      -9.031   1.158  -4.944  0.00  0.00    +0.006 A 
BRANCH  16  19
ATOM     19  C   UNL     1      -8.680   4.145  -7.226  0.00  0.00    +0.013 C 
ATOM     20  C   UNL     1      -8.603   3.426  -8.575  0.00  0.00    +0.012 C 
ATOM     21  C   UNL     1     -10.070   4.761  -7.056  0.00  0.00    +0.012 C 
ENDBRANCH  16  19
ENDBRANCH  10  13
BRANCH   1  25
ATOM     22  C   UNL     1      -0.030  -0.710  -2.359  0.00  0.00    +0.189 A 
ATOM     23  C   UNL     1       0.490  -1.155  -3.541  0.00  0.00    +0.066 A 
ATOM     24  C   UNL     1      -0.569  -1.256  -4.446  0.00  0.00    +0.051 A 
ATOM     25  C   UNL     1      -1.711  -0.862  -3.768  0.00  0.00    +0.131 A 
ATOM     26  O   UNL     1      -1.354  -0.542  -2.503  0.00  0.00    -0.442 OA
BRANCH  22  27
ATOM     27  N   UNL     1       0.688  -0.476  -1.203  0.00  0.00    -0.302 N 
BRANCH  27  29
ATOM     28  C   UNL     1      -0.019   1.526   0.010  0.00  0.00    +0.024 C 
ATOM     29  C   UNL     1       0.002  -0.004   0.002  0.00  0.00    +0.104 C 
ENDBRANCH  27  29
BRANCH  27  30
ATOM     30  C   UNL     1       2.135  -0.701  -1.182  0.00  0.00    +0.104 C 
ATOM     31  C   UNL     1       2.421  -2.145  -0.763  0.00  0.00    +0.024 C 
ENDBRANCH  27  30
ENDBRANCH  22  27
ENDBRANCH   1  25
BRANCH   9  32
ATOM     32  C   UNL     1      -9.828   1.074  -1.744  0.00  0.00    +0.339 C 
ATOM     33  O   UNL     1     -10.389   1.473  -0.739  0.00  0.00    -0.245 OA
BRANCH  32  34
ATOM     34  O   UNL     1     -10.540   0.843  -2.869  0.00  0.00    -0.462 OA
BRANCH  34  35
ATOM     35  C   UNL     1     -11.946   1.087  -2.808  0.00  0.00    +0.229 C 
ATOM     36  C   UNL     1     -12.578   0.771  -4.165  0.00  0.00    +0.048 C 
ENDBRANCH  34  35
ENDBRANCH  32  34
ENDBRANCH   9  32
TORSDOF 9
