REMARK  Name = ZINC19312884
REMARK  6 active torsions:
REMARK  status: ('A' for Active; 'I' for Inactive)
REMARK    1  A    between atoms: C_1  and  O_2
REMARK    2  A    between atoms: O_2  and  C_3
REMARK    3  A    between atoms: C_8  and  O_9
REMARK    4  A    between atoms: O_9  and  C_10
REMARK    5  A    between atoms: C_18  and  C_20
REMARK    6  A    between atoms: C_23  and  N_26
REMARK                            x       y       z     vdW  Elec       q    Type
REMARK                         _______ _______ _______ _____ _____    ______ ____
ROOT
ATOM      1  C   UNL     1       0.626  -0.619   1.042  0.00  0.00    +0.162 A 
ATOM      2  C   UNL     1       1.202   0.134   2.050  0.00  0.00    +0.055 A 
ATOM      3  C   UNL     1       1.840  -0.487   3.113  0.00  0.00    -0.019 A 
ATOM      4  C   UNL     1       1.905  -1.864   3.166  0.00  0.00    -0.031 A 
ATOM      5  C   UNL     1       1.327  -2.623   2.159  0.00  0.00    +0.054 A 
ATOM      6  C   UNL     1       0.684  -2.008   1.100  0.00  0.00    +0.162 A 
ATOM      7  C   UNL     1       2.599  -2.575   4.297  0.00  0.00    +0.009 C 
ATOM      8  C   UNL     1       3.959  -3.114   3.814  0.00  0.00    +0.013 C 
ATOM      9  C   UNL     1       4.102  -4.479   4.534  0.00  0.00    +0.001 C 
ATOM     10  C   UNL     1       2.655  -5.033   4.508  0.00  0.00    +0.001 C 
ATOM     11  C   UNL     1       1.769  -3.790   4.739  0.00  0.00    +0.013 C 
ATOM     12  C   UNL     1       2.809  -1.630   5.477  0.00  0.00    +0.093 C 
ATOM     13  N   UNL     1       3.418  -0.387   4.978  0.00  0.00    -0.305 NA
ATOM     14  C   UNL     1       2.446   0.376   4.189  0.00  0.00    +0.115 C 
ATOM     15  H   UNL     1       3.782   0.168   5.738  0.00  0.00    +0.123 HD
ENDROOT
BRANCH  14  16
ATOM     16  C   UNL     1       3.137   1.553   3.551  0.00  0.00    -0.026 A 
ATOM     17  C   UNL     1       4.397   1.401   3.002  0.00  0.00    +0.008 A 
ATOM     18  C   UNL     1       5.031   2.480   2.417  0.00  0.00    +0.033 A 
ATOM     19  C   UNL     1       4.406   3.713   2.380  0.00  0.00    +0.126 A 
ATOM     20  C   UNL     1       3.146   3.865   2.929  0.00  0.00    +0.033 A 
ATOM     21  C   UNL     1       2.510   2.784   3.510  0.00  0.00    +0.008 A 
BRANCH  19  22
ATOM     22  N   UNL     1       5.086   4.869   1.754  0.00  0.00    +0.056 N 
ATOM     23  O   UNL     1       6.188   4.736   1.275  0.00  0.00    -0.126 OA
ATOM     24  O   UNL     1       4.539   5.947   1.722  0.00  0.00    -0.126 OA
ENDBRANCH  19  22
ENDBRANCH  14  16
BRANCH   1  26
ATOM     25  C   UNL     1      -0.017   1.425   0.010  0.00  0.00    +0.277 C 
ATOM     26  O   UNL     1       0.002  -0.004   0.002  0.00  0.00    -0.491 OA
ENDBRANCH   1  26
BRANCH   6  27
ATOM     27  O   UNL     1       0.115  -2.757   0.118  0.00  0.00    -0.491 OA
ATOM     28  C   UNL     1       0.214  -4.177   0.245  0.00  0.00    +0.277 C 
ENDBRANCH   6  27
TORSDOF 4
