REMARK  Name = ZINC43681708
REMARK  6 active torsions:
REMARK  status: ('A' for Active; 'I' for Inactive)
REMARK    1  A    between atoms: C_1  and  C_2
REMARK    2  A    between atoms: C_4  and  N_20
REMARK    3  A    between atoms: N_5  and  C_7
REMARK    4  A    between atoms: C_7  and  C_9
REMARK    5  A    between atoms: C_7  and  C_10
REMARK    6  A    between atoms: C_15  and  C_16
REMARK                            x       y       z     vdW  Elec       q    Type
REMARK                         _______ _______ _______ _____ _____    ______ ____
ROOT
ATOM      1  C   UNL     1       0.054  -3.291   1.500  0.00  0.00    +0.137 C 
ATOM      2  C   UNL     1      -1.191  -3.292   2.389  0.00  0.00    +0.038 C 
ENDROOT
BRANCH   1   7
ATOM      3  C   UNL     1      -0.018   1.503   0.010  0.00  0.00    +0.068 C 
ATOM      4  C   UNL     1       0.002  -0.004   0.002  0.00  0.00    +0.075 A 
ATOM      5  C   UNL     1       0.008  -0.815  -1.136  0.00  0.00    +0.075 A 
ATOM      6  C   UNL     1       0.028  -2.113  -0.724  0.00  0.00    +0.129 A 
ATOM      7  N   UNL     1       0.034  -2.109   0.634  0.00  0.00    -0.243 N 
ATOM      8  N   UNL     1       0.023  -0.775   1.059  0.00  0.00    -0.173 NA
ATOM      9  I   UNL     1      -0.011  -0.152  -3.124  0.00  0.00    -0.038 I 
BRANCH   6  10
ATOM     10  N   UNL     1       0.040  -3.238  -1.545  0.00  0.00    -0.342 N 
ATOM     11  H   UNL     1       0.034  -3.135  -2.509  0.00  0.00    +0.144 HD
ATOM     12  H   UNL     1       0.053  -4.125  -1.152  0.00  0.00    +0.144 HD
ENDBRANCH   6  10
ENDBRANCH   1   7
BRANCH   1  13
ATOM     13  C   UNL     1       1.289  -3.259   2.364  0.00  0.00    -0.012 A 
ATOM     14  C   UNL     1       1.494  -2.207   3.237  0.00  0.00    +0.006 A 
ATOM     15  C   UNL     1       2.627  -2.178   4.030  0.00  0.00    +0.000 A 
ATOM     16  C   UNL     1       3.553  -3.201   3.950  0.00  0.00    +0.001 A 
ATOM     17  C   UNL     1       3.347  -4.253   3.078  0.00  0.00    +0.013 A 
ATOM     18  C   UNL     1       2.212  -4.285   2.288  0.00  0.00    +0.060 A 
BRANCH  18  19
ATOM     19  C   UNL     1       1.985  -5.434   1.341  0.00  0.00    +0.418 C 
ATOM     20  F   UNL     1       3.047  -6.339   1.442  0.00  0.00    -0.166 F 
ATOM     21  F   UNL     1       0.788  -6.081   1.670  0.00  0.00    -0.166 F 
ATOM     22  F   UNL     1       1.908  -4.951   0.030  0.00  0.00    -0.166 F 
ENDBRANCH  18  19
ENDBRANCH   1  13
TORSDOF 4
