REMARK  Name = ZINC19335713
REMARK  5 active torsions:
REMARK  status: ('A' for Active; 'I' for Inactive)
REMARK    1  A    between atoms: C_1  and  C_2
REMARK    2  A    between atoms: C_2  and  C_17
REMARK    3  A    between atoms: N_3  and  N_4
REMARK    4  A    between atoms: N_15  and  C_16
REMARK    5  A    between atoms: C_22  and  O_23
REMARK                            x       y       z     vdW  Elec       q    Type
REMARK                         _______ _______ _______ _____ _____    ______ ____
ROOT
ATOM      1  N   UNL     1      -0.175  -2.079   1.134  0.00  0.00    -0.206 N 
ATOM      2  C   UNL     1      -0.381  -2.744   2.317  0.00  0.00    +0.218 A 
ATOM      3  N   UNL     1      -0.275  -2.073   3.437  0.00  0.00    -0.214 NA
ATOM      4  C   UNL     1      -0.464  -2.663   4.635  0.00  0.00    +0.080 A 
ATOM      5  C   UNL     1      -0.352  -1.946   5.830  0.00  0.00    +0.028 A 
ATOM      6  C   UNL     1      -0.553  -2.584   7.022  0.00  0.00    +0.002 A 
ATOM      7  C   UNL     1      -0.867  -3.936   7.065  0.00  0.00    +0.001 A 
ATOM      8  C   UNL     1      -0.984  -4.664   5.913  0.00  0.00    +0.015 A 
ATOM      9  C   UNL     1      -0.785  -4.039   4.683  0.00  0.00    +0.065 A 
ATOM     10  C   UNL     1      -0.898  -4.769   3.413  0.00  0.00    +0.263 A 
ATOM     11  O   UNL     1      -1.172  -5.955   3.389  0.00  0.00    -0.267 OA
ATOM     12  N   UNL     1      -0.692  -4.073   2.271  0.00  0.00    -0.282 N 
ATOM     13  C   UNL     1      -0.798  -4.751   0.977  0.00  0.00    +0.155 C 
ATOM     14  H   UNL     1      -0.166  -2.569   0.297  0.00  0.00    +0.177 HD
ENDROOT
BRANCH   1  17
ATOM     15  C   UNL     1       0.233   1.454   0.012  0.00  0.00    +0.068 C 
ATOM     16  C   UNL     1       0.113  -0.048   0.012  0.00  0.00    +0.067 C 
ATOM     17  N   UNL     1       0.023  -0.692   1.136  0.00  0.00    -0.184 NA
BRANCH  16  18
ATOM     18  C   UNL     1       0.097  -0.786  -1.264  0.00  0.00    +0.040 A 
ATOM     19  C   UNL     1      -1.050  -1.478  -1.660  0.00  0.00    +0.028 A 
ATOM     20  C   UNL     1      -1.058  -2.166  -2.856  0.00  0.00    +0.019 A 
ATOM     21  C   UNL     1       0.067  -2.174  -3.665  0.00  0.00    +0.019 A 
ATOM     22  C   UNL     1       1.207  -1.493  -3.282  0.00  0.00    +0.047 A 
ATOM     23  C   UNL     1       1.230  -0.792  -2.088  0.00  0.00    +0.126 A 
ATOM     24 BR   UNL     1      -2.610  -3.103  -3.393  0.00  0.00    -0.050 Br
BRANCH  23  25
ATOM     25  O   UNL     1       2.349  -0.118  -1.714  0.00  0.00    -0.506 OA
ATOM     26  H   UNL     1       3.004  -0.665  -1.258  0.00  0.00    +0.292 HD
ENDBRANCH  23  25
ENDBRANCH  16  18
ENDBRANCH   1  17
TORSDOF 3
