REMARK  Name = ZINC13637873
REMARK  7 active torsions:
REMARK  status: ('A' for Active; 'I' for Inactive)
REMARK    1  A    between atoms: C_4  and  C_7
REMARK    2  A    between atoms: C_7  and  C_8
REMARK    3  A    between atoms: C_8  and  C_9
REMARK    4  A    between atoms: C_9  and  O_10
REMARK    5  A    between atoms: O_10  and  C_11
REMARK    6  A    between atoms: C_18  and  C_27
REMARK    7  A    between atoms: C_30  and  O_33
REMARK                            x       y       z     vdW  Elec       q    Type
REMARK                         _______ _______ _______ _____ _____    ______ ____
ROOT
ATOM      1  C   UNL     1      -1.483   2.697  -2.010  0.00  0.00    +0.142 A 
ATOM      2  C   UNL     1      -2.728   2.319  -1.544  0.00  0.00    +0.047 A 
ATOM      3  C   UNL     1      -2.828   1.564  -0.390  0.00  0.00    +0.004 A 
ATOM      4  C   UNL     1      -1.689   1.188   0.291  0.00  0.00    +0.006 A 
ATOM      5  C   UNL     1      -0.431   1.561  -0.169  0.00  0.00    -0.016 A 
ATOM      6  C   UNL     1      -0.327   2.317  -1.321  0.00  0.00    +0.074 A 
ATOM      7  N   UNL     1       0.907   2.727  -1.834  0.00  0.00    -0.334 N 
ATOM      8  C   UNL     1       1.994   1.831  -1.439  0.00  0.00    +0.105 C 
ATOM      9  C   UNL     1       2.065   1.758   0.088  0.00  0.00    +0.029 C 
ATOM     10  C   UNL     1       0.765   1.115   0.619  0.00  0.00    +0.049 C 
ATOM     11  C   UNL     1       0.993  -0.369   0.450  0.00  0.00    -0.023 C 
ATOM     12  C   UNL     1       2.273  -0.630   0.361  0.00  0.00    -0.030 C 
ATOM     13  C   UNL     1       3.084   0.647   0.465  0.00  0.00    +0.033 C 
ATOM     14  H   UNL     1       0.866   2.826  -2.837  0.00  0.00    +0.147 HD
ENDROOT
BRANCH   8  15
ATOM     15  C   UNL     1       1.739   0.454  -1.996  0.00  0.00    -0.027 A 
ATOM     16  C   UNL     1       2.785  -0.440  -2.133  0.00  0.00    +0.009 A 
ATOM     17  C   UNL     1       2.552  -1.704  -2.638  0.00  0.00    +0.046 A 
ATOM     18  C   UNL     1       1.270  -2.073  -3.019  0.00  0.00    +0.117 A 
ATOM     19  C   UNL     1       0.224  -1.172  -2.886  0.00  0.00    +0.046 A 
ATOM     20  C   UNL     1       0.460   0.089  -2.375  0.00  0.00    +0.009 A 
BRANCH  18  21
ATOM     21  O   UNL     1       1.040  -3.315  -3.521  0.00  0.00    -0.507 OA
ATOM     22  H   UNL     1       1.128  -3.373  -4.482  0.00  0.00    +0.292 HD
ENDBRANCH  18  21
ENDBRANCH   8  15
BRANCH   1  23
ATOM     23  O   UNL     1      -1.381   3.441  -3.145  0.00  0.00    -0.490 OA
BRANCH  23  24
ATOM     24  C   UNL     1      -2.601   3.794  -3.800  0.00  0.00    +0.229 C 
BRANCH  24  25
ATOM     25  C   UNL     1      -2.288   4.624  -5.047  0.00  0.00    +0.046 C 
BRANCH  25  26
ATOM     26  C   UNL     1      -3.593   5.003  -5.749  0.00  0.00    +0.038 C 
BRANCH  26  30
ATOM     27  C   UNL     1      -2.720   7.319  -9.230  0.00  0.00    +0.000 A 
ATOM     28  C   UNL     1      -2.801   5.942  -9.319  0.00  0.00    +0.000 A 
ATOM     29  C   UNL     1      -3.084   5.192  -8.192  0.00  0.00    +0.003 A 
ATOM     30  C   UNL     1      -3.285   5.820  -6.977  0.00  0.00    -0.047 A 
ATOM     31  C   UNL     1      -3.209   7.197  -6.889  0.00  0.00    +0.003 A 
ATOM     32  C   UNL     1      -2.921   7.947  -8.015  0.00  0.00    +0.000 A 
ENDBRANCH  26  30
ENDBRANCH  25  26
ENDBRANCH  24  25
ENDBRANCH  23  24
ENDBRANCH   1  23
TORSDOF 7
