REMARK  Name = ZINC28056722
REMARK  6 active torsions:
REMARK  status: ('A' for Active; 'I' for Inactive)
REMARK    1  A    between atoms: C_1  and  C_2
REMARK    2  A    between atoms: C_5  and  C_8
REMARK    3  A    between atoms: C_14  and  C_19
REMARK    4  A    between atoms: C_26  and  C_28
REMARK    5  A    between atoms: C_32  and  O_34
REMARK    6  A    between atoms: O_34  and  C_35
REMARK                            x       y       z     vdW  Elec       q    Type
REMARK                         _______ _______ _______ _____ _____    ______ ____
ROOT
ATOM      1  C   UNL     1       2.299   5.119   0.723  0.00  0.00    +0.234 C 
ATOM      2  C   UNL     1       1.015   5.808   0.319  0.00  0.00    +0.025 C 
ATOM      3  C   UNL     1      -0.040   5.067  -0.027  0.00  0.00    +0.050 C 
ATOM      4  C   UNL     1       0.103   3.591  -0.025  0.00  0.00    +0.038 A 
ATOM      5  C   UNL     1      -1.005   2.754  -0.038  0.00  0.00    +0.016 A 
ATOM      6  C   UNL     1      -0.823   1.384  -0.044  0.00  0.00    -0.050 A 
ATOM      7  C   UNL     1       0.454   0.849  -0.026  0.00  0.00    +0.007 A 
ATOM      8  C   UNL     1       1.562   1.676  -0.011  0.00  0.00    +0.046 A 
ATOM      9  C   UNL     1       1.395   3.048  -0.010  0.00  0.00    +0.131 A 
ATOM     10  O   UNL     1       2.456   3.894   0.007  0.00  0.00    -0.479 OA
ATOM     11  C   UNL     1      -2.020   0.469  -0.064  0.00  0.00    +0.044 C 
ATOM     12  N   UNL     1      -1.262   5.636  -0.404  0.00  0.00    -0.282 N 
ATOM     13  C   UNL     1      -1.271   6.992  -0.684  0.00  0.00    +0.240 A 
ATOM     14  N   UNL     1      -2.162   7.743  -1.266  0.00  0.00    -0.092 NA
ATOM     15  N   UNL     1      -1.745   8.962  -1.329  0.00  0.00    -0.021 NA
ATOM     16  N   UNL     1      -0.571   9.066  -0.794  0.00  0.00    -0.042 NA
ATOM     17  N   UNL     1      -0.223   7.790  -0.351  0.00  0.00    -0.201 N 
ATOM     18  C   UNL     1       0.974   7.316   0.330  0.00  0.00    +0.174 C 
ATOM     19  H   UNL     1      -2.164   5.009  -0.468  0.00  0.00    +0.155 HD
ENDROOT
BRANCH   1  24
ATOM     20  C   UNL     1       2.169   4.011   6.393  0.00  0.00    +0.044 C 
ATOM     21  C   UNL     1       2.202   4.300   4.914  0.00  0.00    -0.050 A 
ATOM     22  C   UNL     1       1.448   3.537   4.043  0.00  0.00    +0.004 A 
ATOM     23  C   UNL     1       1.479   3.802   2.687  0.00  0.00    +0.008 A 
ATOM     24  C   UNL     1       2.264   4.830   2.201  0.00  0.00    -0.003 A 
ATOM     25  C   UNL     1       3.023   5.590   3.072  0.00  0.00    +0.008 A 
ATOM     26  C   UNL     1       2.988   5.329   4.428  0.00  0.00    +0.004 A 
ENDBRANCH   1  24
BRANCH  18  27
ATOM     27  C   UNL     1       0.964   7.806   1.755  0.00  0.00    -0.015 A 
ATOM     28  C   UNL     1      -0.065   7.440   2.604  0.00  0.00    +0.006 A 
ATOM     29  C   UNL     1      -0.074   7.884   3.913  0.00  0.00    +0.004 A 
ATOM     30  C   UNL     1       0.940   8.702   4.374  0.00  0.00    +0.045 A 
ATOM     31  C   UNL     1       1.970   9.075   3.523  0.00  0.00    +0.120 A 
ATOM     32  C   UNL     1       1.979   8.624   2.211  0.00  0.00    +0.051 A 
BRANCH  31  33
ATOM     33  O   UNL     1       2.968   9.879   3.974  0.00  0.00    -0.495 OA
ATOM     34  C   UNL     1       2.893  10.305   5.335  0.00  0.00    +0.277 C 
ENDBRANCH  31  33
ENDBRANCH  18  27
TORSDOF 3
