REMARK  Name = ZINC15069489
REMARK  6 active torsions:
REMARK  status: ('A' for Active; 'I' for Inactive)
REMARK    1  A    between atoms: C_5  and  C_7
REMARK    2  A    between atoms: C_7  and  N_8
REMARK    3  A    between atoms: C_19  and  N_53
REMARK    4  A    between atoms: C_23  and  C_24
REMARK    5  A    between atoms: C_23  and  N_53
REMARK    6  A    between atoms: C_24  and  C_25
REMARK                            x       y       z     vdW  Elec       q    Type
REMARK                         _______ _______ _______ _____ _____    ______ ____
ROOT
ATOM      1  N   UNL     1       0.225   5.780   1.404  0.00  0.00    -0.293 N 
ATOM      2  C   UNL     1       1.470   5.963   1.914  0.00  0.00    +0.203 A 
ATOM      3  N   UNL     1       1.644   6.388   3.137  0.00  0.00    -0.230 NA
ATOM      4  C   UNL     1       0.604   6.655   3.922  0.00  0.00    +0.116 A 
ATOM      5  C   UNL     1      -0.720   6.497   3.483  0.00  0.00    +0.076 A 
ATOM      6  C   UNL     1      -0.876   6.035   2.135  0.00  0.00    +0.263 A 
ATOM      7  O   UNL     1      -1.987   5.870   1.661  0.00  0.00    -0.267 OA
ATOM      8  C   UNL     1      -1.761   6.829   4.455  0.00  0.00    -0.023 A 
ATOM      9  C   UNL     1      -1.352   7.252   5.670  0.00  0.00    -0.006 A 
ATOM     10  S   UNL     1       0.419   7.233   5.590  0.00  0.00    -0.073 S 
ATOM     11  C   UNL     1      -2.212   7.650   6.830  0.00  0.00    +0.027 C 
ATOM     12  C   UNL     1      -3.645   7.862   6.319  0.00  0.00    -0.067 C 
ATOM     13  C   UNL     1      -4.036   6.669   5.441  0.00  0.00    -0.011 C 
ATOM     14  C   UNL     1      -3.248   6.708   4.132  0.00  0.00    +0.035 C 
ENDROOT
BRANCH  12  15
ATOM     15  N   UNL     1      -4.571   7.948   7.465  0.00  0.00    +0.381 N 
ATOM     16  H   UNL     1      -4.242   7.327   8.213  0.00  0.00    -0.086 HD
ATOM     17  H   UNL     1      -5.509   7.656   7.165  0.00  0.00    -0.086 HD
BRANCH  15  18
ATOM     18  C   UNL     1      -4.631   9.332   7.972  0.00  0.00    -0.078 C 
BRANCH  18  19
ATOM     19  C   UNL     1      -5.597   9.390   9.156  0.00  0.00    +0.016 C 
BRANCH  19  20
ATOM     20  C   UNL     1      -5.665  10.801   9.681  0.00  0.00    -0.049 A 
ATOM     21  C   UNL     1      -4.795  11.211  10.674  0.00  0.00    +0.005 A 
ATOM     22  C   UNL     1      -4.853  12.507  11.152  0.00  0.00    +0.020 A 
ATOM     23  C   UNL     1      -5.788  13.390  10.643  0.00  0.00    +0.041 A 
ATOM     24  C   UNL     1      -6.662  12.977   9.653  0.00  0.00    +0.020 A 
ATOM     25  C   UNL     1      -6.600  11.683   9.173  0.00  0.00    +0.005 A 
ATOM     26 CL   UNL     1      -5.865  15.016  11.247  0.00  0.00    -0.084 Cl
ENDBRANCH  19  20
ENDBRANCH  18  19
ENDBRANCH  15  18
ENDBRANCH  12  15
BRANCH   1  27
ATOM     27  C   UNL     1       0.077   5.302   0.027  0.00  0.00    +0.181 C 
BRANCH  27  32
ATOM     28  C   UNL     1      -1.218   1.762   0.017  0.00  0.00    +0.003 A 
ATOM     29  C   UNL     1      -0.013   1.076   0.008  0.00  0.00    +0.020 A 
ATOM     30  C   UNL     1       1.169   1.792   0.001  0.00  0.00    +0.111 A 
ATOM     31  N   UNL     1       1.159   3.110   0.007  0.00  0.00    -0.258 NA
ATOM     32  C   UNL     1       0.033   3.795   0.021  0.00  0.00    +0.061 A 
ATOM     33  C   UNL     1      -1.188   3.147   0.029  0.00  0.00    +0.025 A 
ENDBRANCH  27  32
ENDBRANCH   1  27
TORSDOF 6
