REMARK  Name = ZINC31156057
REMARK  17 active torsions:
REMARK  status: ('A' for Active; 'I' for Inactive)
REMARK    1  A    between atoms: C_1  and  C_2
REMARK    2  A    between atoms: C_2  and  C_4
REMARK    3  A    between atoms: C_2  and  O_13
REMARK    4  A    between atoms: C_4  and  C_5
REMARK    5  A    between atoms: C_5  and  C_6
REMARK    6  A    between atoms: C_9  and  O_12
REMARK    7  A    between atoms: O_13  and  C_14
REMARK    8  A    between atoms: C_16  and  O_40
REMARK    9  A    between atoms: C_18  and  O_39
REMARK   10  A    between atoms: C_20  and  O_38
REMARK   11  A    between atoms: C_22  and  C_25
REMARK   12  A    between atoms: C_25  and  O_26
REMARK   13  A    between atoms: O_26  and  C_27
REMARK   14  A    between atoms: C_29  and  O_37
REMARK   15  A    between atoms: C_31  and  C_34
REMARK   16  A    between atoms: C_31  and  O_36
REMARK   17  A    between atoms: C_34  and  O_35
REMARK                            x       y       z     vdW  Elec       q    Type
REMARK                         _______ _______ _______ _____ _____    ______ ____
ROOT
ATOM      1  C   UNL     1       2.099  -0.651   0.967  0.00  0.00    +0.282 C 
ATOM      2  C   UNL     1       2.752  -1.039   2.296  0.00  0.00    +0.201 C 
ATOM      3  C   UNL     1       4.247  -1.282   2.070  0.00  0.00    +0.179 C 
ATOM      4  C   UNL     1       4.421  -2.363   0.999  0.00  0.00    +0.177 C 
ATOM      5  C   UNL     1       3.703  -1.925  -0.280  0.00  0.00    +0.178 C 
ATOM      6  O   UNL     1       2.324  -1.686   0.007  0.00  0.00    -0.341 OA
ENDROOT
BRANCH   2   7
ATOM      7  O   UNL     1       2.576   0.019   3.241  0.00  0.00    -0.384 OA
ATOM      8  H   UNL     1       1.651   0.230   3.429  0.00  0.00    +0.210 HD
ENDBRANCH   2   7
BRANCH   3   9
ATOM      9  O   UNL     1       4.852  -1.713   3.290  0.00  0.00    -0.386 OA
ATOM     10  H   UNL     1       4.773  -1.077   4.014  0.00  0.00    +0.210 HD
ENDBRANCH   3   9
BRANCH   4  11
ATOM     11  O   UNL     1       5.812  -2.548   0.728  0.00  0.00    -0.386 OA
ATOM     12  H   UNL     1       6.329  -2.823   1.498  0.00  0.00    +0.210 HD
ENDBRANCH   4  11
BRANCH   5  13
ATOM     13  C   UNL     1       3.821  -3.027  -1.335  0.00  0.00    +0.197 C 
BRANCH  13  14
ATOM     14  O   UNL     1       3.253  -2.571  -2.564  0.00  0.00    -0.346 OA
BRANCH  14  15
ATOM     15  C   UNL     1       3.313  -3.530  -3.622  0.00  0.00    +0.282 C 
ATOM     16  C   UNL     1       2.904  -2.869  -4.953  0.00  0.00    +0.206 C 
ATOM     17  C   UNL     1       1.692  -3.703  -5.434  0.00  0.00    +0.142 C 
ATOM     18  C   UNL     1       1.878  -5.028  -4.652  0.00  0.00    +0.202 C 
ATOM     19  O   UNL     1       2.383  -4.597  -3.368  0.00  0.00    -0.346 OA
BRANCH  16  20
ATOM     20  O   UNL     1       2.525  -1.508  -4.739  0.00  0.00    -0.384 OA
ATOM     21  H   UNL     1       3.233  -0.954  -4.383  0.00  0.00    +0.210 HD
ENDBRANCH  16  20
BRANCH  17  22
ATOM     22  O   UNL     1       0.462  -3.069  -5.077  0.00  0.00    -0.381 OA
ATOM     23  H   UNL     1      -0.326  -3.553  -5.357  0.00  0.00    +0.210 HD
ENDBRANCH  17  22
BRANCH  17  24
ATOM     24  C   UNL     1       1.760  -3.945  -6.943  0.00  0.00    +0.195 C 
BRANCH  24  25
ATOM     25  O   UNL     1       0.629  -4.716  -7.354  0.00  0.00    -0.392 OA
ATOM     26  H   UNL     1       0.607  -4.908  -8.302  0.00  0.00    +0.210 HD
ENDBRANCH  24  25
ENDBRANCH  17  24
ENDBRANCH  14  15
ENDBRANCH  13  14
ENDBRANCH   5  13
BRANCH   1  27
ATOM     27  O   UNL     1       0.693  -0.477   1.160  0.00  0.00    -0.346 OA
BRANCH  27  29
ATOM     28  C   UNL     1      -0.019   1.526   0.010  0.00  0.00    +0.038 C 
ATOM     29  C   UNL     1       0.002  -0.004   0.002  0.00  0.00    +0.119 C 
BRANCH  29  30
ATOM     30  C   UNL     1      -1.433  -0.534   0.013  0.00  0.00    +0.036 C 
BRANCH  30  31
ATOM     31  C   UNL     1      -1.416  -2.058  -0.121  0.00  0.00    +0.037 C 
BRANCH  31  32
ATOM     32  C   UNL     1      -2.829  -2.579  -0.111  0.00  0.00    -0.047 A 
ATOM     33  C   UNL     1      -3.431  -2.917   1.087  0.00  0.00    +0.007 A 
ATOM     34  C   UNL     1      -4.727  -3.396   1.100  0.00  0.00    +0.045 A 
ATOM     35  C   UNL     1      -5.425  -3.537  -0.091  0.00  0.00    +0.117 A 
ATOM     36  C   UNL     1      -4.819  -3.197  -1.292  0.00  0.00    +0.045 A 
ATOM     37  C   UNL     1      -3.525  -2.714  -1.298  0.00  0.00    +0.007 A 
BRANCH  35  38
ATOM     38  O   UNL     1      -6.699  -4.008  -0.081  0.00  0.00    -0.507 OA
ATOM     39  H   UNL     1      -7.373  -3.320   0.002  0.00  0.00    +0.292 HD
ENDBRANCH  35  38
ENDBRANCH  31  32
ENDBRANCH  30  31
ENDBRANCH  29  30
ENDBRANCH  27  29
ENDBRANCH   1  27
TORSDOF 16
