REMARK  Name = ZINC40742234
REMARK  15 active torsions:
REMARK  status: ('A' for Active; 'I' for Inactive)
REMARK    1  A    between atoms: C_1  and  C_2
REMARK    2  A    between atoms: C_2  and  O_3
REMARK    3  A    between atoms: O_3  and  C_4
REMARK    4  A    between atoms: C_6  and  C_20
REMARK    5  A    between atoms: C_9  and  O_10
REMARK    6  A    between atoms: O_10  and  C_11
REMARK    7  A    between atoms: C_11  and  C_12
REMARK    8  A    between atoms: C_20  and  N_21
REMARK    9  A    between atoms: N_21  and  C_22
REMARK   10  A    between atoms: C_22  and  C_23
REMARK   11  A    between atoms: C_23  and  C_24
REMARK   12  A    between atoms: C_27  and  O_32
REMARK   13  A    between atoms: C_28  and  O_30
REMARK   14  A    between atoms: O_30  and  C_31
REMARK   15  A    between atoms: O_32  and  C_33
REMARK                            x       y       z     vdW  Elec       q    Type
REMARK                         _______ _______ _______ _____ _____    ______ ____
ROOT
ATOM      1  C   UNL     1      -1.498  -1.849   0.006  0.00  0.00    +0.164 A 
ATOM      2  C   UNL     1      -0.389  -2.680  -0.003  0.00  0.00    +0.051 A 
ATOM      3  C   UNL     1      -0.552  -4.052  -0.009  0.00  0.00    -0.059 A 
ATOM      4  C   UNL     1      -1.822  -4.600  -0.006  0.00  0.00    +0.025 A 
ATOM      5  C   UNL     1      -2.934  -3.777   0.003  0.00  0.00    +0.086 A 
ATOM      6  C   UNL     1      -2.776  -2.400   0.016  0.00  0.00    +0.181 A 
ATOM      7 CL   UNL     1      -4.526  -4.469   0.006  0.00  0.00    -0.080 Cl
ENDROOT
BRANCH   1   8
ATOM      8  O   UNL     1      -1.339  -0.499   0.012  0.00  0.00    -0.489 OA
BRANCH   8  10
ATOM      9  C   UNL     1      -0.019   1.526   0.010  0.00  0.00    +0.048 C 
ATOM     10  C   UNL     1       0.002  -0.004   0.002  0.00  0.00    +0.226 C 
ENDBRANCH   8  10
ENDBRANCH   1   8
BRANCH   6  11
ATOM     11  O   UNL     1      -3.868  -1.589   0.031  0.00  0.00    -0.482 OA
BRANCH  11  12
ATOM     12  C   UNL     1      -4.401  -1.195  -1.235  0.00  0.00    +0.264 C 
BRANCH  12  13
ATOM     13  C   UNL     1      -5.598  -0.305  -1.021  0.00  0.00    -0.009 A 
ATOM     14  C   UNL     1      -6.861  -0.859  -0.916  0.00  0.00    +0.007 A 
ATOM     15  C   UNL     1      -7.959  -0.043  -0.719  0.00  0.00    +0.002 A 
ATOM     16  C   UNL     1      -7.796   1.327  -0.628  0.00  0.00    +0.020 A 
ATOM     17  C   UNL     1      -6.533   1.881  -0.734  0.00  0.00    +0.041 A 
ATOM     18  C   UNL     1      -5.433   1.064  -0.924  0.00  0.00    +0.027 A 
ATOM     19 CL   UNL     1      -6.328   3.601  -0.620  0.00  0.00    -0.084 Cl
ENDBRANCH  12  13
ENDBRANCH  11  12
ENDBRANCH   6  11
BRANCH   3  20
ATOM     20  C   UNL     1       0.655  -4.953  -0.019  0.00  0.00    -0.047 C 
BRANCH  20  21
ATOM     21  N   UNL     1       1.054  -5.253   1.363  0.00  0.00    +0.382 N 
ATOM     22  H   UNL     1       1.280  -4.394   1.841  0.00  0.00    -0.085 HD
ATOM     23  H   UNL     1       0.295  -5.714   1.840  0.00  0.00    -0.085 HD
BRANCH  21  24
ATOM     24  C   UNL     1       2.232  -6.131   1.353  0.00  0.00    -0.077 C 
BRANCH  24  25
ATOM     25  C   UNL     1       2.648  -6.443   2.792  0.00  0.00    +0.016 C 
BRANCH  25  26
ATOM     26  C   UNL     1       3.856  -7.344   2.782  0.00  0.00    -0.045 A 
ATOM     27  C   UNL     1       3.692  -8.717   2.770  0.00  0.00    +0.007 A 
ATOM     28  C   UNL     1       4.797  -9.548   2.761  0.00  0.00    +0.049 A 
ATOM     29  C   UNL     1       6.072  -9.005   2.763  0.00  0.00    +0.161 A 
ATOM     30  C   UNL     1       6.237  -7.623   2.774  0.00  0.00    +0.162 A 
ATOM     31  C   UNL     1       5.125  -6.796   2.778  0.00  0.00    +0.053 A 
BRANCH  30  32
ATOM     32  O   UNL     1       7.486  -7.086   2.776  0.00  0.00    -0.491 OA
ATOM     33  C   UNL     1       7.579  -5.660   2.788  0.00  0.00    +0.277 C 
ENDBRANCH  30  32
BRANCH  29  34
ATOM     34  O   UNL     1       7.160  -9.821   2.754  0.00  0.00    -0.491 OA
ATOM     35  C   UNL     1       6.915 -11.229   2.743  0.00  0.00    +0.277 C 
ENDBRANCH  29  34
ENDBRANCH  25  26
ENDBRANCH  24  25
ENDBRANCH  21  24
ENDBRANCH  20  21
ENDBRANCH   3  20
TORSDOF 12
