REMARK  Name = ZINC00861669
REMARK  5 active torsions:
REMARK  status: ('A' for Active; 'I' for Inactive)
REMARK    1  A    between atoms: C_13  and  C_14
REMARK    2  A    between atoms: C_13  and  O_27
REMARK    3  A    between atoms: N_16  and  N_17
REMARK    4  A    between atoms: C_18  and  C_19
REMARK    5  A    between atoms: C_24  and  O_25
REMARK                            x       y       z     vdW  Elec       q    Type
REMARK                         _______ _______ _______ _____ _____    ______ ____
ROOT
ATOM      1  C   UNL     1       2.893   2.591  -3.889  0.00  0.00    +0.001 A 
ATOM      2  C   UNL     1       1.668   3.186  -3.643  0.00  0.00    +0.000 A 
ATOM      3  C   UNL     1       1.064   3.044  -2.406  0.00  0.00    +0.008 A 
ATOM      4  C   UNL     1       1.680   2.310  -1.417  0.00  0.00    +0.005 A 
ATOM      5  C   UNL     1       2.913   1.705  -1.655  0.00  0.00    -0.011 A 
ATOM      6  C   UNL     1       3.517   1.853  -2.905  0.00  0.00    +0.009 A 
ATOM      7  C   UNL     1       3.352   0.981  -0.437  0.00  0.00    -0.011 A 
ATOM      8  C   UNL     1       4.500   0.231  -0.176  0.00  0.00    +0.009 A 
ATOM      9  C   UNL     1       4.676  -0.352   1.061  0.00  0.00    +0.001 A 
ATOM     10  C   UNL     1       3.719  -0.198   2.047  0.00  0.00    +0.000 A 
ATOM     11  C   UNL     1       2.579   0.545   1.797  0.00  0.00    +0.008 A 
ATOM     12  C   UNL     1       2.394   1.131   0.562  0.00  0.00    +0.005 A 
ATOM     13  C   UNL     1       1.280   1.980   0.001  0.00  0.00    +0.195 C 
ENDROOT
BRANCH  13  14
ATOM     14  C   UNL     1      -0.014   1.209   0.009  0.00  0.00    +0.273 C 
ATOM     15  O   UNL     1       0.002  -0.004   0.002  0.00  0.00    -0.270 OA
ATOM     16  N   UNL     1      -1.191   1.867   0.018  0.00  0.00    -0.204 N 
ATOM     17  H   UNL     1      -1.204   2.837   0.023  0.00  0.00    +0.177 HD
BRANCH  16  18
ATOM     18  N   UNL     1      -2.394   1.150   0.020  0.00  0.00    -0.188 NA
ATOM     19  C   UNL     1      -3.527   1.784   0.029  0.00  0.00    +0.142 C 
BRANCH  19  20
ATOM     20  C   UNL     1      -4.793   1.030   0.030  0.00  0.00    +0.037 A 
ATOM     21  C   UNL     1      -6.014   1.707   0.040  0.00  0.00    +0.028 A 
ATOM     22  C   UNL     1      -7.196   0.995   0.041  0.00  0.00    +0.019 A 
ATOM     23  C   UNL     1      -7.176  -0.390   0.033  0.00  0.00    +0.019 A 
ATOM     24  C   UNL     1      -5.974  -1.072   0.024  0.00  0.00    +0.047 A 
ATOM     25  C   UNL     1      -4.779  -0.372   0.017  0.00  0.00    +0.126 A 
ATOM     26 BR   UNL     1      -8.849   1.914   0.055  0.00  0.00    -0.050 Br
BRANCH  25  27
ATOM     27  O   UNL     1      -3.597  -1.041   0.002  0.00  0.00    -0.506 OA
ATOM     28  H   UNL     1      -3.249  -1.244   0.881  0.00  0.00    +0.292 HD
ENDBRANCH  25  27
ENDBRANCH  19  20
ENDBRANCH  16  18
ENDBRANCH  13  14
BRANCH  13  29
ATOM     29  O   UNL     1       1.143   3.180   0.764  0.00  0.00    -0.371 OA
ATOM     30  H   UNL     1       0.451   3.774   0.442  0.00  0.00    +0.212 HD
ENDBRANCH  13  29
TORSDOF 5
