REMARK  Name = ZINC20445648
REMARK  7 active torsions:
REMARK  status: ('A' for Active; 'I' for Inactive)
REMARK    1  A    between atoms: C_1  and  C_2
REMARK    2  A    between atoms: C_2  and  C_3
REMARK    3  A    between atoms: C_6  and  N_9
REMARK    4  A    between atoms: C_10  and  C_12
REMARK    5  A    between atoms: C_14  and  C_25
REMARK    6  A    between atoms: C_18  and  C_23
REMARK    7  A    between atoms: C_23  and  C_24
REMARK                            x       y       z     vdW  Elec       q    Type
REMARK                         _______ _______ _______ _____ _____    ______ ____
ROOT
ATOM      1  C   UNL     1      -3.089   0.939  -1.407  0.00  0.00    +0.166 C 
ATOM      2  C   UNL     1      -2.521   0.980   0.018  0.00  0.00    +0.140 C 
ATOM      3  N   UNL     1      -3.473   1.617   0.929  0.00  0.00    -0.272 N 
ATOM      4  N   UNL     1      -4.673   0.984   0.995  0.00  0.00    -0.225 N 
ATOM      5  C   UNL     1      -5.599   1.057   1.996  0.00  0.00    +0.151 A 
ATOM      6  N   UNL     1      -6.610   0.310   1.645  0.00  0.00    -0.132 NA
ATOM      7  N   UNL     1      -6.384  -0.231   0.497  0.00  0.00    -0.121 NA
ATOM      8  C   UNL     1      -5.214   0.145   0.062  0.00  0.00    +0.209 A 
ATOM      9  S   UNL     1      -4.413  -0.307  -1.444  0.00  0.00    -0.069 S 
ATOM     10  H   UNL     1      -3.183   2.523   1.482  0.00  0.00    +0.167 HD
ENDROOT
BRANCH   2  11
ATOM     11  C   UNL     1      -1.232   1.760   0.018  0.00  0.00    -0.024 A 
ATOM     12  C   UNL     1      -0.021   1.094   0.013  0.00  0.00    +0.007 A 
ATOM     13  C   UNL     1       1.162   1.809   0.007  0.00  0.00    +0.020 A 
ATOM     14  C   UNL     1       1.133   3.192   0.013  0.00  0.00    +0.041 A 
ATOM     15  C   UNL     1      -0.079   3.859   0.024  0.00  0.00    +0.020 A 
ATOM     16  C   UNL     1      -1.261   3.142   0.030  0.00  0.00    +0.007 A 
ATOM     17 CL   UNL     1       2.618   4.092   0.005  0.00  0.00    -0.084 Cl
ENDBRANCH   2  11
BRANCH   1  19
ATOM     18  N   UNL     1      -1.984   1.091  -3.615  0.00  0.00    -0.285 N 
ATOM     19  C   UNL     1      -2.001   0.556  -2.378  0.00  0.00    +0.233 C 
ATOM     20  O   UNL     1      -1.142  -0.233  -2.047  0.00  0.00    -0.274 OA
ATOM     21  H   UNL     1      -2.804   1.748  -3.942  0.00  0.00    +0.155 HD
BRANCH  18  25
ATOM     22  C   UNL     1       1.176   0.260  -6.200  0.00  0.00    -0.048 A 
ATOM     23  C   UNL     1       0.726  -0.712  -5.326  0.00  0.00    +0.005 A 
ATOM     24  C   UNL     1      -0.322  -0.439  -4.468  0.00  0.00    +0.023 A 
ATOM     25  C   UNL     1      -0.923   0.812  -4.483  0.00  0.00    +0.033 A 
ATOM     26  C   UNL     1      -0.472   1.785  -5.367  0.00  0.00    +0.023 A 
ATOM     27  C   UNL     1       0.579   1.508  -6.218  0.00  0.00    +0.005 A 
BRANCH  22  29
ATOM     28  C   UNL     1       1.769  -0.604  -8.448  0.00  0.00    +0.009 C 
ATOM     29  C   UNL     1       2.318  -0.040  -7.136  0.00  0.00    +0.032 C 
ENDBRANCH  22  29
ENDBRANCH  18  25
ENDBRANCH   1  19
BRANCH   5  30
ATOM     30  C   UNL     1      -5.477   1.853   3.270  0.00  0.00    +0.074 C 
ATOM     31  C   UNL     1      -6.048   3.255   3.052  0.00  0.00    +0.012 C 
ENDBRANCH   5  30
TORSDOF 5
