REMARK  Name = ZINC09234052
REMARK  4 active torsions:
REMARK  status: ('A' for Active; 'I' for Inactive)
REMARK    1  A    between atoms: C_3  and  C_10
REMARK    2  A    between atoms: C_5  and  N_7
REMARK    3  A    between atoms: C_18  and  C_20
REMARK    4  A    between atoms: C_20  and  C_22
REMARK                            x       y       z     vdW  Elec       q    Type
REMARK                         _______ _______ _______ _____ _____    ______ ____
ROOT
ATOM      1  C   UNL     1       3.723  -0.715  -0.031  0.00  0.00    +0.016 C 
ATOM      2  C   UNL     1       3.793  -1.729   1.125  0.00  0.00    -0.047 C 
ATOM      3  C   UNL     1       4.329  -1.055   2.398  0.00  0.00    +0.052 C 
ATOM      4  S   UNL     1       6.112  -1.505   2.344  0.00  0.00    -0.181 S 
ATOM      5  C   UNL     1       6.102  -2.516   0.809  0.00  0.00    -0.005 C 
ATOM      6  C   UNL     1       4.376  -2.940  -0.807  0.00  0.00    +0.052 C 
ATOM      7  C   UNL     1       3.821  -1.598  -1.296  0.00  0.00    +0.069 C 
ATOM      8  C   UNL     1       5.615  -3.326  -1.569  0.00  0.00    -0.024 A 
ATOM      9  C   UNL     1       6.846  -2.732  -1.733  0.00  0.00    +0.043 A 
ATOM     10  C   UNL     1       7.811  -3.344  -2.517  0.00  0.00    +0.124 A 
ATOM     11  C   UNL     1       7.533  -4.553  -3.132  0.00  0.00    +0.040 A 
ATOM     12  C   UNL     1       6.300  -5.149  -2.969  0.00  0.00    +0.026 A 
ATOM     13  C   UNL     1       5.325  -4.540  -2.183  0.00  0.00    +0.036 A 
ATOM     14  N   UNL     1       4.022  -4.939  -1.871  0.00  0.00    -0.286 N 
ATOM     15  C   UNL     1       3.398  -4.056  -1.070  0.00  0.00    +0.212 C 
ATOM     16  O   UNL     1       2.267  -4.143  -0.641  0.00  0.00    -0.277 OA
ATOM     17  F   UNL     1       9.020  -2.763  -2.680  0.00  0.00    -0.205 F 
ATOM     18  H   UNL     1       3.615  -5.758  -2.195  0.00  0.00    +0.155 HD
ATOM     19  N   UNL     1       4.645  -2.815   0.614  0.00  0.00    +0.401 N 
ATOM     20  H   UNL     1       4.412  -3.691   1.096  0.00  0.00    -0.078 HD
ENDROOT
BRANCH   1  23
ATOM     21  C   UNL     1       0.018   0.013   0.028  0.00  0.00    +0.002 A 
ATOM     22  C   UNL     1       1.220  -0.669   0.004  0.00  0.00    +0.004 A 
ATOM     23  C   UNL     1       2.413   0.030  -0.005  0.00  0.00    -0.043 A 
ATOM     24  C   UNL     1       2.403   1.412   0.010  0.00  0.00    +0.036 A 
ATOM     25  C   UNL     1       1.202   2.095   0.037  0.00  0.00    +0.126 A 
ATOM     26  C   UNL     1       0.009   1.395   0.045  0.00  0.00    +0.033 A 
BRANCH  25  27
ATOM     27  N   UNL     1       1.192   3.575   0.054  0.00  0.00    +0.056 N 
ATOM     28  O   UNL     1       0.133   4.177   0.075  0.00  0.00    -0.126 OA
ATOM     29  O   UNL     1       2.242   4.191   0.047  0.00  0.00    -0.126 OA
ENDBRANCH  25  27
ENDBRANCH   1  23
BRANCH   7  30
ATOM     30  C   UNL     1       4.761  -0.976  -2.296  0.00  0.00    +0.168 C 
ATOM     31  O   UNL     1       5.626  -0.214  -1.922  0.00  0.00    -0.292 OA
BRANCH  30  32
ATOM     32  C   UNL     1       4.628  -1.294  -3.727  0.00  0.00    +0.036 A 
ATOM     33  C   UNL     1       5.496  -0.722  -4.669  0.00  0.00    +0.014 A 
ATOM     34  C   UNL     1       5.328  -1.054  -6.000  0.00  0.00    +0.020 A 
ATOM     35  C   UNL     1       4.319  -1.931  -6.358  0.00  0.00    +0.111 A 
ATOM     36  N   UNL     1       3.516  -2.455  -5.451  0.00  0.00    -0.263 NA
ATOM     37  C   UNL     1       3.638  -2.176  -4.171  0.00  0.00    +0.122 A 
ENDBRANCH  30  32
ENDBRANCH   7  30
TORSDOF 4
