REMARK  Name = ZINC40985557
REMARK  10 active torsions:
REMARK  status: ('A' for Active; 'I' for Inactive)
REMARK    1  A    between atoms: C_1  and  C_2
REMARK    2  A    between atoms: C_2  and  C_3
REMARK    3  A    between atoms: C_6  and  C_9
REMARK    4  A    between atoms: C_9  and  C_11
REMARK    5  A    between atoms: C_9  and  N_25
REMARK    6  A    between atoms: C_11  and  N_12
REMARK    7  A    between atoms: C_13  and  C_15
REMARK    8  A    between atoms: C_18  and  S_22
REMARK    9  A    between atoms: S_22  and  C_23
REMARK   10  A    between atoms: C_23  and  C_24
REMARK                            x       y       z     vdW  Elec       q    Type
REMARK                         _______ _______ _______ _____ _____    ______ ____
ROOT
ATOM      1  C   UNL     1       2.673  -1.753  -4.520  0.00  0.00    -0.020 C 
ENDROOT
BRANCH   1   2
ATOM      2  N   UNL     1       3.691  -2.675  -4.000  0.00  0.00    +0.385 N 
ATOM      3  C   UNL     1       4.431  -3.268  -5.120  0.00  0.00    -0.078 C 
ATOM      4  C   UNL     1       5.546  -4.167  -4.582  0.00  0.00    -0.019 C 
ATOM      5  C   UNL     1       4.929  -5.280  -3.730  0.00  0.00    -0.004 C 
ATOM      6  C   UNL     1       4.099  -4.651  -2.608  0.00  0.00    -0.019 C 
ATOM      7  C   UNL     1       3.038  -3.733  -3.220  0.00  0.00    -0.078 C 
ATOM      8  H   UNL     1       4.331  -2.168  -3.407  0.00  0.00    -0.081 HD
ENDBRANCH   1   2
BRANCH   1  12
ATOM      9  C   UNL     1       0.425  -0.134  -1.268  0.00  0.00    -0.048 A 
ATOM     10  C   UNL     1      -0.214  -0.490  -2.441  0.00  0.00    +0.004 A 
ATOM     11  C   UNL     1       0.513  -1.014  -3.493  0.00  0.00    +0.002 A 
ATOM     12  C   UNL     1       1.880  -1.181  -3.373  0.00  0.00    -0.059 A 
ATOM     13  C   UNL     1       2.520  -0.825  -2.201  0.00  0.00    +0.002 A 
ATOM     14  C   UNL     1       1.793  -0.297  -1.150  0.00  0.00    +0.004 A 
BRANCH   9  16
ATOM     15  C   UNL     1      -0.433   1.959  -0.254  0.00  0.00    +0.009 C 
ATOM     16  C   UNL     1      -0.368   0.436  -0.121  0.00  0.00    +0.032 C 
ENDBRANCH   9  16
ENDBRANCH   1  12
BRANCH   1  17
ATOM     17  C   UNL     1       3.356  -0.617  -5.284  0.00  0.00    +0.094 C 
BRANCH  17  18
ATOM     18  N   UNL     1       2.339   0.259  -5.870  0.00  0.00    -0.312 N 
ATOM     19  C   UNL     1       2.707   1.391  -6.501  0.00  0.00    +0.248 C 
ATOM     20  O   UNL     1       3.884   1.686  -6.585  0.00  0.00    -0.270 OA
ATOM     21  H   UNL     1       1.400   0.024  -5.803  0.00  0.00    +0.149 HD
BRANCH  19  22
ATOM     22  C   UNL     1       1.683   2.273  -7.091  0.00  0.00    +0.092 A 
ATOM     23  C   UNL     1       0.321   1.955  -7.000  0.00  0.00    +0.129 A 
ATOM     24  N   UNL     1      -0.564   2.770  -7.540  0.00  0.00    -0.229 NA
ATOM     25  C   UNL     1      -0.181   3.878  -8.163  0.00  0.00    +0.190 A 
ATOM     26  N   UNL     1       1.098   4.216  -8.271  0.00  0.00    -0.209 NA
ATOM     27  C   UNL     1       2.046   3.456  -7.752  0.00  0.00    +0.146 A 
ATOM     28 CL   UNL     1       3.715   3.911  -7.893  0.00  0.00    -0.061 Cl
BRANCH  25  29
ATOM     29  S   UNL     1      -1.406   4.931  -8.867  0.00  0.00    -0.086 S 
BRANCH  29  30
ATOM     30  C   UNL     1      -0.451   6.290  -9.596  0.00  0.00    +0.074 C 
ATOM     31  C   UNL     1      -1.405   7.290 -10.250  0.00  0.00    +0.016 C 
ENDBRANCH  29  30
ENDBRANCH  25  29
ENDBRANCH  19  22
ENDBRANCH  17  18
ENDBRANCH   1  17
TORSDOF 8
