REMARK  Name = ZINC35743758
REMARK  15 active torsions:
REMARK  status: ('A' for Active; 'I' for Inactive)
REMARK    1  A    between atoms: C_1  and  C_2
REMARK    2  A    between atoms: C_2  and  C_4
REMARK    3  A    between atoms: C_2  and  N_17
REMARK    4  A    between atoms: N_14  and  C_15
REMARK    5  A    between atoms: N_17  and  C_18
REMARK    6  A    between atoms: C_18  and  C_19
REMARK    7  A    between atoms: C_19  and  C_20
REMARK    8  A    between atoms: C_20  and  C_21
REMARK    9  A    between atoms: C_21  and  C_22
REMARK   10  A    between atoms: C_22  and  C_23
REMARK   11  A    between atoms: C_23  and  N_24
REMARK   12  A    between atoms: C_25  and  C_27
REMARK   13  A    between atoms: C_27  and  O_28
REMARK   14  A    between atoms: O_28  and  C_29
REMARK   15  A    between atoms: C_29  and  C_30
REMARK                            x       y       z     vdW  Elec       q    Type
REMARK                         _______ _______ _______ _____ _____    ______ ____
ROOT
ATOM      1  N   UNL     1       0.503  -0.589  -1.270  0.00  0.00    -0.290 N 
ATOM      2  C   UNL     1       1.790  -0.403  -1.626  0.00  0.00    +0.242 C 
ATOM      3  O   UNL     1       2.163  -0.715  -2.737  0.00  0.00    -0.273 OA
ENDROOT
BRANCH   1   5
ATOM      4  C   UNL     1       0.057   1.412   0.063  0.00  0.00    +0.036 C 
ATOM      5  C   UNL     1       0.028  -0.117   0.033  0.00  0.00    +0.139 C 
BRANCH   5   6
ATOM      6  C   UNL     1       0.921  -0.658   1.119  0.00  0.00    +0.133 A 
ATOM      7  N   UNL     1       1.595   0.185   1.840  0.00  0.00    -0.232 NA
ATOM      8  C   UNL     1       2.419  -0.229   2.835  0.00  0.00    +0.080 A 
ATOM      9  C   UNL     1       3.145   0.676   3.611  0.00  0.00    +0.048 A 
ATOM     10  C   UNL     1       3.968   0.206   4.612  0.00  0.00    +0.043 A 
ATOM     11  C   UNL     1       4.084  -1.158   4.856  0.00  0.00    +0.021 A 
ATOM     12  C   UNL     1       3.382  -2.063   4.108  0.00  0.00    +0.017 A 
ATOM     13  C   UNL     1       2.542  -1.613   3.091  0.00  0.00    +0.065 A 
ATOM     14  C   UNL     1       1.765  -2.541   2.257  0.00  0.00    +0.262 A 
ATOM     15  O   UNL     1       1.825  -3.745   2.426  0.00  0.00    -0.267 OA
ATOM     16  N   UNL     1       0.975  -2.004   1.298  0.00  0.00    -0.298 N 
ATOM     17  C   UNL     1       0.174  -2.883   0.442  0.00  0.00    +0.154 C 
ATOM     18 CL   UNL     1       4.872   1.330   5.578  0.00  0.00    -0.083 Cl
ENDBRANCH   5   6
ENDBRANCH   1   5
BRANCH   1  19
ATOM     19  C   UNL     1      -0.421  -1.262  -2.187  0.00  0.00    +0.108 C 
BRANCH  19  20
ATOM     20  C   UNL     1      -1.087  -0.224  -3.092  0.00  0.00    +0.019 C 
BRANCH  20  21
ATOM     21  C   UNL     1      -2.052  -0.927  -4.050  0.00  0.00    +0.001 C 
BRANCH  21  22
ATOM     22  C   UNL     1      -2.719   0.110  -4.955  0.00  0.00    -0.002 C 
BRANCH  22  23
ATOM     23  C   UNL     1      -3.683  -0.593  -5.912  0.00  0.00    -0.020 C 
BRANCH  23  24
ATOM     24  C   UNL     1      -4.350   0.445  -6.818  0.00  0.00    -0.086 C 
BRANCH  24  25
ATOM     25  N   UNL     1      -5.276  -0.230  -7.737  0.00  0.00    +0.378 N 
ATOM     26  H   UNL     1      -5.982  -0.716  -7.205  0.00  0.00    -0.090 HD
ATOM     27  H   UNL     1      -5.715   0.455  -8.334  0.00  0.00    -0.090 HD
ATOM     28  H   UNL     1      -4.766  -0.891  -8.302  0.00  0.00    -0.090 HD
ENDBRANCH  24  25
ENDBRANCH  23  24
ENDBRANCH  22  23
ENDBRANCH  21  22
ENDBRANCH  20  21
ENDBRANCH  19  20
ENDBRANCH   1  19
BRANCH   2  29
ATOM     29  C   UNL     1       2.765   0.191  -0.643  0.00  0.00    +0.256 C 
BRANCH  29  30
ATOM     30  O   UNL     1       4.055   0.286  -1.250  0.00  0.00    -0.366 OA
BRANCH  30  31
ATOM     31  C   UNL     1       5.059   0.841  -0.397  0.00  0.00    +0.195 C 
BRANCH  31  32
ATOM     32  C   UNL     1       6.372   0.893  -1.136  0.00  0.00    -0.022 A 
ATOM     33  C   UNL     1       7.239  -0.181  -1.081  0.00  0.00    +0.006 A 
ATOM     34  C   UNL     1       8.443  -0.133  -1.758  0.00  0.00    +0.000 A 
ATOM     35  C   UNL     1       8.780   0.990  -2.490  0.00  0.00    +0.000 A 
ATOM     36  C   UNL     1       7.912   2.064  -2.546  0.00  0.00    +0.000 A 
ATOM     37  C   UNL     1       6.706   2.014  -1.872  0.00  0.00    +0.006 A 
ENDBRANCH  31  32
ENDBRANCH  30  31
ENDBRANCH  29  30
ENDBRANCH   2  29
TORSDOF 13
