REMARK  Name = ZINC29223528
REMARK  9 active torsions:
REMARK  status: ('A' for Active; 'I' for Inactive)
REMARK    1  A    between atoms: C_1  and  C_2
REMARK    2  A    between atoms: C_2  and  C_4
REMARK    3  A    between atoms: C_2  and  N_20
REMARK    4  A    between atoms: N_6  and  C_7
REMARK    5  A    between atoms: C_12  and  C_13
REMARK    6  A    between atoms: C_13  and  C_14
REMARK    7  A    between atoms: N_20  and  C_21
REMARK    8  A    between atoms: C_24  and  N_27
REMARK    9  A    between atoms: C_28  and  C_30
REMARK                            x       y       z     vdW  Elec       q    Type
REMARK                         _______ _______ _______ _____ _____    ______ ____
ROOT
ATOM      1  C   UNL     1       0.144   0.238   0.205  0.00  0.00    +0.237 C 
ATOM      2  O   UNL     1      -0.878  -0.404   0.328  0.00  0.00    -0.273 OA
ATOM      3  N   UNL     1       0.101   1.585   0.231  0.00  0.00    -0.284 N 
ATOM      4  H   UNL     1       1.035   2.166   0.199  0.00  0.00    +0.155 HD
ENDROOT
BRANCH   3   5
ATOM      5  C   UNL     1      -1.131   2.244   0.299  0.00  0.00    +0.037 A 
ATOM      6  C   UNL     1      -2.178   1.690   1.024  0.00  0.00    +0.023 A 
ATOM      7  C   UNL     1      -3.392   2.345   1.094  0.00  0.00    +0.002 A 
ATOM      8  C   UNL     1      -3.568   3.548   0.434  0.00  0.00    +0.000 A 
ATOM      9  C   UNL     1      -2.529   4.100  -0.293  0.00  0.00    +0.006 A 
ATOM     10  C   UNL     1      -1.312   3.452  -0.362  0.00  0.00    -0.022 A 
BRANCH  10  11
ATOM     11  C   UNL     1      -0.180   4.054  -1.155  0.00  0.00    +0.072 C 
BRANCH  11  12
ATOM     12  C   UNL     1      -0.168   3.462  -2.541  0.00  0.00    -0.043 A 
ATOM     13  C   UNL     1       0.571   2.323  -2.800  0.00  0.00    +0.004 A 
ATOM     14  C   UNL     1       0.579   1.777  -4.070  0.00  0.00    +0.000 A 
ATOM     15  C   UNL     1      -0.145   2.377  -5.084  0.00  0.00    +0.000 A 
ATOM     16  C   UNL     1      -0.879   3.519  -4.827  0.00  0.00    +0.000 A 
ATOM     17  C   UNL     1      -0.891   4.062  -3.555  0.00  0.00    +0.004 A 
ENDBRANCH  11  12
ENDBRANCH  10  11
ENDBRANCH   3   5
BRANCH   1  19
ATOM     18  C   UNL     1       2.406  -0.093   1.167  0.00  0.00    +0.038 C 
ATOM     19  C   UNL     1       1.462  -0.470   0.024  0.00  0.00    +0.154 C 
BRANCH  19  20
ATOM     20  N   UNL     1       1.242  -1.919   0.030  0.00  0.00    -0.333 N 
ATOM     21  H   UNL     1       0.365  -2.340   0.543  0.00  0.00    +0.147 HD
BRANCH  20  22
ATOM     22  C   UNL     1       2.148  -2.766  -0.617  0.00  0.00    +0.028 A 
ATOM     23  C   UNL     1       3.252  -2.234  -1.270  0.00  0.00    +0.025 A 
ATOM     24  C   UNL     1       4.150  -3.071  -1.902  0.00  0.00    +0.025 A 
ATOM     25  C   UNL     1       3.941  -4.444  -1.897  0.00  0.00    +0.033 A 
ATOM     26  C   UNL     1       2.834  -4.976  -1.249  0.00  0.00    +0.025 A 
ATOM     27  C   UNL     1       1.940  -4.140  -0.611  0.00  0.00    +0.025 A 
BRANCH  25  28
ATOM     28  N   UNL     1       4.849  -5.293  -2.544  0.00  0.00    -0.286 N 
ATOM     29  C   UNL     1       4.407  -6.407  -3.162  0.00  0.00    +0.214 C 
ATOM     30  O   UNL     1       3.238  -6.718  -3.087  0.00  0.00    -0.276 OA
ATOM     31  C   UNL     1       5.367  -7.264  -3.947  0.00  0.00    +0.109 C 
ATOM     32  H   UNL     1       5.922  -5.051  -2.548  0.00  0.00    +0.155 HD
ENDBRANCH  25  28
ENDBRANCH  20  22
ENDBRANCH  19  20
ENDBRANCH   1  19
TORSDOF 7
