REMARK  Name = ZINC10042581
REMARK  12 active torsions:
REMARK  status: ('A' for Active; 'I' for Inactive)
REMARK    1  A    between atoms: C_1  and  C_2
REMARK    2  A    between atoms: C_5  and  C_8
REMARK    3  A    between atoms: N_10  and  C_11
REMARK    4  A    between atoms: C_11  and  C_13
REMARK    5  A    between atoms: C_11  and  C_16
REMARK    6  A    between atoms: C_13  and  C_14
REMARK    7  A    between atoms: C_13  and  C_15
REMARK    8  A    between atoms: N_18  and  N_19
REMARK    9  A    between atoms: C_20  and  C_21
REMARK   10  A    between atoms: C_30  and  O_31
REMARK   11  A    between atoms: O_31  and  C_32
REMARK   12  A    between atoms: C_32  and  C_33
REMARK                            x       y       z     vdW  Elec       q    Type
REMARK                         _______ _______ _______ _____ _____    ______ ____
ROOT
ATOM      1  N   UNL     1       3.827  -0.772  -3.871  0.00  0.00    -0.188 NA
ATOM      2  C   UNL     1       4.951  -1.401  -4.045  0.00  0.00    +0.142 C 
ENDROOT
BRANCH   2   3
ATOM      3  C   UNL     1       5.734  -1.839  -2.881  0.00  0.00    +0.044 A 
ATOM      4  C   UNL     1       7.001  -2.548  -3.058  0.00  0.00    -0.006 A 
ATOM      5  C   UNL     1       7.508  -2.831  -4.332  0.00  0.00    +0.009 A 
ATOM      6  C   UNL     1       8.693  -3.494  -4.453  0.00  0.00    +0.001 A 
ATOM      7  C   UNL     1       9.408  -3.893  -3.327  0.00  0.00    +0.001 A 
ATOM      8  C   UNL     1       8.944  -3.634  -2.073  0.00  0.00    +0.008 A 
ATOM      9  C   UNL     1       7.725  -2.953  -1.910  0.00  0.00    -0.017 A 
ATOM     10  C   UNL     1       7.214  -2.667  -0.632  0.00  0.00    +0.012 A 
ATOM     11  C   UNL     1       6.038  -2.002  -0.485  0.00  0.00    +0.047 A 
ATOM     12  C   UNL     1       5.286  -1.589  -1.584  0.00  0.00    +0.130 A 
BRANCH  12  13
ATOM     13  O   UNL     1       4.113  -0.932  -1.391  0.00  0.00    -0.487 OA
BRANCH  13  14
ATOM     14  C   UNL     1       3.711  -0.707  -0.039  0.00  0.00    +0.264 C 
BRANCH  14  15
ATOM     15  C   UNL     1       2.396   0.029  -0.022  0.00  0.00    -0.010 A 
ATOM     16  C   UNL     1       1.208  -0.679  -0.014  0.00  0.00    +0.007 A 
ATOM     17  C   UNL     1       0.002  -0.004   0.002  0.00  0.00    +0.000 A 
ATOM     18  C   UNL     1      -0.017   1.378   0.010  0.00  0.00    +0.000 A 
ATOM     19  C   UNL     1       1.171   2.086   0.002  0.00  0.00    +0.000 A 
ATOM     20  C   UNL     1       2.377   1.411  -0.014  0.00  0.00    +0.007 A 
ENDBRANCH  14  15
ENDBRANCH  13  14
ENDBRANCH  12  13
ENDBRANCH   2   3
BRANCH   1  23
ATOM     21  C   UNL     1       1.914   0.299  -4.800  0.00  0.00    +0.253 C 
ATOM     22  O   UNL     1       1.512   0.524  -3.678  0.00  0.00    -0.272 OA
ATOM     23  N   UNL     1       3.080  -0.353  -4.980  0.00  0.00    -0.205 N 
ATOM     24  H   UNL     1       3.401  -0.534  -5.877  0.00  0.00    +0.177 HD
BRANCH  21  25
ATOM     25  C   UNL     1       1.111   0.749  -5.993  0.00  0.00    +0.163 C 
BRANCH  25  28
ATOM     26  C   UNL     1      -1.192   1.472  -6.330  0.00  0.00    +0.245 C 
ATOM     27  O   UNL     1      -1.165   0.948  -7.426  0.00  0.00    -0.270 OA
ATOM     28  N   UNL     1      -0.104   1.429  -5.536  0.00  0.00    -0.300 N 
ATOM     29  H   UNL     1      -0.125   1.847  -4.661  0.00  0.00    +0.150 HD
BRANCH  26  34
ATOM     30  C   UNL     1      -5.962   4.141  -4.533  0.00  0.00    +0.044 C 
ATOM     31  C   UNL     1      -4.713   3.442  -5.003  0.00  0.00    -0.050 A 
ATOM     32  C   UNL     1      -4.686   2.847  -6.252  0.00  0.00    +0.004 A 
ATOM     33  C   UNL     1      -3.545   2.205  -6.689  0.00  0.00    +0.013 A 
ATOM     34  C   UNL     1      -2.417   2.158  -5.869  0.00  0.00    +0.037 A 
ATOM     35  C   UNL     1      -2.453   2.757  -4.608  0.00  0.00    +0.013 A 
ATOM     36  C   UNL     1      -3.598   3.399  -4.185  0.00  0.00    +0.004 A 
ENDBRANCH  26  34
ENDBRANCH  25  28
BRANCH  25  37
ATOM     37  C   UNL     1       1.947   1.712  -6.838  0.00  0.00    +0.012 C 
ATOM     38  C   UNL     1       1.131   2.169  -8.049  0.00  0.00    +0.009 C 
ATOM     39  C   UNL     1       2.331   2.929  -5.993  0.00  0.00    +0.009 C 
ENDBRANCH  25  37
ENDBRANCH  21  25
ENDBRANCH   1  23
TORSDOF 9
