REMARK  Name = ZINC58182883
REMARK  4 active torsions:
REMARK  status: ('A' for Active; 'I' for Inactive)
REMARK    1  A    between atoms: C_1  and  C_2
REMARK    2  A    between atoms: N_4  and  C_5
REMARK    3  A    between atoms: C_10  and  N_11
REMARK    4  A    between atoms: C_12  and  C_14
REMARK                            x       y       z     vdW  Elec       q    Type
REMARK                         _______ _______ _______ _____ _____    ______ ____
ROOT
ATOM      1  N   UNL     1      -3.549  -2.291  -0.129  0.00  0.00    -0.280 N 
ATOM      2  C   UNL     1      -4.681  -3.022  -0.105  0.00  0.00    +0.255 C 
ATOM      3  O   UNL     1      -4.625  -4.233  -0.205  0.00  0.00    -0.270 OA
ATOM      4  H   UNL     1      -3.598  -1.322  -0.132  0.00  0.00    +0.155 HD
ENDROOT
BRANCH   2   5
ATOM      5  C   UNL     1      -5.986  -2.355   0.041  0.00  0.00    +0.122 A 
ATOM      6  C   UNL     1      -7.168  -3.082   0.074  0.00  0.00    +0.031 A 
ATOM      7  C   UNL     1      -8.388  -2.367   0.186  0.00  0.00    +0.018 A 
ATOM      8  C   UNL     1      -9.592  -3.046   0.425  0.00  0.00    +0.011 A 
ATOM      9  C   UNL     1     -10.751  -2.341   0.571  0.00  0.00    +0.001 A 
ATOM     10  C   UNL     1     -10.752  -0.956   0.477  0.00  0.00    +0.004 A 
ATOM     11  C   UNL     1      -9.583  -0.268   0.223  0.00  0.00    +0.047 A 
ATOM     12  C   UNL     1      -8.393  -0.965   0.063  0.00  0.00    +0.139 A 
ATOM     13  O   UNL     1      -7.246  -0.306  -0.229  0.00  0.00    -0.422 OA
ATOM     14  C   UNL     1      -6.088  -0.890   0.163  0.00  0.00    +0.350 A 
ATOM     15  O   UNL     1      -5.163  -0.229   0.598  0.00  0.00    -0.244 OA
ENDBRANCH   2   5
BRANCH   1  21
ATOM     16  C   UNL     1      -1.193  -2.277  -0.685  0.00  0.00    +0.055 A 
ATOM     17  C   UNL     1       0.040  -2.912  -0.697  0.00  0.00    +0.026 A 
ATOM     18  C   UNL     1       0.165  -4.190  -0.185  0.00  0.00    +0.022 A 
ATOM     19  C   UNL     1      -0.939  -4.840   0.341  0.00  0.00    +0.043 A 
ATOM     20  C   UNL     1      -2.172  -4.213   0.357  0.00  0.00    +0.045 A 
ATOM     21  C   UNL     1      -2.304  -2.929  -0.150  0.00  0.00    +0.056 A 
ATOM     22 CL   UNL     1      -0.774  -6.445   0.981  0.00  0.00    -0.083 Cl
BRANCH  16  26
ATOM     23  C   UNL     1      -0.356   1.181  -1.919  0.00  0.00    +0.109 C 
ATOM     24  C   UNL     1      -0.249  -0.165  -1.249  0.00  0.00    +0.214 C 
ATOM     25  O   UNL     1       0.800  -0.514  -0.751  0.00  0.00    -0.276 OA
ATOM     26  N   UNL     1      -1.321  -0.982  -1.204  0.00  0.00    -0.284 N 
ATOM     27  H   UNL     1      -2.180  -0.673  -1.530  0.00  0.00    +0.155 HD
ENDBRANCH  16  26
ENDBRANCH   1  21
TORSDOF 3
