REMARK  Name = ZINC58849134
REMARK  11 active torsions:
REMARK  status: ('A' for Active; 'I' for Inactive)
REMARK    1  A    between atoms: C_1  and  C_2
REMARK    2  A    between atoms: C_2  and  O_3
REMARK    3  A    between atoms: O_3  and  C_4
REMARK    4  A    between atoms: C_9  and  N_10
REMARK    5  A    between atoms: N_10  and  S_11
REMARK    6  A    between atoms: S_11  and  C_14
REMARK    7  A    between atoms: C_27  and  C_30
REMARK    8  A    between atoms: C_34  and  O_38
REMARK    9  A    between atoms: C_35  and  O_36
REMARK   10  A    between atoms: O_36  and  C_37
REMARK   11  A    between atoms: O_38  and  C_39
REMARK                            x       y       z     vdW  Elec       q    Type
REMARK                         _______ _______ _______ _____ _____    ______ ____
ROOT
ATOM      1  C   UNL     1      -7.511  -1.989   2.858  0.00  0.00    +0.109 A 
ATOM      2  C   UNL     1      -6.962  -3.204   3.226  0.00  0.00    +0.030 A 
ATOM      3  C   UNL     1      -6.320  -3.325   4.442  0.00  0.00    +0.025 A 
ATOM      4  C   UNL     1      -6.223  -2.229   5.293  0.00  0.00    +0.031 A 
ATOM      5  C   UNL     1      -6.762  -1.007   4.920  0.00  0.00    -0.018 A 
ATOM      6  C   UNL     1      -7.408  -0.898   3.697  0.00  0.00    +0.034 A 
ATOM      7  C   UNL     1      -6.643   0.200   5.788  0.00  0.00    +0.049 C 
ATOM      8  C   UNL     1      -7.934   0.515   6.500  0.00  0.00    -0.023 C 
ATOM      9  C   UNL     1      -7.687   0.976   7.701  0.00  0.00    -0.030 C 
ATOM     10  C   UNL     1      -6.199   1.028   7.964  0.00  0.00    +0.033 C 
ATOM     11  C   UNL     1      -5.601   0.082   6.897  0.00  0.00    +0.029 C 
ATOM     12  C   UNL     1      -5.502  -1.305   7.498  0.00  0.00    +0.109 C 
ATOM     13  N   UNL     1      -5.590  -2.371   6.522  0.00  0.00    -0.336 N 
ATOM     14  H   UNL     1      -5.209  -3.235   6.746  0.00  0.00    +0.147 HD
ENDROOT
BRANCH  12  15
ATOM     15  C   UNL     1      -6.596  -1.463   8.521  0.00  0.00    +0.018 A 
ATOM     16  C   UNL     1      -7.908  -1.621   8.113  0.00  0.00    +0.009 A 
ATOM     17  C   UNL     1      -8.914  -1.766   9.049  0.00  0.00    +0.004 A 
ATOM     18  C   UNL     1      -8.614  -1.753  10.399  0.00  0.00    +0.049 A 
ATOM     19  C   UNL     1      -7.303  -1.594  10.815  0.00  0.00    +0.162 A 
ATOM     20  C   UNL     1      -6.288  -1.454   9.872  0.00  0.00    +0.166 A 
BRANCH  20  21
ATOM     21  O   UNL     1      -4.998  -1.304  10.276  0.00  0.00    -0.491 OA
ATOM     22  C   UNL     1      -4.580   0.015  10.632  0.00  0.00    +0.277 C 
ENDBRANCH  20  21
BRANCH  19  23
ATOM     23  O   UNL     1      -7.006  -1.581  12.142  0.00  0.00    -0.491 OA
ATOM     24  C   UNL     1      -8.097  -1.735  13.052  0.00  0.00    +0.277 C 
ENDBRANCH  19  23
ENDBRANCH  12  15
BRANCH   1  25
ATOM     25  S   UNL     1      -8.339  -1.832   1.311  0.00  0.00    +0.072 S 
ATOM     26  O   UNL     1      -9.235  -0.736   1.439  0.00  0.00    -0.150 OA
ATOM     27  O   UNL     1      -8.777  -3.135   0.951  0.00  0.00    -0.150 OA
BRANCH  25  28
ATOM     28  N   UNL     1      -7.204  -1.388   0.190  0.00  0.00    -0.213 N 
ATOM     29  H   UNL     1      -7.287  -0.540  -0.275  0.00  0.00    +0.174 HD
BRANCH  28  35
ATOM     30  C   UNL     1      -4.870  -1.697  -0.368  0.00  0.00    +0.143 A 
ATOM     31  C   UNL     1      -3.804  -2.540  -0.634  0.00  0.00    +0.047 A 
ATOM     32  C   UNL     1      -3.986  -3.911  -0.626  0.00  0.00    +0.004 A 
ATOM     33  C   UNL     1      -5.232  -4.444  -0.351  0.00  0.00    +0.002 A 
ATOM     34  C   UNL     1      -6.301  -3.610  -0.084  0.00  0.00    +0.028 A 
ATOM     35  C   UNL     1      -6.124  -2.234  -0.086  0.00  0.00    +0.090 A 
BRANCH  30  36
ATOM     36  O   UNL     1      -4.692  -0.349  -0.377  0.00  0.00    -0.490 OA
BRANCH  36  38
ATOM     37  C   UNL     1      -3.374   1.660  -0.638  0.00  0.00    +0.048 C 
ATOM     38  C   UNL     1      -3.379   0.130  -0.674  0.00  0.00    +0.226 C 
ENDBRANCH  36  38
ENDBRANCH  30  36
ENDBRANCH  28  35
ENDBRANCH  25  28
ENDBRANCH   1  25
TORSDOF 8
