REMARK  Name = ZINC02396117
REMARK  10 active torsions:
REMARK  status: ('A' for Active; 'I' for Inactive)
REMARK    1  A    between atoms: C_1  and  C_2
REMARK    2  A    between atoms: C_2  and  C_3
REMARK    3  A    between atoms: C_3  and  C_4
REMARK    4  A    between atoms: C_4  and  N_5
REMARK    5  A    between atoms: N_5  and  S_6
REMARK    6  A    between atoms: S_6  and  C_9
REMARK    7  A    between atoms: C_11  and  C_17
REMARK    8  A    between atoms: C_14  and  O_15
REMARK    9  A    between atoms: O_15  and  C_16
REMARK   10  A    between atoms: C_23  and  C_30
REMARK                            x       y       z     vdW  Elec       q    Type
REMARK                         _______ _______ _______ _____ _____    ______ ____
ROOT
ATOM      1  C   UNL     1      -7.381   2.857   0.882  0.00  0.00    +0.147 A 
ATOM      2  C   UNL     1      -6.367   2.969   1.809  0.00  0.00    +0.044 A 
ATOM      3  C   UNL     1      -5.129   2.373   1.562  0.00  0.00    +0.023 A 
ATOM      4  C   UNL     1      -4.928   1.655   0.381  0.00  0.00    +0.015 A 
ATOM      5  C   UNL     1      -5.949   1.543  -0.538  0.00  0.00    +0.048 A 
ATOM      6  C   UNL     1      -7.177   2.142  -0.291  0.00  0.00    +0.146 A 
ENDROOT
BRANCH   3   7
ATOM      7  C   UNL     1      -4.037   2.495   2.550  0.00  0.00    +0.185 A 
ATOM      8  N   UNL     1      -4.156   2.891   3.801  0.00  0.00    -0.127 NA
ATOM      9  N   UNL     1      -3.006   2.881   4.378  0.00  0.00    -0.127 NA
ATOM     10  C   UNL     1      -2.084   2.478   3.528  0.00  0.00    +0.186 A 
ATOM     11  N   UNL     1      -2.714   2.219   2.335  0.00  0.00    -0.192 N 
ATOM     12  N   UNL     1      -2.001   1.775   1.223  0.00  0.00    -0.168 NA
ATOM     13  C   UNL     1      -0.718   1.572   1.248  0.00  0.00    +0.067 A 
ATOM     14  C   UNL     1       0.047   1.818   2.470  0.00  0.00    +0.008 A 
ATOM     15  C   UNL     1      -0.637   2.274   3.621  0.00  0.00    +0.030 A 
ATOM     16  C   UNL     1       0.071   2.515   4.798  0.00  0.00    +0.012 A 
ATOM     17  C   UNL     1       1.432   2.306   4.828  0.00  0.00    +0.001 A 
ATOM     18  C   UNL     1       2.105   1.857   3.699  0.00  0.00    +0.001 A 
ATOM     19  C   UNL     1       1.427   1.613   2.525  0.00  0.00    +0.010 A 
ATOM     20  C   UNL     1      -0.013   1.086   0.008  0.00  0.00    +0.068 C 
ENDBRANCH   3   7
BRANCH   1  21
ATOM     21  S   UNL     1      -8.942   3.615   1.190  0.00  0.00    +0.062 S 
ATOM     22  O   UNL     1      -9.930   2.625   0.942  0.00  0.00    -0.153 OA
ATOM     23  O   UNL     1      -8.829   4.284   2.438  0.00  0.00    -0.153 OA
BRANCH  21  24
ATOM     24  N   UNL     1      -9.151   4.790   0.041  0.00  0.00    -0.190 NA
ATOM     25  H   UNL     1      -9.191   5.723   0.303  0.00  0.00    +0.148 HD
BRANCH  24  26
ATOM     26  C   UNL     1      -9.275   4.419  -1.371  0.00  0.00    +0.106 C 
BRANCH  26  27
ATOM     27  C   UNL     1      -9.823   5.608  -2.163  0.00  0.00    +0.017 C 
BRANCH  27  29
ATOM     28  C   UNL     1     -10.501   6.410  -4.430  0.00  0.00    +0.004 C 
ATOM     29  C   UNL     1      -9.953   5.221  -3.638  0.00  0.00    -0.002 C 
ENDBRANCH  27  29
ENDBRANCH  26  27
ENDBRANCH  24  26
ENDBRANCH  21  24
ENDBRANCH   1  21
BRANCH   6  30
ATOM     30  O   UNL     1      -8.181   2.029  -1.199  0.00  0.00    -0.493 OA
ATOM     31  C   UNL     1      -7.903   1.279  -2.383  0.00  0.00    +0.277 C 
ENDBRANCH   6  30
TORSDOF 7
