REMARK  Name = ZINC17083255
REMARK  5 active torsions:
REMARK  status: ('A' for Active; 'I' for Inactive)
REMARK    1  A    between atoms: C_1  and  C_2
REMARK    2  A    between atoms: C_3  and  C_28
REMARK    3  A    between atoms: C_6  and  C_7
REMARK    4  A    between atoms: N_9  and  N_10
REMARK    5  A    between atoms: C_23  and  C_27
REMARK                            x       y       z     vdW  Elec       q    Type
REMARK                         _______ _______ _______ _____ _____    ______ ____
ROOT
ATOM      1  N   UNL     1       1.141   2.381   0.004  0.00  0.00    -0.200 N 
ATOM      2  C   UNL     1       1.182   3.726   0.010  0.00  0.00    +0.280 A 
ATOM      3  O   UNL     1       2.250   4.310   0.002  0.00  0.00    -0.265 OA
ATOM      4  C   UNL     1      -0.087   4.487   0.026  0.00  0.00    +0.075 A 
ATOM      5  C   UNL     1      -0.281   5.937   0.034  0.00  0.00    -0.023 A 
ATOM      6  C   UNL     1      -1.561   6.360   0.049  0.00  0.00    -0.004 A 
ATOM      7  S   UNL     1      -2.528   4.877   0.052  0.00  0.00    -0.075 S 
ATOM      8  C   UNL     1      -1.252   3.719   0.034  0.00  0.00    +0.092 A 
ATOM      9  N   UNL     1      -1.204   2.352   0.021  0.00  0.00    -0.328 N 
ATOM     10  H   UNL     1      -2.137   1.769   0.018  0.00  0.00    +0.168 HD
ATOM     11  C   UNL     1      -0.021   1.708   0.011  0.00  0.00    +0.179 A 
ATOM     12  S   UNL     1       0.002  -0.004   0.002  0.00  0.00    -0.011 S 
ATOM     13  C   UNL     1      -2.045   7.778   0.058  0.00  0.00    +0.046 C 
ATOM     14  C   UNL     1      -0.873   8.691  -0.329  0.00  0.00    -0.009 C 
ATOM     15  C   UNL     1       0.356   8.292   0.494  0.00  0.00    +0.008 C 
ATOM     16  C   UNL     1       0.875   6.931   0.028  0.00  0.00    +0.037 C 
ATOM     17  C   UNL     1      -1.239  10.147  -0.036  0.00  0.00    +0.008 C 
ENDROOT
BRANCH   1  20
ATOM     18  C   UNL     1       2.757   1.065  -1.145  0.00  0.00    +0.263 C 
ATOM     19  O   UNL     1       2.086   1.147  -2.156  0.00  0.00    -0.268 OA
ATOM     20  N   UNL     1       2.344   1.664  -0.011  0.00  0.00    -0.214 N 
ATOM     21  H   UNL     1       2.951   1.589   0.903  0.00  0.00    +0.176 HD
BRANCH  18  27
ATOM     22  C   UNL     1       3.714  -0.283  -3.645  0.00  0.00    +0.045 C 
ATOM     23  C   UNL     1       4.493  -0.342  -2.356  0.00  0.00    -0.028 A 
ATOM     24  C   UNL     1       5.662  -1.007  -2.271  0.00  0.00    -0.010 A 
ATOM     25  S   UNL     1       6.143  -0.762  -0.573  0.00  0.00    -0.101 S 
ATOM     26  C   UNL     1       4.809   0.202  -0.034  0.00  0.00    +0.058 A 
ATOM     27  C   UNL     1       4.021   0.311  -1.161  0.00  0.00    +0.048 A 
ATOM     28  C   UNL     1       6.386  -1.772  -3.349  0.00  0.00    +0.052 C 
ENDBRANCH  18  27
ENDBRANCH   1  20
TORSDOF 2
