REMARK  Name = ZINC63572735
REMARK  5 active torsions:
REMARK  status: ('A' for Active; 'I' for Inactive)
REMARK    1  A    between atoms: C_1  and  C_2
REMARK    2  A    between atoms: C_2  and  C_3
REMARK    3  A    between atoms: C_6  and  N_9
REMARK    4  A    between atoms: C_25  and  C_27
REMARK    5  A    between atoms: C_30  and  C_33
REMARK                            x       y       z     vdW  Elec       q    Type
REMARK                         _______ _______ _______ _____ _____    ______ ____
ROOT
ATOM      1  N   UNL     1       2.859  -3.656  -4.452  0.00  0.00    -0.269 N 
ATOM      2  C   UNL     1       4.104  -3.144  -4.525  0.00  0.00    +0.307 C 
ATOM      3  O   UNL     1       4.695  -2.836  -3.508  0.00  0.00    -0.252 OA
ATOM      4  N   UNL     1       4.694  -2.974  -5.725  0.00  0.00    -0.276 N 
ATOM      5  C   UNL     1       3.934  -3.239  -6.951  0.00  0.00    +0.114 C 
ATOM      6  C   UNL     1       3.914  -1.971  -7.825  0.00  0.00    +0.052 C 
ATOM      7  C   UNL     1       5.325  -1.437  -7.845  0.00  0.00    -0.035 C 
ATOM      8  C   UNL     1       6.121  -1.099  -8.852  0.00  0.00    +0.001 A 
ATOM      9  C   UNL     1       5.885  -1.016 -10.302  0.00  0.00    +0.030 A 
ATOM     10  C   UNL     1       6.950  -0.646 -11.063  0.00  0.00    +0.042 A 
ATOM     11  C   UNL     1       8.211  -0.354 -10.531  0.00  0.00    +0.022 A 
ATOM     12  C   UNL     1       8.514  -0.397  -9.209  0.00  0.00    +0.027 A 
ATOM     13  C   UNL     1       7.473  -0.765  -8.308  0.00  0.00    +0.043 A 
ATOM     14  N   UNL     1       7.478  -0.862  -7.012  0.00  0.00    -0.375 N 
ATOM     15  C   UNL     1       6.127  -1.206  -6.569  0.00  0.00    +0.131 C 
ATOM     16  C   UNL     1       6.092  -2.520  -5.790  0.00  0.00    +0.134 C 
ATOM     17 CL   UNL     1       6.734  -0.530 -12.781  0.00  0.00    -0.084 Cl
ATOM     18  H   UNL     1       2.413  -3.961  -5.258  0.00  0.00    +0.156 HD
ATOM     19  H   UNL     1       8.247  -0.729  -6.436  0.00  0.00    +0.160 HD
ENDROOT
BRANCH  16  20
ATOM     20  C   UNL     1       6.623  -2.298  -4.397  0.00  0.00    -0.025 A 
ATOM     21  C   UNL     1       6.214  -1.196  -3.669  0.00  0.00    +0.006 A 
ATOM     22  C   UNL     1       6.701  -0.993  -2.392  0.00  0.00    +0.004 A 
ATOM     23  C   UNL     1       7.596  -1.891  -1.842  0.00  0.00    -0.050 A 
ATOM     24  C   UNL     1       8.004  -2.994  -2.570  0.00  0.00    +0.004 A 
ATOM     25  C   UNL     1       7.514  -3.199  -3.846  0.00  0.00    +0.006 A 
ATOM     26  C   UNL     1       8.127  -1.669  -0.449  0.00  0.00    +0.044 C 
ENDBRANCH  16  20
BRANCH   1  30
ATOM     27  C   UNL     1       0.928  -3.926  -0.770  0.00  0.00    -0.048 A 
ATOM     28  C   UNL     1       0.207  -3.604  -1.906  0.00  0.00    +0.005 A 
ATOM     29  C   UNL     1       0.844  -3.514  -3.128  0.00  0.00    +0.023 A 
ATOM     30  C   UNL     1       2.211  -3.746  -3.216  0.00  0.00    +0.035 A 
ATOM     31  C   UNL     1       2.932  -4.069  -2.074  0.00  0.00    +0.023 A 
ATOM     32  C   UNL     1       2.290  -4.152  -0.854  0.00  0.00    +0.005 A 
BRANCH  27  34
ATOM     33  C   UNL     1       0.241  -2.655   1.245  0.00  0.00    +0.009 C 
ATOM     34  C   UNL     1       0.230  -4.024   0.561  0.00  0.00    +0.032 C 
ENDBRANCH  27  34
ENDBRANCH   1  30
TORSDOF 3
