REMARK  Name = ZINC51690507
REMARK  3 active torsions:
REMARK  status: ('A' for Active; 'I' for Inactive)
REMARK    1  A    between atoms: C_1  and  C_2
REMARK    2  A    between atoms: C_2  and  C_3
REMARK    3  A    between atoms: C_2  and  C_4
REMARK                            x       y       z     vdW  Elec       q    Type
REMARK                         _______ _______ _______ _____ _____    ______ ____
ROOT
ATOM      1  C   UNL     1      -1.412  -0.526   0.013  0.00  0.00    +0.178 A 
ATOM      2  N   UNL     1      -1.959  -1.304  -0.926  0.00  0.00    -0.155 NA
ATOM      3  C   UNL     1      -3.203  -1.578  -0.612  0.00  0.00    +0.462 A 
ATOM      4  O   UNL     1      -4.054  -2.338  -1.335  0.00  0.00    -0.219 OA
ATOM      5  O   UNL     1      -3.482  -0.971   0.551  0.00  0.00    -0.294 OA
ATOM      6  N   UNL     1      -2.296  -0.295   0.941  0.00  0.00    -0.057 NA
ENDROOT
BRANCH   1   8
ATOM      7  C   UNL     1      -0.019   1.526   0.010  0.00  0.00    +0.015 C 
ATOM      8  C   UNL     1       0.002  -0.004   0.002  0.00  0.00    +0.054 C 
ATOM      9  C   UNL     1       0.742  -0.511   1.242  0.00  0.00    +0.015 C 
ENDBRANCH   1   8
TORSDOF 1
