REMARK  Name = ZINC16426038
REMARK  10 active torsions:
REMARK  status: ('A' for Active; 'I' for Inactive)
REMARK    1  A    between atoms: C_1  and  C_2
REMARK    2  A    between atoms: C_3  and  C_18
REMARK    3  A    between atoms: C_4  and  C_10
REMARK    4  A    between atoms: C_13  and  S_16
REMARK    5  A    between atoms: S_16  and  C_17
REMARK    6  A    between atoms: N_20  and  C_21
REMARK    7  A    between atoms: C_23  and  O_29
REMARK    8  A    between atoms: C_26  and  O_27
REMARK    9  A    between atoms: O_27  and  C_28
REMARK   10  A    between atoms: O_29  and  C_30
REMARK                            x       y       z     vdW  Elec       q    Type
REMARK                         _______ _______ _______ _____ _____    ______ ____
ROOT
ATOM      1  C   UNL     1       4.548   6.248  -0.568  0.00  0.00    +0.061 C 
ATOM      2  C   UNL     1       3.133   6.706  -0.323  0.00  0.00    +0.017 C 
ATOM      3  C   UNL     1       2.135   5.797  -0.310  0.00  0.00    +0.056 C 
ATOM      4  C   UNL     1       0.728   6.299  -0.053  0.00  0.00    +0.139 C 
ATOM      5  N   UNL     1       0.564   7.747   0.155  0.00  0.00    -0.315 N 
ATOM      6  C   UNL     1       1.659   8.530   0.107  0.00  0.00    +0.135 C 
ATOM      7  S   UNL     1       1.483  10.216   0.347  0.00  0.00    -0.019 S 
ATOM      8  N   UNL     1       2.881   8.033  -0.124  0.00  0.00    -0.300 N 
ATOM      9  H   UNL     1      -0.312   8.128   0.324  0.00  0.00    +0.149 HD
ATOM     10  H   UNL     1       3.629   8.650  -0.147  0.00  0.00    +0.154 HD
ENDROOT
BRANCH   4  11
ATOM     11  C   UNL     1      -0.129   5.899  -1.227  0.00  0.00    -0.023 A 
ATOM     12  C   UNL     1      -0.017   6.578  -2.426  0.00  0.00    +0.007 A 
ATOM     13  C   UNL     1      -0.797   6.212  -3.505  0.00  0.00    +0.015 A 
ATOM     14  C   UNL     1      -1.703   5.165  -3.381  0.00  0.00    +0.008 A 
ATOM     15  C   UNL     1      -1.817   4.488  -2.173  0.00  0.00    +0.015 A 
ATOM     16  C   UNL     1      -1.030   4.857  -1.100  0.00  0.00    +0.007 A 
BRANCH  14  17
ATOM     17  S   UNL     1      -2.705   4.699  -4.753  0.00  0.00    -0.129 S 
ATOM     18  C   UNL     1      -2.208   5.844  -6.070  0.00  0.00    +0.090 C 
ENDBRANCH  14  17
ENDBRANCH   4  11
BRANCH   3  19
ATOM     19  C   UNL     1       2.394   4.421  -0.522  0.00  0.00    +0.248 C 
ATOM     20  O   UNL     1       2.537   3.675   0.429  0.00  0.00    -0.270 OA
ATOM     21  N   UNL     1       2.482   3.938  -1.777  0.00  0.00    -0.279 N 
ATOM     22  H   UNL     1       2.460   4.545  -2.533  0.00  0.00    +0.155 HD
BRANCH  21  23
ATOM     23  C   UNL     1       2.606   2.559  -1.989  0.00  0.00    +0.079 A 
ATOM     24  C   UNL     1       3.262   1.768  -1.057  0.00  0.00    +0.072 A 
ATOM     25  C   UNL     1       3.383   0.404  -1.270  0.00  0.00    +0.122 A 
ATOM     26  C   UNL     1       2.850  -0.170  -2.414  0.00  0.00    +0.049 A 
ATOM     27  C   UNL     1       2.196   0.615  -3.345  0.00  0.00    +0.051 A 
ATOM     28  C   UNL     1       2.072   1.979  -3.138  0.00  0.00    +0.141 A 
BRANCH  28  29
ATOM     29  O   UNL     1       1.434   2.752  -4.057  0.00  0.00    -0.493 OA
ATOM     30  C   UNL     1       0.916   2.092  -5.213  0.00  0.00    +0.277 C 
ENDBRANCH  28  29
BRANCH  25  31
ATOM     31  O   UNL     1       4.025  -0.372  -0.356  0.00  0.00    -0.495 OA
ATOM     32  C   UNL     1       4.114  -1.770  -0.640  0.00  0.00    +0.277 C 
ENDBRANCH  25  31
ENDBRANCH  21  23
ENDBRANCH   3  19
TORSDOF 6
