REMARK  Name = ZINC09544805
REMARK  10 active torsions:
REMARK  status: ('A' for Active; 'I' for Inactive)
REMARK    1  A    between atoms: C_1  and  C_2
REMARK    2  A    between atoms: C_2  and  C_3
REMARK    3  A    between atoms: C_2  and  C_4
REMARK    4  A    between atoms: C_4  and  C_5
REMARK    5  A    between atoms: C_8  and  C_11
REMARK    6  A    between atoms: C_11  and  C_13
REMARK    7  A    between atoms: C_11  and  N_56
REMARK    8  A    between atoms: C_18  and  C_19
REMARK    9  A    between atoms: C_18  and  N_56
REMARK   10  A    between atoms: N_21  and  C_22
REMARK                            x       y       z     vdW  Elec       q    Type
REMARK                         _______ _______ _______ _____ _____    ______ ____
ROOT
ATOM      1  N   UNL     1       1.923  -2.501   0.857  0.00  0.00    +0.392 N 
ATOM      2  H   UNL     1       2.164  -3.450   0.549  0.00  0.00    -0.084 HD
ATOM      3  H   UNL     1       0.904  -2.376   0.813  0.00  0.00    -0.084 HD
ENDROOT
BRANCH   1   4
ATOM      4  C   UNL     1       2.573  -1.520  -0.032  0.00  0.00    -0.003 C 
BRANCH   4   8
ATOM      5  C   UNL     1       2.673  -3.082  -4.006  0.00  0.00    -0.047 A 
ATOM      6  C   UNL     1       3.760  -2.387  -3.509  0.00  0.00    +0.004 A 
ATOM      7  C   UNL     1       3.727  -1.881  -2.223  0.00  0.00    +0.002 A 
ATOM      8  C   UNL     1       2.608  -2.071  -1.434  0.00  0.00    -0.057 A 
ATOM      9  C   UNL     1       1.524  -2.770  -1.929  0.00  0.00    +0.002 A 
ATOM     10  C   UNL     1       1.554  -3.271  -3.217  0.00  0.00    +0.004 A 
BRANCH   5  11
ATOM     11  C   UNL     1       2.708  -3.633  -5.409  0.00  0.00    +0.038 C 
BRANCH  11  13
ATOM     12  C   UNL     1       2.332  -5.971  -4.612  0.00  0.00    +0.007 C 
ATOM     13  C   UNL     1       3.280  -5.052  -5.384  0.00  0.00    -0.013 C 
ATOM     14  C   UNL     1       3.433  -5.565  -6.818  0.00  0.00    +0.007 C 
ENDBRANCH  11  13
ENDBRANCH   5  11
ENDBRANCH   4   8
BRANCH   4  15
ATOM     15  C   UNL     1       1.791  -0.232  -0.017  0.00  0.00    -0.020 A 
ATOM     16  C   UNL     1       2.248   1.044  -0.015  0.00  0.00    +0.010 A 
ATOM     17  C   UNL     1       1.336   2.083  -0.001  0.00  0.00    +0.008 A 
ATOM     18  C   UNL     1       0.012   1.794   0.012  0.00  0.00    +0.045 A 
ATOM     19  S   UNL     1       0.022   0.009   0.003  0.00  0.00    -0.103 S 
ENDBRANCH   4  15
ENDBRANCH   1   4
BRANCH   1  20
ATOM     20  C   UNL     1       2.376  -2.312   2.248  0.00  0.00    +0.016 C 
BRANCH  20  21
ATOM     21  C   UNL     1       1.696  -3.326   3.132  0.00  0.00    +0.200 C 
ATOM     22  O   UNL     1       0.916  -4.122   2.653  0.00  0.00    -0.278 OA
ATOM     23  N   UNL     1       1.955  -3.348   4.454  0.00  0.00    -0.287 N 
ATOM     24  H   UNL     1       2.628  -2.757   4.827  0.00  0.00    +0.155 HD
BRANCH  23  25
ATOM     25  C   UNL     1       1.252  -4.225   5.291  0.00  0.00    +0.035 A 
ATOM     26  C   UNL     1       0.930  -3.839   6.587  0.00  0.00    +0.025 A 
ATOM     27  C   UNL     1       0.233  -4.696   7.414  0.00  0.00    +0.029 A 
ATOM     28  C   UNL     1      -0.137  -5.952   6.956  0.00  0.00    +0.067 A 
ATOM     29  C   UNL     1       0.190  -6.345   5.656  0.00  0.00    +0.069 A 
ATOM     30  C   UNL     1       0.885  -5.479   4.826  0.00  0.00    +0.051 A 
ATOM     31  N   UNL     1      -0.307  -7.635   5.489  0.00  0.00    -0.306 N 
ATOM     32  H   UNL     1      -0.232  -8.172   4.684  0.00  0.00    +0.170 HD
ATOM     33  C   UNL     1      -0.909  -8.011   6.633  0.00  0.00    +0.325 A 
ATOM     34  O   UNL     1      -1.448  -9.085   6.821  0.00  0.00    -0.247 OA
ATOM     35  N   UNL     1      -0.824  -7.017   7.537  0.00  0.00    -0.306 N 
ATOM     36  H   UNL     1      -1.179  -7.039   8.440  0.00  0.00    +0.170 HD
ENDBRANCH  23  25
ENDBRANCH  20  21
ENDBRANCH   1  20
TORSDOF 8
