REMARK  Name = ZINC35069171
REMARK  19 active torsions:
REMARK  status: ('A' for Active; 'I' for Inactive)
REMARK    1  A    between atoms: C_1  and  C_2
REMARK    2  A    between atoms: C_5  and  N_9
REMARK    3  A    between atoms: C_7  and  C_8
REMARK    4  A    between atoms: C_19  and  C_20
REMARK    5  A    between atoms: C_20  and  C_22
REMARK    6  A    between atoms: C_20  and  N_23
REMARK    7  A    between atoms: N_23  and  C_24
REMARK    8  A    between atoms: C_24  and  C_25
REMARK    9  A    between atoms: C_25  and  N_26
REMARK   10  A    between atoms: N_26  and  C_27
REMARK   11  A    between atoms: N_26  and  C_28
REMARK   12  A    between atoms: C_29  and  C_31
REMARK   13  A    between atoms: C_31  and  C_32
REMARK   14  A    between atoms: C_32  and  C_34
REMARK   15  A    between atoms: C_32  and  C_35
REMARK   16  A    between atoms: C_35  and  C_36
REMARK   17  A    between atoms: C_36  and  C_37
REMARK   18  A    between atoms: C_36  and  C_38
REMARK   19  A    between atoms: C_36  and  C_39
REMARK                            x       y       z     vdW  Elec       q    Type
REMARK                         _______ _______ _______ _____ _____    ______ ____
ROOT
ATOM      1  N   UNL     1      -2.832  -7.144  -0.624  0.00  0.00    -0.263 N 
ATOM      2  C   UNL     1      -2.946  -8.056   0.369  0.00  0.00    +0.266 A 
ATOM      3  O   UNL     1      -3.869  -8.850   0.396  0.00  0.00    -0.267 OA
ATOM      4  C   UNL     1      -1.912  -8.052   1.414  0.00  0.00    +0.065 A 
ATOM      5  C   UNL     1      -1.938  -8.951   2.479  0.00  0.00    +0.015 A 
ATOM      6  C   UNL     1      -0.943  -8.903   3.431  0.00  0.00    +0.001 A 
ATOM      7  C   UNL     1       0.081  -7.970   3.337  0.00  0.00    +0.002 A 
ATOM      8  C   UNL     1       0.124  -7.073   2.293  0.00  0.00    +0.028 A 
ATOM      9  C   UNL     1      -0.872  -7.102   1.315  0.00  0.00    +0.078 A 
ATOM     10  N   UNL     1      -0.868  -6.238   0.270  0.00  0.00    -0.231 NA
ATOM     11  C   UNL     1      -1.791  -6.268  -0.642  0.00  0.00    +0.138 A 
ENDROOT
BRANCH   1  16
ATOM     12  C   UNL     1      -6.714  -6.986  -4.759  0.00  0.00    +0.044 C 
ATOM     13  C   UNL     1      -5.683  -7.028  -3.661  0.00  0.00    -0.047 A 
ATOM     14  C   UNL     1      -5.620  -6.003  -2.734  0.00  0.00    +0.005 A 
ATOM     15  C   UNL     1      -4.677  -6.039  -1.726  0.00  0.00    +0.026 A 
ATOM     16  C   UNL     1      -3.790  -7.105  -1.644  0.00  0.00    +0.051 A 
ATOM     17  C   UNL     1      -3.856  -8.132  -2.576  0.00  0.00    +0.030 A 
ATOM     18  C   UNL     1      -4.806  -8.093  -3.579  0.00  0.00    -0.046 A 
ATOM     19  C   UNL     1      -4.882  -9.211  -4.587  0.00  0.00    +0.044 C 
ENDBRANCH   1  16
BRANCH  11  20
ATOM     20  C   UNL     1      -1.710  -5.277  -1.776  0.00  0.00    +0.139 C 
ATOM     21  C   UNL     1      -0.695  -4.187  -1.428  0.00  0.00    +0.036 C 
BRANCH  20  22
ATOM     22  N   UNL     1      -1.287  -5.967  -2.997  0.00  0.00    -0.293 N 
ATOM     23  C   UNL     1      -2.027  -5.866  -4.119  0.00  0.00    +0.216 C 
ATOM     24  O   UNL     1      -3.044  -5.205  -4.117  0.00  0.00    -0.276 OA
BRANCH  22  25
ATOM     25  C   UNL     1      -0.059  -6.766  -2.999  0.00  0.00    +0.090 C 
BRANCH  25  26
ATOM     26  C   UNL     1      -0.406  -8.234  -2.742  0.00  0.00    -0.060 C 
BRANCH  26  27
ATOM     27  N   UNL     1       0.832  -9.022  -2.663  0.00  0.00    +0.377 N 
ATOM     28  C   UNL     1       1.610  -8.596  -1.492  0.00  0.00    -0.097 C 
ATOM     29  C   UNL     1       0.497 -10.447  -2.535  0.00  0.00    -0.097 C 
ATOM     30  H   UNL     1       1.376  -8.878  -3.500  0.00  0.00    -0.083 HD
ENDBRANCH  26  27
ENDBRANCH  25  26
ENDBRANCH  22  25
BRANCH  23  31
ATOM     31  C   UNL     1      -1.592  -6.575  -5.375  0.00  0.00    +0.099 C 
BRANCH  31  32
ATOM     32  C   UNL     1      -2.600  -6.299  -6.492  0.00  0.00    -0.005 C 
ATOM     33  C   UNL     1      -2.580  -4.809  -6.840  0.00  0.00    +0.008 C 
BRANCH  32  34
ATOM     34  C   UNL     1      -2.227  -7.117  -7.730  0.00  0.00    +0.010 C 
BRANCH  34  35
ATOM     35  C   UNL     1      -3.307  -6.944  -8.800  0.00  0.00    -0.037 C 
ATOM     36  C   UNL     1      -3.095  -5.615  -9.528  0.00  0.00    +0.010 C 
ATOM     37  C   UNL     1      -3.219  -8.095  -9.804  0.00  0.00    +0.010 C 
ATOM     38  C   UNL     1      -4.686  -6.948  -8.139  0.00  0.00    +0.010 C 
ENDBRANCH  34  35
ENDBRANCH  32  34
ENDBRANCH  31  32
ENDBRANCH  23  31
ENDBRANCH  20  22
ENDBRANCH  11  20
TORSDOF 10
