REMARK  Name = ZINC39700521
REMARK  6 active torsions:
REMARK  status: ('A' for Active; 'I' for Inactive)
REMARK    1  A    between atoms: C_1  and  N_2
REMARK    2  A    between atoms: N_2  and  C_3
REMARK    3  A    between atoms: C_7  and  C_9
REMARK    4  A    between atoms: C_13  and  N_14
REMARK    5  A    between atoms: C_15  and  C_17
REMARK    6  A    between atoms: C_17  and  N_18
REMARK                            x       y       z     vdW  Elec       q    Type
REMARK                         _______ _______ _______ _____ _____    ______ ____
ROOT
ATOM      1  C   UNL     1       0.036  -4.152  -2.355  0.00  0.00    +0.069 A 
ATOM      2  C   UNL     1      -1.193  -4.926  -2.353  0.00  0.00    -0.023 A 
ATOM      3  C   UNL     1      -1.005  -6.263  -2.361  0.00  0.00    -0.004 A 
ATOM      4  S   UNL     1       0.752  -6.468  -2.372  0.00  0.00    -0.077 S 
ATOM      5  C   UNL     1       1.230  -4.858  -2.371  0.00  0.00    +0.084 A 
ATOM      6  C   UNL     1      -2.064  -7.321  -2.360  0.00  0.00    +0.043 C 
ATOM      7  C   UNL     1      -3.398  -6.667  -1.968  0.00  0.00    +0.005 C 
ATOM      8  C   UNL     1      -3.588  -5.393  -2.796  0.00  0.00    +0.005 C 
ATOM      9  C   UNL     1      -2.591  -4.324  -2.344  0.00  0.00    +0.037 C 
ENDROOT
BRANCH   1  16
ATOM     10  C   UNL     1      -0.018   1.461   0.010  0.00  0.00    +0.133 C 
ATOM     11  N   UNL     1       0.002  -0.004   0.002  0.00  0.00    -0.291 N 
ATOM     12  C   UNL     1       0.024  -0.743   1.267  0.00  0.00    +0.133 C 
ATOM     13  C   UNL     1       0.000  -0.672  -1.169  0.00  0.00    +0.308 C 
ATOM     14  O   UNL     1      -0.018  -0.058  -2.218  0.00  0.00    -0.252 OA
ATOM     15  N   UNL     1       0.018  -2.019  -1.176  0.00  0.00    -0.236 N 
ATOM     16  C   UNL     1       0.016  -2.687  -2.347  0.00  0.00    +0.254 C 
ATOM     17  O   UNL     1      -0.002  -2.073  -3.397  0.00  0.00    -0.270 OA
ATOM     18  H   UNL     1       0.033  -2.509  -0.339  0.00  0.00    +0.159 HD
ENDBRANCH   1  16
BRANCH   5  19
ATOM     19  N   UNL     1       2.520  -4.352  -2.381  0.00  0.00    -0.278 N 
ATOM     20  C   UNL     1       3.573  -5.192  -2.396  0.00  0.00    +0.235 C 
ATOM     21  O   UNL     1       3.393  -6.391  -2.401  0.00  0.00    -0.274 OA
ATOM     22  H   UNL     1       2.664  -3.393  -2.377  0.00  0.00    +0.155 HD
BRANCH  20  23
ATOM     23  C   UNL     1       4.976  -4.641  -2.406  0.00  0.00    +0.213 C 
BRANCH  23  24
ATOM     24  N   UNL     1       5.935  -5.749  -2.422  0.00  0.00    -0.225 N 
ATOM     25  C   UNL     1       6.440  -6.334  -1.321  0.00  0.00    +0.254 C 
ATOM     26  O   UNL     1       6.178  -6.033  -0.174  0.00  0.00    -0.270 OA
ATOM     27  C   UNL     1       7.368  -7.406  -1.741  0.00  0.00    +0.049 A 
ATOM     28  C   UNL     1       8.159  -8.321  -1.064  0.00  0.00    +0.014 A 
ATOM     29  C   UNL     1       8.936  -9.218  -1.780  0.00  0.00    +0.001 A 
ATOM     30  C   UNL     1       8.928  -9.206  -3.162  0.00  0.00    +0.001 A 
ATOM     31  C   UNL     1       8.142  -8.296  -3.852  0.00  0.00    +0.014 A 
ATOM     32  C   UNL     1       7.359  -7.393  -3.150  0.00  0.00    +0.049 A 
ATOM     33  C   UNL     1       6.423  -6.318  -3.539  0.00  0.00    +0.254 C 
ATOM     34  O   UNL     1       6.142  -6.000  -4.677  0.00  0.00    -0.270 OA
ENDBRANCH  23  24
ENDBRANCH  20  23
ENDBRANCH   5  19
TORSDOF 4
