REMARK  Name = ZINC35671284
REMARK  12 active torsions:
REMARK  status: ('A' for Active; 'I' for Inactive)
REMARK    1  A    between atoms: C_1  and  C_2
REMARK    2  A    between atoms: C_2  and  N_3
REMARK    3  A    between atoms: N_3  and  C_4
REMARK    4  A    between atoms: N_3  and  C_6
REMARK    5  A    between atoms: C_4  and  C_5
REMARK    6  A    between atoms: C_6  and  C_8
REMARK    7  A    between atoms: C_6  and  C_24
REMARK    8  A    between atoms: C_8  and  N_9
REMARK    9  A    between atoms: C_27  and  C_30
REMARK   10  A    between atoms: C_30  and  C_31
REMARK   11  A    between atoms: C_30  and  C_32
REMARK   12  A    between atoms: C_30  and  C_33
REMARK                            x       y       z     vdW  Elec       q    Type
REMARK                         _______ _______ _______ _____ _____    ______ ____
ROOT
ATOM      1  C   UNL     1      -0.361  -0.083  -2.806  0.00  0.00    -0.017 C 
ENDROOT
BRANCH   1   2
ATOM      2  C   UNL     1       0.253  -0.599  -4.082  0.00  0.00    -0.059 A 
ATOM      3  C   UNL     1       1.616  -0.818  -4.153  0.00  0.00    +0.002 A 
ATOM      4  C   UNL     1       2.180  -1.290  -5.324  0.00  0.00    +0.004 A 
ATOM      5  C   UNL     1       1.380  -1.545  -6.422  0.00  0.00    -0.042 A 
ATOM      6  C   UNL     1       0.017  -1.327  -6.350  0.00  0.00    +0.004 A 
ATOM      7  C   UNL     1      -0.547  -0.858  -5.179  0.00  0.00    +0.002 A 
BRANCH   5   8
ATOM      8  C   UNL     1       1.995  -2.059  -7.698  0.00  0.00    -0.013 C 
ATOM      9  C   UNL     1       2.688  -3.397  -7.428  0.00  0.00    +0.015 C 
ATOM     10  C   UNL     1       0.900  -2.256  -8.749  0.00  0.00    +0.015 C 
ATOM     11  C   UNL     1       3.021  -1.049  -8.214  0.00  0.00    +0.015 C 
ENDBRANCH   5   8
ENDBRANCH   1   2
BRANCH   1  12
ATOM     12  N   UNL     1      -0.325  -1.138  -1.784  0.00  0.00    +0.385 N 
ATOM     13  H   UNL     1      -0.645  -2.006  -2.185  0.00  0.00    -0.081 HD
BRANCH  12  15
ATOM     14  C   UNL     1       1.673  -2.545  -1.935  0.00  0.00    -0.017 C 
ATOM     15  C   UNL     1       1.051  -1.301  -1.298  0.00  0.00    -0.081 C 
ENDBRANCH  12  15
BRANCH  12  16
ATOM     16  C   UNL     1      -1.199  -0.764  -0.664  0.00  0.00    -0.081 C 
ATOM     17  C   UNL     1      -2.654  -0.739  -1.138  0.00  0.00    -0.017 C 
ENDBRANCH  12  16
ENDBRANCH   1  12
BRANCH   1  18
ATOM     18  C   UNL     1       0.428   1.131  -2.314  0.00  0.00    +0.115 C 
BRANCH  18  19
ATOM     19  N   UNL     1      -0.145   1.608  -1.053  0.00  0.00    -0.300 N 
ATOM     20  C   UNL     1      -1.349   2.240  -1.042  0.00  0.00    +0.202 A 
ATOM     21  N   UNL     1      -1.906   2.684   0.039  0.00  0.00    -0.235 NA
ATOM     22  C   UNL     1      -1.312   2.547   1.271  0.00  0.00    +0.107 A 
ATOM     23  C   UNL     1      -1.810   2.983   2.516  0.00  0.00    +0.081 A 
ATOM     24  C   UNL     1      -1.029   2.732   3.621  0.00  0.00    +0.070 A 
ATOM     25  S   UNL     1       0.394   1.895   2.999  0.00  0.00    -0.073 S 
ATOM     26  C   UNL     1      -0.065   1.894   1.283  0.00  0.00    +0.105 A 
ATOM     27  C   UNL     1       0.517   1.419   0.114  0.00  0.00    +0.268 A 
ATOM     28  O   UNL     1       1.597   0.851   0.137  0.00  0.00    -0.266 OA
ATOM     29  S   UNL     1      -1.442   3.190   5.262  0.00  0.00    -0.107 S 
ATOM     30  C   UNL     1      -2.558   4.602   4.969  0.00  0.00    +0.171 C 
ATOM     31  C   UNL     1      -3.421   4.307   3.775  0.00  0.00    +0.227 C 
ATOM     32  O   UNL     1      -4.566   4.707   3.817  0.00  0.00    -0.275 OA
ATOM     33  N   UNL     1      -3.056   3.651   2.676  0.00  0.00    -0.282 N 
ATOM     34  H   UNL     1      -3.681   3.627   1.935  0.00  0.00    +0.155 HD
ENDBRANCH  18  19
ENDBRANCH   1  18
TORSDOF 7
