REMARK  Name = ZINC38829967
REMARK  10 active torsions:
REMARK  status: ('A' for Active; 'I' for Inactive)
REMARK    1  A    between atoms: C_1  and  C_2
REMARK    2  A    between atoms: C_3  and  C_25
REMARK    3  A    between atoms: N_9  and  C_17
REMARK    4  A    between atoms: N_11  and  C_13
REMARK    5  A    between atoms: C_13  and  C_14
REMARK    6  A    between atoms: C_14  and  C_15
REMARK    7  A    between atoms: C_15  and  O_16
REMARK    8  A    between atoms: C_20  and  O_23
REMARK    9  A    between atoms: O_23  and  C_24
REMARK   10  A    between atoms: C_25  and  C_26
REMARK                            x       y       z     vdW  Elec       q    Type
REMARK                         _______ _______ _______ _____ _____    ______ ____
ROOT
ATOM      1  C   UNL     1       0.245   1.525  -0.965  0.00  0.00    +0.066 C 
ATOM      2  C   UNL     1       0.178   0.040  -0.717  0.00  0.00    +0.050 A 
ATOM      3  C   UNL     1      -1.026  -0.601  -0.733  0.00  0.00    +0.042 A 
ATOM      4  C   UNL     1      -1.059  -1.989  -0.518  0.00  0.00    +0.257 A 
ATOM      5  O   UNL     1      -2.121  -2.590  -0.507  0.00  0.00    -0.267 OA
ATOM      6  N   UNL     1       0.106  -2.650  -0.323  0.00  0.00    -0.297 N 
ATOM      7  C   UNL     1       1.271  -1.949  -0.265  0.00  0.00    +0.202 A 
ATOM      8  N   UNL     1       1.293  -0.647  -0.486  0.00  0.00    -0.220 NA
ATOM      9  N   UNL     1       2.437  -2.593   0.059  0.00  0.00    -0.288 N 
ATOM     10  C   UNL     1       2.498  -4.051   0.066  0.00  0.00    +0.041 C 
ATOM     11  N   UNL     1       1.238  -4.626   0.519  0.00  0.00    +0.402 N 
ATOM     12  C   UNL     1       0.088  -4.103  -0.199  0.00  0.00    +0.055 C 
ATOM     13  H   UNL     1       1.125  -4.429   1.502  0.00  0.00    -0.077 HD
ENDROOT
BRANCH   9  14
ATOM     14  C   UNL     1       3.577  -1.847   0.384  0.00  0.00    +0.035 A 
ATOM     15  C   UNL     1       3.605  -1.094   1.550  0.00  0.00    +0.027 A 
ATOM     16  C   UNL     1       4.729  -0.359   1.870  0.00  0.00    +0.047 A 
ATOM     17  C   UNL     1       5.831  -0.373   1.026  0.00  0.00    +0.120 A 
ATOM     18  C   UNL     1       5.804  -1.125  -0.138  0.00  0.00    +0.047 A 
ATOM     19  C   UNL     1       4.682  -1.866  -0.457  0.00  0.00    +0.027 A 
BRANCH  17  20
ATOM     20  O   UNL     1       6.937   0.352   1.342  0.00  0.00    -0.495 OA
ATOM     21  C   UNL     1       8.034   0.291   0.428  0.00  0.00    +0.277 C 
ENDBRANCH  17  20
ENDBRANCH   9  14
BRANCH  11  22
ATOM     22  C   UNL     1       1.289  -6.083   0.334  0.00  0.00    -0.072 C 
BRANCH  22  23
ATOM     23  C   UNL     1       0.025  -6.716   0.919  0.00  0.00    +0.009 C 
BRANCH  23  24
ATOM     24  C   UNL     1       0.078  -8.233   0.727  0.00  0.00    +0.154 C 
BRANCH  24  25
ATOM     25  O   UNL     1      -1.102  -8.824   1.273  0.00  0.00    -0.395 OA
ATOM     26  H   UNL     1      -1.137  -9.786   1.186  0.00  0.00    +0.209 HD
ENDBRANCH  24  25
ENDBRANCH  23  24
ENDBRANCH  22  23
ENDBRANCH  11  22
BRANCH   3  27
ATOM     27  C   UNL     1      -2.300   0.166  -0.979  0.00  0.00    +0.077 C 
BRANCH  27  28
ATOM     28  C   UNL     1      -2.654   0.098  -2.442  0.00  0.00    -0.043 A 
ATOM     29  C   UNL     1      -2.174   1.057  -3.314  0.00  0.00    +0.004 A 
ATOM     30  C   UNL     1      -2.498   0.995  -4.656  0.00  0.00    +0.000 A 
ATOM     31  C   UNL     1      -3.302  -0.027  -5.127  0.00  0.00    +0.000 A 
ATOM     32  C   UNL     1      -3.781  -0.986  -4.254  0.00  0.00    +0.000 A 
ATOM     33  C   UNL     1      -3.453  -0.926  -2.913  0.00  0.00    +0.004 A 
ENDBRANCH  27  28
ENDBRANCH   3  27
TORSDOF 8
