REMARK  Name = ZINC01052123
REMARK  15 active torsions:
REMARK  status: ('A' for Active; 'I' for Inactive)
REMARK    1  A    between atoms: C_1  and  C_2
REMARK    2  A    between atoms: C_3  and  C_36
REMARK    3  A    between atoms: C_4  and  C_34
REMARK    4  A    between atoms: C_5  and  S_9
REMARK    5  A    between atoms: C_7  and  C_8
REMARK    6  A    between atoms: S_9  and  C_10
REMARK    7  A    between atoms: C_10  and  C_11
REMARK    8  A    between atoms: C_12  and  C_28
REMARK    9  A    between atoms: C_13  and  C_21
REMARK   10  A    between atoms: C_15  and  C_19
REMARK   11  A    between atoms: C_16  and  N_18
REMARK   12  A    between atoms: C_28  and  O_30
REMARK   13  A    between atoms: O_30  and  C_31
REMARK   14  A    between atoms: C_31  and  C_32
REMARK   15  A    between atoms: C_31  and  C_33
REMARK                            x       y       z     vdW  Elec       q    Type
REMARK                         _______ _______ _______ _____ _____    ______ ____
ROOT
ATOM      1  C   UNL     1      -2.563  -1.862  -0.008  0.00  0.00    +0.128 C 
ATOM      2  C   UNL     1      -2.292  -2.446   1.166  0.00  0.00    +0.088 C 
ATOM      3  C   UNL     1      -1.902  -3.898   1.240  0.00  0.00    +0.105 C 
ATOM      4  C   UNL     1      -2.264  -4.588  -0.048  0.00  0.00    +0.098 C 
ATOM      5  C   UNL     1      -2.541  -3.871  -1.164  0.00  0.00    +0.198 C 
ATOM      6  O   UNL     1      -2.507  -2.529  -1.170  0.00  0.00    -0.444 OA
ENDROOT
BRANCH   3   7
ATOM      7  C   UNL     1      -0.416  -4.007   1.465  0.00  0.00    -0.032 A 
ATOM      8  C   UNL     1       0.464  -3.476   0.540  0.00  0.00    +0.005 A 
ATOM      9  C   UNL     1       1.827  -3.571   0.748  0.00  0.00    +0.003 A 
ATOM     10  C   UNL     1       2.312  -4.207   1.876  0.00  0.00    +0.038 A 
ATOM     11  C   UNL     1       1.432  -4.744   2.799  0.00  0.00    +0.124 A 
ATOM     12  C   UNL     1       0.066  -4.643   2.593  0.00  0.00    +0.043 A 
ATOM     13  F   UNL     1       1.905  -5.366   3.901  0.00  0.00    -0.205 F 
ENDBRANCH   3   7
BRANCH   5  14
ATOM     14  N   UNL     1      -2.870  -4.535  -2.319  0.00  0.00    -0.328 N 
ATOM     15  H   UNL     1      -2.902  -5.505  -2.329  0.00  0.00    +0.145 HD
ATOM     16  H   UNL     1      -3.070  -4.035  -3.126  0.00  0.00    +0.145 HD
ENDBRANCH   5  14
BRANCH   4  17
ATOM     17  C   UNL     1      -2.317  -6.018  -0.094  0.00  0.00    +0.101 C 
ATOM     18  N   UNL     1      -2.359  -7.153  -0.130  0.00  0.00    -0.191 NA
ENDBRANCH   4  17
BRANCH   2  19
ATOM     19  C   UNL     1      -2.373  -1.686   2.358  0.00  0.00    +0.340 C 
ATOM     20  O   UNL     1      -2.273  -0.474   2.314  0.00  0.00    -0.245 OA
BRANCH  19  21
ATOM     21  O   UNL     1      -2.562  -2.305   3.542  0.00  0.00    -0.459 OA
BRANCH  21  22
ATOM     22  C   UNL     1      -2.635  -1.476   4.703  0.00  0.00    +0.171 C 
ATOM     23  C   UNL     1      -4.089  -1.068   4.948  0.00  0.00    +0.052 C 
ATOM     24  C   UNL     1      -2.111  -2.249   5.915  0.00  0.00    +0.052 C 
ENDBRANCH  21  22
ENDBRANCH  19  21
ENDBRANCH   2  19
BRANCH   1  25
ATOM     25  C   UNL     1      -2.949  -0.406  -0.023  0.00  0.00    +0.150 C 
BRANCH  25  26
ATOM     26  S   UNL     1      -1.549   0.585  -0.602  0.00  0.00    -0.097 S 
BRANCH  26  31
ATOM     27  C   UNL     1      -4.065   6.025  -0.293  0.00  0.00    +0.046 C 
ATOM     28  C   UNL     1      -3.392   4.680  -0.386  0.00  0.00    -0.025 A 
ATOM     29  C   UNL     1      -2.083   4.584  -0.825  0.00  0.00    -0.026 A 
ATOM     30  C   UNL     1      -1.496   3.316  -0.897  0.00  0.00    +0.087 A 
ATOM     31  C   UNL     1      -2.260   2.195  -0.522  0.00  0.00    +0.115 A 
ATOM     32  N   UNL     1      -3.511   2.344  -0.115  0.00  0.00    -0.244 NA
ATOM     33  C   UNL     1      -4.079   3.531  -0.035  0.00  0.00    +0.043 A 
ATOM     34  C   UNL     1      -5.504   3.639   0.441  0.00  0.00    +0.066 C 
ATOM     35  C   UNL     1      -1.308   5.816  -1.215  0.00  0.00    +0.045 C 
BRANCH  30  36
ATOM     36  C   UNL     1      -0.145   3.161  -1.344  0.00  0.00    +0.102 C 
ATOM     37  N   UNL     1       0.927   3.039  -1.698  0.00  0.00    -0.191 NA
ENDBRANCH  30  36
ENDBRANCH  26  31
ENDBRANCH  25  26
ENDBRANCH   1  25
TORSDOF 10
