REMARK  Name = ZINC33810343
REMARK  12 active torsions:
REMARK  status: ('A' for Active; 'I' for Inactive)
REMARK    1  A    between atoms: C_1  and  C_2
REMARK    2  A    between atoms: C_2  and  C_35
REMARK    3  A    between atoms: C_6  and  C_20
REMARK    4  A    between atoms: C_11  and  S_15
REMARK    5  A    between atoms: S_15  and  C_16
REMARK    6  A    between atoms: C_16  and  C_17
REMARK    7  A    between atoms: C_22  and  O_30
REMARK    8  A    between atoms: C_23  and  O_28
REMARK    9  A    between atoms: C_25  and  O_26
REMARK   10  A    between atoms: O_26  and  C_27
REMARK   11  A    between atoms: O_28  and  C_29
REMARK   12  A    between atoms: O_30  and  C_31
REMARK                            x       y       z     vdW  Elec       q    Type
REMARK                         _______ _______ _______ _____ _____    ______ ____
ROOT
ATOM      1  C   UNL     1       3.070  -3.685   3.036  0.00  0.00    +0.011 C 
ATOM      2  C   UNL     1       3.286  -4.531   1.780  0.00  0.00    -0.023 C 
ATOM      3  C   UNL     1       2.225  -4.180   0.734  0.00  0.00    +0.058 C 
ATOM      4  C   UNL     1       2.355  -2.727   0.350  0.00  0.00    +0.017 C 
ATOM      5  C   UNL     1       3.554  -2.107   0.365  0.00  0.00    +0.024 C 
ATOM      6  C   UNL     1       3.686  -0.663  -0.048  0.00  0.00    +0.096 C 
ATOM      7  C   UNL     1       2.358   0.034  -0.024  0.00  0.00    +0.069 A 
ATOM      8  C   UNL     1       1.197  -0.675  -0.015  0.00  0.00    +0.135 A 
ATOM      9  N   UNL     1       0.002  -0.004   0.002  0.00  0.00    -0.208 NA
ATOM     10  C   UNL     1      -0.016   1.358   0.009  0.00  0.00    +0.171 A 
ATOM     11  N   UNL     1       1.101   2.055   0.003  0.00  0.00    -0.302 N 
ATOM     12  C   UNL     1       2.296   1.444  -0.012  0.00  0.00    +0.258 A 
ATOM     13  O   UNL     1       3.324   2.105  -0.016  0.00  0.00    -0.267 OA
ATOM     14  N   UNL     1       1.224  -2.050  -0.021  0.00  0.00    -0.302 N 
ATOM     15  C   UNL     1       4.716  -2.791   0.762  0.00  0.00    +0.162 C 
ATOM     16  O   UNL     1       5.782  -2.205   0.759  0.00  0.00    -0.292 OA
ATOM     17  C   UNL     1       4.668  -4.232   1.189  0.00  0.00    +0.086 C 
ATOM     18  C   UNL     1       3.186  -6.016   2.136  0.00  0.00    +0.011 C 
ATOM     19  H   UNL     1       0.326  -2.606  -0.328  0.00  0.00    +0.153 HD
ATOM     20  H   UNL     1       1.064   3.154   0.009  0.00  0.00    +0.171 HD
ENDROOT
BRANCH   6  21
ATOM     21  C   UNL     1       4.253  -0.599  -1.443  0.00  0.00    +0.010 A 
ATOM     22  C   UNL     1       3.574  -1.191  -2.492  0.00  0.00    +0.057 A 
ATOM     23  C   UNL     1       4.092  -1.133  -3.775  0.00  0.00    +0.162 A 
ATOM     24  C   UNL     1       5.298  -0.478  -4.008  0.00  0.00    +0.165 A 
ATOM     25  C   UNL     1       5.976   0.115  -2.956  0.00  0.00    +0.095 A 
ATOM     26  C   UNL     1       5.451   0.060  -1.674  0.00  0.00    +0.128 A 
BRANCH  26  27
ATOM     27  O   UNL     1       6.114   0.647  -0.642  0.00  0.00    -0.495 OA
ATOM     28  C   UNL     1       7.342   1.307  -0.952  0.00  0.00    +0.277 C 
ENDBRANCH  26  27
BRANCH  24  29
ATOM     29  O   UNL     1       5.808  -0.420  -5.267  0.00  0.00    -0.491 OA
ATOM     30  C   UNL     1       7.050   0.269  -5.433  0.00  0.00    +0.277 C 
ENDBRANCH  24  29
BRANCH  23  31
ATOM     31  O   UNL     1       3.423  -1.716  -4.806  0.00  0.00    -0.491 OA
ATOM     32  C   UNL     1       2.192  -2.370  -4.494  0.00  0.00    +0.277 C 
ENDBRANCH  23  31
ENDBRANCH   6  21
BRANCH  10  33
ATOM     33  S   UNL     1      -1.563   2.203   0.021  0.00  0.00    -0.084 S 
BRANCH  33  34
ATOM     34  C   UNL     1      -0.984   3.918   0.028  0.00  0.00    +0.104 C 
BRANCH  34  35
ATOM     35  C   UNL     1      -2.170   4.848   0.039  0.00  0.00    -0.023 C 
ATOM     36  C   UNL     1      -2.384   5.624   1.072  0.00  0.00    +0.005 C 
ENDBRANCH  34  35
ENDBRANCH  33  34
ENDBRANCH  10  33
TORSDOF 7
