REMARK  Name = ZINC01978407
REMARK  11 active torsions:
REMARK  status: ('A' for Active; 'I' for Inactive)
REMARK    1  A    between atoms: C_1  and  C_2
REMARK    2  A    between atoms: C_2  and  C_3
REMARK    3  A    between atoms: C_2  and  C_4
REMARK    4  A    between atoms: C_2  and  C_5
REMARK    5  A    between atoms: C_8  and  C_11
REMARK    6  A    between atoms: C_12  and  O_22
REMARK    7  A    between atoms: O_22  and  C_23
REMARK    8  A    between atoms: C_23  and  C_25
REMARK    9  A    between atoms: C_25  and  C_26
REMARK   10  A    between atoms: C_26  and  C_27
REMARK   11  A    between atoms: C_27  and  N_28
REMARK                            x       y       z     vdW  Elec       q    Type
REMARK                         _______ _______ _______ _____ _____    ______ ____
ROOT
ATOM      1  C   UNL     1       2.343   5.205   0.008  0.00  0.00    +0.182 A 
ATOM      2  C   UNL     1       1.215   5.949   0.195  0.00  0.00    +0.221 A 
ATOM      3  C   UNL     1      -0.050   5.306   0.204  0.00  0.00    +0.235 A 
ATOM      4  O   UNL     1      -1.081   5.936   0.368  0.00  0.00    -0.283 OA
ATOM      5  C   UNL     1      -0.068   3.843   0.008  0.00  0.00    +0.068 A 
ATOM      6  C   UNL     1      -1.265   3.128   0.003  0.00  0.00    +0.015 A 
ATOM      7  C   UNL     1      -1.240   1.764  -0.189  0.00  0.00    +0.001 A 
ATOM      8  C   UNL     1      -0.033   1.103  -0.365  0.00  0.00    +0.004 A 
ATOM      9  C   UNL     1       1.157   1.799  -0.362  0.00  0.00    +0.047 A 
ATOM     10  C   UNL     1       1.154   3.177  -0.175  0.00  0.00    +0.140 A 
ATOM     11  O   UNL     1       2.308   3.875  -0.169  0.00  0.00    -0.451 OA
ENDROOT
BRANCH   1  15
ATOM     12  C   UNL     1       6.105   7.172  -0.013  0.00  0.00    -0.042 A 
ATOM     13  C   UNL     1       5.927   6.035   0.754  0.00  0.00    +0.005 A 
ATOM     14  C   UNL     1       4.708   5.391   0.766  0.00  0.00    +0.012 A 
ATOM     15  C   UNL     1       3.651   5.889   0.001  0.00  0.00    +0.021 A 
ATOM     16  C   UNL     1       3.839   7.035  -0.776  0.00  0.00    +0.012 A 
ATOM     17  C   UNL     1       5.063   7.672  -0.774  0.00  0.00    +0.005 A 
BRANCH  12  19
ATOM     18  C   UNL     1       8.517   6.908  -0.528  0.00  0.00    +0.015 C 
ATOM     19  C   UNL     1       7.441   7.870  -0.021  0.00  0.00    -0.013 C 
ATOM     20  C   UNL     1       7.373   9.091  -0.942  0.00  0.00    +0.015 C 
ATOM     21  C   UNL     1       7.788   8.322   1.399  0.00  0.00    +0.015 C 
ENDBRANCH  12  19
ENDBRANCH   1  15
BRANCH   2  22
ATOM     22  O   UNL     1       1.302   7.295   0.370  0.00  0.00    -0.418 OA
BRANCH  22  23
ATOM     23  C   UNL     1       1.329   7.744   1.635  0.00  0.00    +0.313 C 
ATOM     24  O   UNL     1       1.276   6.959   2.558  0.00  0.00    -0.250 OA
BRANCH  23  25
ATOM     25  C   UNL     1       1.423   9.223   1.908  0.00  0.00    +0.122 C 
BRANCH  25  26
ATOM     26  C   UNL     1       1.436   9.463   3.419  0.00  0.00    +0.031 C 
BRANCH  26  27
ATOM     27  C   UNL     1       1.533  10.964   3.696  0.00  0.00    +0.117 C 
BRANCH  27  28
ATOM     28  N   UNL     1       1.545  11.194   5.142  0.00  0.00    -0.234 N 
ATOM     29  C   UNL     1       0.445  11.391   5.891  0.00  0.00    +0.254 C 
ATOM     30  O   UNL     1      -0.698  11.405   5.482  0.00  0.00    -0.270 OA
ATOM     31  C   UNL     1       0.860  11.584   7.297  0.00  0.00    +0.049 A 
ATOM     32  C   UNL     1       0.183  11.818   8.483  0.00  0.00    +0.014 A 
ATOM     33  C   UNL     1       0.894  11.960   9.664  0.00  0.00    +0.001 A 
ATOM     34  C   UNL     1       2.274  11.871   9.666  0.00  0.00    +0.001 A 
ATOM     35  C   UNL     1       2.965  11.637   8.488  0.00  0.00    +0.014 A 
ATOM     36  C   UNL     1       2.267  11.492   7.299  0.00  0.00    +0.049 A 
ATOM     37  C   UNL     1       2.658  11.242   5.896  0.00  0.00    +0.254 C 
ATOM     38  O   UNL     1       3.795  11.104   5.491  0.00  0.00    -0.270 OA
ENDBRANCH  27  28
ENDBRANCH  26  27
ENDBRANCH  25  26
ENDBRANCH  23  25
ENDBRANCH  22  23
ENDBRANCH   2  22
TORSDOF 8
