REMARK  Name = ZINC63626025
REMARK  8 active torsions:
REMARK  status: ('A' for Active; 'I' for Inactive)
REMARK    1  A    between atoms: C_4  and  C_7
REMARK    2  A    between atoms: C_7  and  C_9
REMARK    3  A    between atoms: C_7  and  S_22
REMARK    4  A    between atoms: N_11  and  C_12
REMARK    5  A    between atoms: C_15  and  S_18
REMARK    6  A    between atoms: S_18  and  N_21
REMARK    7  A    between atoms: S_22  and  C_23
REMARK    8  A    between atoms: C_29  and  N_33
REMARK                            x       y       z     vdW  Elec       q    Type
REMARK                         _______ _______ _______ _____ _____    ______ ____
ROOT
ATOM      1  C   UNL     1       3.718  -0.708  -0.039  0.00  0.00    +0.166 C 
ENDROOT
BRANCH   1   5
ATOM      2  C   UNL     1       0.004   1.403  -0.002  0.00  0.00    +0.000 A 
ATOM      3  C   UNL     1       1.197   2.102  -0.009  0.00  0.00    +0.000 A 
ATOM      4  C   UNL     1       2.399   1.419  -0.020  0.00  0.00    +0.005 A 
ATOM      5  C   UNL     1       2.408   0.037  -0.025  0.00  0.00    -0.026 A 
ATOM      6  C   UNL     1       1.215  -0.662  -0.018  0.00  0.00    +0.005 A 
ATOM      7  C   UNL     1       0.014   0.021  -0.007  0.00  0.00    +0.000 A 
ENDBRANCH   1   5
BRANCH   1   8
ATOM      8  C   UNL     1       3.814  -1.578   1.188  0.00  0.00    +0.235 C 
ATOM      9  O   UNL     1       3.570  -2.764   1.111  0.00  0.00    -0.274 OA
ATOM     10  N   UNL     1       4.172  -1.039   2.370  0.00  0.00    -0.284 N 
ATOM     11  H   UNL     1       4.432  -0.106   2.418  0.00  0.00    +0.155 HD
BRANCH  10  12
ATOM     12  C   UNL     1       4.168  -1.825   3.528  0.00  0.00    +0.034 A 
ATOM     13  C   UNL     1       3.806  -1.266   4.747  0.00  0.00    +0.025 A 
ATOM     14  C   UNL     1       3.803  -2.045   5.887  0.00  0.00    +0.030 A 
ATOM     15  C   UNL     1       4.159  -3.379   5.816  0.00  0.00    +0.105 A 
ATOM     16  C   UNL     1       4.520  -3.938   4.604  0.00  0.00    +0.030 A 
ATOM     17  C   UNL     1       4.519  -3.167   3.459  0.00  0.00    +0.025 A 
BRANCH  15  18
ATOM     18  S   UNL     1       4.154  -4.369   7.274  0.00  0.00    +0.056 S 
ATOM     19  O   UNL     1       5.051  -5.446   7.037  0.00  0.00    -0.153 OA
ATOM     20  O   UNL     1       4.306  -3.478   8.371  0.00  0.00    -0.153 OA
BRANCH  18  21
ATOM     21  N   UNL     1       2.643  -5.033   7.410  0.00  0.00    -0.204 NA
ATOM     22  H   UNL     1       1.966  -4.838   6.743  0.00  0.00    +0.144 HD
ATOM     23  H   UNL     1       2.435  -5.618   8.155  0.00  0.00    +0.144 HD
ENDBRANCH  18  21
ENDBRANCH  15  18
ENDBRANCH  10  12
ENDBRANCH   1   8
BRANCH   1  24
ATOM     24  S   UNL     1       3.808  -1.745  -1.524  0.00  0.00    -0.097 S 
BRANCH  24  25
ATOM     25  C   UNL     1       3.833  -0.553  -2.891  0.00  0.00    +0.236 C 
ATOM     26  N   UNL     1       4.970   0.363  -2.740  0.00  0.00    -0.355 N 
ATOM     27  C   UNL     1       4.489   1.568  -2.632  0.00  0.00    +0.061 A 
ATOM     28  C   UNL     1       5.121   2.884  -2.461  0.00  0.00    +0.029 A 
ATOM     29  C   UNL     1       4.349   3.986  -2.377  0.00  0.00    +0.035 A 
ATOM     30  C   UNL     1       2.945   3.935  -2.446  0.00  0.00    +0.128 A 
ATOM     31  C   UNL     1       2.266   2.781  -2.603  0.00  0.00    +0.060 A 
ATOM     32  C   UNL     1       3.004   1.515  -2.705  0.00  0.00    +0.063 A 
ATOM     33  N   UNL     1       2.623   0.278  -2.857  0.00  0.00    -0.355 N 
ATOM     34  H   UNL     1       1.708  -0.036  -2.934  0.00  0.00    +0.162 HD
ATOM     35  H   UNL     1       5.908   0.116  -2.724  0.00  0.00    +0.162 HD
BRANCH  30  36
ATOM     36  N   UNL     1       2.183   5.200  -2.344  0.00  0.00    +0.056 N 
ATOM     37  O   UNL     1       2.768   6.249  -2.204  0.00  0.00    -0.126 OA
ATOM     38  O   UNL     1       0.976   5.184  -2.401  0.00  0.00    -0.126 OA
ENDBRANCH  30  36
ENDBRANCH  24  25
ENDBRANCH   1  24
TORSDOF 8
