REMARK  Name = ZINC36206283
REMARK  16 active torsions:
REMARK  status: ('A' for Active; 'I' for Inactive)
REMARK    1  A    between atoms: C_1  and  C_2
REMARK    2  A    between atoms: C_2  and  O_3
REMARK    3  A    between atoms: O_3  and  C_4
REMARK    4  A    between atoms: C_4  and  C_5
REMARK    5  A    between atoms: C_5  and  C_7
REMARK    6  A    between atoms: C_5  and  O_33
REMARK    7  A    between atoms: C_7  and  N_8
REMARK    8  A    between atoms: N_8  and  C_9
REMARK    9  A    between atoms: N_8  and  C_13
REMARK   10  A    between atoms: C_9  and  C_10
REMARK   11  A    between atoms: C_10  and  O_11
REMARK   12  A    between atoms: O_11  and  C_12
REMARK   13  A    between atoms: C_13  and  C_14
REMARK   14  A    between atoms: C_20  and  C_25
REMARK   15  A    between atoms: C_28  and  O_31
REMARK   16  A    between atoms: O_31  and  C_32
REMARK                            x       y       z     vdW  Elec       q    Type
REMARK                         _______ _______ _______ _____ _____    ______ ____
ROOT
ATOM      1  C   UNL     1       3.893  -5.391   2.250  0.00  0.00    +0.094 A 
ATOM      2  N   UNL     1       4.480  -6.565   1.901  0.00  0.00    -0.312 N 
ATOM      3  H   UNL     1       4.405  -7.329   2.493  0.00  0.00    +0.170 HD
ATOM      4  C   UNL     1       5.164  -6.688   0.748  0.00  0.00    +0.260 A 
ATOM      5  O   UNL     1       5.685  -7.748   0.449  0.00  0.00    -0.267 OA
ATOM      6  C   UNL     1       5.270  -5.555  -0.120  0.00  0.00    +0.080 A 
ATOM      7  C   UNL     1       5.948  -5.438  -1.406  0.00  0.00    +0.004 A 
ATOM      8  C   UNL     1       5.913  -4.250  -2.055  0.00  0.00    +0.056 A 
ATOM      9  S   UNL     1       4.958  -3.212  -0.965  0.00  0.00    -0.076 S 
ATOM     10  C   UNL     1       4.631  -4.386   0.325  0.00  0.00    +0.116 A 
ATOM     11  N   UNL     1       3.968  -4.342   1.477  0.00  0.00    -0.229 NA
ENDROOT
BRANCH   7  12
ATOM     12  C   UNL     1       6.662  -6.598  -1.991  0.00  0.00    -0.016 A 
ATOM     13  C   UNL     1       7.572  -7.320  -1.220  0.00  0.00    +0.012 A 
ATOM     14  C   UNL     1       8.235  -8.399  -1.767  0.00  0.00    +0.046 A 
ATOM     15  C   UNL     1       7.997  -8.766  -3.084  0.00  0.00    +0.120 A 
ATOM     16  C   UNL     1       7.092  -8.049  -3.855  0.00  0.00    +0.046 A 
ATOM     17  C   UNL     1       6.422  -6.972  -3.312  0.00  0.00    +0.012 A 
BRANCH  15  18
ATOM     18  O   UNL     1       8.652  -9.829  -3.621  0.00  0.00    -0.495 OA
ATOM     19  C   UNL     1       8.359 -10.152  -4.982  0.00  0.00    +0.277 C 
ENDBRANCH  15  18
ENDBRANCH   7  12
BRANCH   1  20
ATOM     20  C   UNL     1       3.136  -5.301   3.550  0.00  0.00    -0.003 C 
BRANCH  20  21
ATOM     21  N   UNL     1       2.470  -3.994   3.639  0.00  0.00    +0.388 N 
ATOM     22  H   UNL     1       3.148  -3.261   3.495  0.00  0.00    -0.081 HD
BRANCH  21  23
ATOM     23  C   UNL     1       1.426  -3.906   2.610  0.00  0.00    -0.044 C 
BRANCH  23  24
ATOM     24  C   UNL     1       0.860  -2.484   2.578  0.00  0.00    +0.124 C 
BRANCH  24  25
ATOM     25  O   UNL     1       0.131  -2.235   3.781  0.00  0.00    -0.391 OA
ATOM     26  H   UNL     1      -0.614  -2.836   3.922  0.00  0.00    +0.210 HD
ENDBRANCH  24  25
BRANCH  24  27
ATOM     27  C   UNL     1      -0.073  -2.334   1.375  0.00  0.00    +0.189 C 
BRANCH  27  28
ATOM     28  O   UNL     1      -0.510  -0.977   1.278  0.00  0.00    -0.378 OA
BRANCH  28  30
ATOM     29  C   UNL     1      -1.793   0.750   0.176  0.00  0.00    +0.034 C 
ATOM     30  C   UNL     1      -1.392  -0.727   0.182  0.00  0.00    +0.156 C 
ENDBRANCH  28  30
ENDBRANCH  27  28
ENDBRANCH  24  27
ENDBRANCH  23  24
ENDBRANCH  21  23
BRANCH  21  31
ATOM     31  C   UNL     1       1.861  -3.844   4.968  0.00  0.00    -0.050 C 
BRANCH  31  32
ATOM     32  C   UNL     1       2.957  -3.866   6.036  0.00  0.00    +0.141 C 
BRANCH  32  33
ATOM     33  O   UNL     1       3.802  -2.726   5.875  0.00  0.00    -0.385 OA
ATOM     34  C   UNL     1       4.928  -2.708   6.755  0.00  0.00    +0.193 C 
ENDBRANCH  32  33
ENDBRANCH  31  32
ENDBRANCH  21  31
ENDBRANCH  20  21
ENDBRANCH   1  20
TORSDOF 13
