REMARK  Name = ZINC39688360
REMARK  6 active torsions:
REMARK  status: ('A' for Active; 'I' for Inactive)
REMARK    1  A    between atoms: C_6  and  O_7
REMARK    2  A    between atoms: O_7  and  C_8
REMARK    3  A    between atoms: C_8  and  C_9
REMARK    4  A    between atoms: C_9  and  N_10
REMARK    5  A    between atoms: C_11  and  C_13
REMARK    6  A    between atoms: C_24  and  C_26
REMARK                            x       y       z     vdW  Elec       q    Type
REMARK                         _______ _______ _______ _____ _____    ______ ____
ROOT
ATOM      1  C   UNL     1      -5.140  -2.448  -2.723  0.00  0.00    +0.100 C 
ATOM      2  C   UNL     1      -5.430  -0.931  -2.768  0.00  0.00    +0.121 C 
ATOM      3  N   UNL     1      -6.762  -0.824  -3.409  0.00  0.00    -0.296 N 
ATOM      4  C   UNL     1      -7.535  -1.956  -2.844  0.00  0.00    +0.115 C 
ATOM      5  C   UNL     1      -6.524  -3.117  -2.772  0.00  0.00    -0.004 C 
ATOM      6  C   UNL     1      -6.641  -3.997  -4.013  0.00  0.00    -0.010 C 
ATOM      7  C   UNL     1      -8.004  -4.695  -4.010  0.00  0.00    -0.082 C 
ATOM      8  N   UNL     1      -8.137  -5.507  -2.795  0.00  0.00    +0.379 N 
ATOM      9  C   UNL     1      -8.116  -4.643  -1.609  0.00  0.00    -0.082 C 
ATOM     10  C   UNL     1      -6.758  -3.942  -1.510  0.00  0.00    -0.010 C 
ATOM     11  C   UNL     1      -7.177   0.095  -4.304  0.00  0.00    +0.252 C 
ATOM     12  O   UNL     1      -8.310   0.049  -4.741  0.00  0.00    -0.270 OA
ATOM     13  H   UNL     1      -9.009  -6.014  -2.824  0.00  0.00    -0.086 HD
ATOM     14  H   UNL     1      -7.372  -6.163  -2.745  0.00  0.00    -0.086 HD
ENDROOT
BRANCH  11  15
ATOM     15  C   UNL     1      -6.255   1.156  -4.752  0.00  0.00    +0.108 A 
ATOM     16  C   UNL     1      -5.443   0.955  -5.874  0.00  0.00    +0.138 A 
ATOM     17  C   UNL     1      -4.583   1.954  -6.288  0.00  0.00    +0.041 A 
ATOM     18  C   UNL     1      -4.523   3.151  -5.597  0.00  0.00    +0.026 A 
ATOM     19  C   UNL     1      -5.322   3.359  -4.487  0.00  0.00    +0.077 A 
ATOM     20  C   UNL     1      -6.193   2.371  -4.063  0.00  0.00    +0.156 A 
ATOM     21  F   UNL     1      -6.977   2.578  -2.982  0.00  0.00    -0.203 F 
ATOM     22 CL   UNL     1      -5.237   4.866  -3.629  0.00  0.00    -0.081 Cl
ATOM     23  F   UNL     1      -5.499  -0.214  -6.549  0.00  0.00    -0.205 F 
ENDBRANCH  11  15
BRANCH   1  25
ATOM     24  N   UNL     1      -3.593  -3.865  -1.412  0.00  0.00    -0.312 N 
ATOM     25  C   UNL     1      -4.428  -2.808  -1.444  0.00  0.00    +0.218 C 
ATOM     26  O   UNL     1      -4.607  -2.146  -0.444  0.00  0.00    -0.275 OA
ATOM     27  H   UNL     1      -3.450  -4.395  -2.212  0.00  0.00    +0.149 HD
BRANCH  24  28
ATOM     28  C   UNL     1      -2.902  -4.215  -0.169  0.00  0.00    +0.145 C 
BRANCH  28  29
ATOM     29  C   UNL     1      -2.022  -5.445  -0.403  0.00  0.00    +0.247 C 
BRANCH  29  30
ATOM     30  O   UNL     1      -0.987  -5.120  -1.333  0.00  0.00    -0.490 OA
BRANCH  30  36
ATOM     31  C   UNL     1       0.917  -5.864  -2.550  0.00  0.00    +0.048 A 
ATOM     32  C   UNL     1       1.806  -6.871  -2.873  0.00  0.00    +0.042 A 
ATOM     33  C   UNL     1       1.670  -8.125  -2.304  0.00  0.00    +0.124 A 
ATOM     34  C   UNL     1       0.643  -8.373  -1.409  0.00  0.00    +0.042 A 
ATOM     35  C   UNL     1      -0.248  -7.368  -1.084  0.00  0.00    +0.048 A 
ATOM     36  C   UNL     1      -0.112  -6.110  -1.653  0.00  0.00    +0.121 A 
ATOM     37  F   UNL     1       2.540  -9.108  -2.621  0.00  0.00    -0.205 F 
ENDBRANCH  30  36
ENDBRANCH  29  30
ENDBRANCH  28  29
ENDBRANCH  24  28
ENDBRANCH   1  25
TORSDOF 6
