REMARK  Name = ZINC12813744
REMARK  12 active torsions:
REMARK  status: ('A' for Active; 'I' for Inactive)
REMARK    1  A    between atoms: C_1  and  C_2
REMARK    2  A    between atoms: C_2  and  C_3
REMARK    3  A    between atoms: C_2  and  C_4
REMARK    4  A    between atoms: C_4  and  C_5
REMARK    5  A    between atoms: C_5  and  N_6
REMARK    6  A    between atoms: C_10  and  C_28
REMARK    7  A    between atoms: C_15  and  S_16
REMARK    8  A    between atoms: S_16  and  C_17
REMARK    9  A    between atoms: C_17  and  C_19
REMARK   10  A    between atoms: C_17  and  C_22
REMARK   11  A    between atoms: C_19  and  C_20
REMARK   12  A    between atoms: C_19  and  C_21
REMARK                            x       y       z     vdW  Elec       q    Type
REMARK                         _______ _______ _______ _____ _____    ______ ____
ROOT
ATOM      1  N   UNL     1       3.498   5.414   2.779  0.00  0.00    -0.287 N 
ATOM      2  C   UNL     1       2.585   4.808   1.999  0.00  0.00    +0.264 A 
ATOM      3  O   UNL     1       2.319   3.629   2.161  0.00  0.00    -0.267 OA
ATOM      4  C   UNL     1       1.930   5.563   0.979  0.00  0.00    +0.080 A 
ATOM      5  C   UNL     1       0.916   5.132   0.020  0.00  0.00    +0.010 A 
ATOM      6  C   UNL     1       0.429   6.037  -0.864  0.00  0.00    +0.057 A 
ATOM      7  S   UNL     1       1.317   7.528  -0.460  0.00  0.00    -0.076 S 
ATOM      8  C   UNL     1       2.313   6.911   0.872  0.00  0.00    +0.117 A 
ATOM      9  N   UNL     1       3.227   7.449   1.672  0.00  0.00    -0.216 NA
ATOM     10  C   UNL     1       3.809   6.732   2.612  0.00  0.00    +0.173 A 
ENDROOT
BRANCH   5  11
ATOM     11  C   UNL     1       0.426   3.738   0.018  0.00  0.00    +0.021 A 
ATOM     12  C   UNL     1      -0.864   3.276   0.028  0.00  0.00    +0.016 A 
ATOM     13  C   UNL     1      -1.079   1.914   0.017  0.00  0.00    +0.008 A 
ATOM     14  C   UNL     1      -0.013   1.076   0.008  0.00  0.00    +0.046 A 
ATOM     15  S   UNL     1       1.361   2.217   0.001  0.00  0.00    -0.097 S 
ENDBRANCH   5  11
BRANCH   1  16
ATOM     16  C   UNL     1       4.172   4.644   3.828  0.00  0.00    +0.127 C 
BRANCH  16  17
ATOM     17  C   UNL     1       5.445   4.013   3.259  0.00  0.00    +0.025 C 
BRANCH  17  19
ATOM     18  C   UNL     1       7.352   2.477   3.756  0.00  0.00    +0.007 C 
ATOM     19  C   UNL     1       6.149   3.208   4.354  0.00  0.00    -0.016 C 
ATOM     20  C   UNL     1       6.625   4.157   5.457  0.00  0.00    +0.007 C 
ENDBRANCH  17  19
ENDBRANCH  16  17
ENDBRANCH   1  16
BRANCH  10  21
ATOM     21  S   UNL     1       5.013   7.482   3.658  0.00  0.00    -0.075 S 
BRANCH  21  22
ATOM     22  C   UNL     1       5.002   9.165   2.992  0.00  0.00    +0.143 C 
BRANCH  22  23
ATOM     23  C   UNL     1       5.894  10.043   3.832  0.00  0.00    +0.234 C 
ATOM     24  O   UNL     1       6.802   9.553   4.468  0.00  0.00    -0.274 OA
ATOM     25  N   UNL     1       5.681  11.373   3.877  0.00  0.00    -0.239 N 
ATOM     26  C   UNL     1       6.478  12.158   4.628  0.00  0.00    +0.303 C 
ATOM     27  O   UNL     1       7.389  11.667   5.266  0.00  0.00    -0.253 OA
ATOM     28  N   UNL     1       6.266  13.488   4.673  0.00  0.00    -0.313 N 
ATOM     29  H   UNL     1       4.954  11.765   3.368  0.00  0.00    +0.159 HD
ATOM     30  H   UNL     1       5.539  13.881   4.164  0.00  0.00    +0.146 HD
ATOM     31  H   UNL     1       6.840  14.053   5.213  0.00  0.00    +0.146 HD
ENDBRANCH  22  23
BRANCH  22  32
ATOM     32  C   UNL     1       5.516   9.147   1.551  0.00  0.00    +0.005 C 
ATOM     33  C   UNL     1       5.507  10.570   0.989  0.00  0.00    +0.009 C 
ATOM     34  C   UNL     1       6.943   8.598   1.525  0.00  0.00    +0.009 C 
ENDBRANCH  22  32
ENDBRANCH  21  22
ENDBRANCH  10  21
TORSDOF 8
