REMARK  Name = ZINC03893904
REMARK  2 active torsions:
REMARK  status: ('A' for Active; 'I' for Inactive)
REMARK    1  A    between atoms: N_9  and  O_18
REMARK    2  A    between atoms: C_10  and  C_13
REMARK                            x       y       z     vdW  Elec       q    Type
REMARK                         _______ _______ _______ _____ _____    ______ ____
ROOT
ATOM      1  C   UNL     1       1.182   1.779   0.000  0.00  0.00    +0.001 A 
ATOM      2  C   UNL     1      -0.013   1.076   0.008  0.00  0.00    +0.002 A 
ATOM      3  C   UNL     1      -1.222   1.744   0.017  0.00  0.00    +0.024 A 
ATOM      4  C   UNL     1      -1.239   3.128   0.031  0.00  0.00    +0.041 A 
ATOM      5  C   UNL     1      -0.029   3.845   0.020  0.00  0.00    +0.060 A 
ATOM      6  C   UNL     1       1.182   3.159   0.006  0.00  0.00    +0.015 A 
ATOM      7  C   UNL     1      -0.086   5.319   0.019  0.00  0.00    +0.273 C 
ATOM      8  O   UNL     1       0.906   5.972  -0.239  0.00  0.00    -0.268 OA
ATOM      9  N   UNL     1      -1.252   5.933   0.308  0.00  0.00    -0.154 N 
ATOM     10  C   UNL     1      -2.436   5.167   0.699  0.00  0.00    +0.223 C 
ATOM     11  N   UNL     1      -2.427   3.850   0.051  0.00  0.00    -0.320 N 
ATOM     12  H   UNL     1      -3.232   3.491  -0.353  0.00  0.00    +0.148 HD
ENDROOT
BRANCH  10  13
ATOM     13  C   UNL     1      -2.442   4.988   2.195  0.00  0.00    +0.030 A 
ATOM     14  C   UNL     1      -1.883   5.866   3.152  0.00  0.00    +0.048 A 
ATOM     15  C   UNL     1      -2.113   5.324   4.361  0.00  0.00    +0.195 A 
ATOM     16  O   UNL     1      -2.779   4.170   4.188  0.00  0.00    -0.471 OA
ATOM     17  C   UNL     1      -2.985   3.964   2.877  0.00  0.00    +0.202 A 
ENDBRANCH  10  13
BRANCH   9  18
ATOM     18  O   UNL     1      -1.332   7.345   0.231  0.00  0.00    -0.290 OA
ATOM     19  H   UNL     1      -0.505   7.771  -0.034  0.00  0.00    +0.242 HD
ENDBRANCH   9  18
TORSDOF 2
