REMARK  Name = ZINC08846783
REMARK  6 active torsions:
REMARK  status: ('A' for Active; 'I' for Inactive)
REMARK    1  A    between atoms: C_1  and  O_2
REMARK    2  A    between atoms: O_2  and  C_3
REMARK    3  A    between atoms: C_6  and  N_9
REMARK    4  A    between atoms: C_18  and  C_27
REMARK    5  A    between atoms: C_18  and  C_31
REMARK    6  A    between atoms: C_19  and  C_21
REMARK                            x       y       z     vdW  Elec       q    Type
REMARK                         _______ _______ _______ _____ _____    ______ ____
ROOT
ATOM      1  N   UNL     1      -1.276   3.904   0.679  0.00  0.00    -0.250 N 
ATOM      2  C   UNL     1      -0.256   4.032  -0.231  0.00  0.00    +0.124 A 
ATOM      3  C   UNL     1       0.765   3.128  -0.234  0.00  0.00    +0.098 A 
ATOM      4  C   UNL     1       0.754   2.085   0.708  0.00  0.00    +0.262 A 
ATOM      5  O   UNL     1       1.658   1.268   0.731  0.00  0.00    -0.267 OA
ATOM      6  N   UNL     1      -0.264   1.996   1.587  0.00  0.00    -0.274 N 
ATOM      7  H   UNL     1      -0.274   1.257   2.260  0.00  0.00    +0.173 HD
ATOM      8  C   UNL     1      -1.269   2.891   1.566  0.00  0.00    +0.335 A 
ATOM      9  O   UNL     1      -2.180   2.786   2.364  0.00  0.00    -0.246 OA
ATOM     10  C   UNL     1       1.884   3.239  -1.230  0.00  0.00    +0.264 C 
ATOM     11  C   UNL     1       0.916   5.380  -1.804  0.00  0.00    +0.106 C 
ATOM     12  N   UNL     1      -0.253   5.063  -1.141  0.00  0.00    -0.286 N 
ATOM     13  H   UNL     1      -1.065   5.563  -1.316  0.00  0.00    +0.155 HD
ATOM     14  N   UNL     1       1.985   4.584  -1.898  0.00  0.00    -0.348 N 
ATOM     15  H   UNL     1       2.832   4.875  -2.401  0.00  0.00    +0.162 HD
ENDROOT
BRANCH   1  19
ATOM     16  C   UNL     1      -4.413   6.653   0.686  0.00  0.00    +0.120 A 
ATOM     17  C   UNL     1      -3.278   6.895   1.446  0.00  0.00    +0.047 A 
ATOM     18  C   UNL     1      -2.239   5.985   1.445  0.00  0.00    +0.030 A 
ATOM     19  C   UNL     1      -2.331   4.828   0.682  0.00  0.00    +0.053 A 
ATOM     20  C   UNL     1      -3.465   4.590  -0.083  0.00  0.00    +0.030 A 
ATOM     21  C   UNL     1      -4.505   5.498  -0.077  0.00  0.00    +0.047 A 
BRANCH  16  23
ATOM     22  C   UNL     1      -6.573   7.237  -0.118  0.00  0.00    +0.277 C 
ATOM     23  O   UNL     1      -5.435   7.550   0.688  0.00  0.00    -0.495 OA
ENDBRANCH  16  23
ENDBRANCH   1  19
BRANCH  11  24
ATOM     24  C   UNL     1       1.032   6.696  -2.476  0.00  0.00    +0.016 A 
ATOM     25  C   UNL     1      -0.024   7.611  -2.451  0.00  0.00    +0.031 A 
ATOM     26  C   UNL     1       0.130   8.828  -3.085  0.00  0.00    +0.111 A 
ATOM     27  N   UNL     1       1.248   9.126  -3.717  0.00  0.00    -0.263 NA
ATOM     28  C   UNL     1       2.266   8.289  -3.769  0.00  0.00    +0.111 A 
ATOM     29  C   UNL     1       2.200   7.053  -3.157  0.00  0.00    +0.031 A 
ENDBRANCH  11  24
BRANCH  10  30
ATOM     30  C   UNL     1       3.216   2.996  -0.516  0.00  0.00    +0.426 C 
ATOM     31  F   UNL     1       3.367   1.628  -0.264  0.00  0.00    -0.167 F 
ATOM     32  F   UNL     1       4.267   3.439  -1.326  0.00  0.00    -0.167 F 
ATOM     33  F   UNL     1       3.232   3.698   0.694  0.00  0.00    -0.167 F 
ENDBRANCH  10  30
BRANCH  10  34
ATOM     34  C   UNL     1       1.697   2.176  -2.314  0.00  0.00    +0.426 C 
ATOM     35  F   UNL     1       0.472   2.378  -2.958  0.00  0.00    -0.167 F 
ATOM     36  F   UNL     1       2.736   2.272  -3.246  0.00  0.00    -0.167 F 
ATOM     37  F   UNL     1       1.712   0.905  -1.728  0.00  0.00    -0.167 F 
ENDBRANCH  10  34
TORSDOF 5
