REMARK  Name = ZINC63162927
REMARK  5 active torsions:
REMARK  status: ('A' for Active; 'I' for Inactive)
REMARK    1  A    between atoms: C_4  and  C_7
REMARK    2  A    between atoms: C_11  and  S_21
REMARK    3  A    between atoms: N_13  and  C_14
REMARK    4  A    between atoms: S_21  and  C_22
REMARK    5  A    between atoms: C_22  and  C_23
REMARK                            x       y       z     vdW  Elec       q    Type
REMARK                         _______ _______ _______ _____ _____    ______ ____
ROOT
ATOM      1  C   UNL     1       3.744  -0.470  -0.228  0.00  0.00    +0.188 C 
ATOM      2  N   UNL     1       4.750   0.111  -1.146  0.00  0.00    -0.230 NA
ATOM      3  N   UNL     1       5.568  -1.038  -1.566  0.00  0.00    -0.226 NA
ATOM      4  C   UNL     1       4.569  -2.131  -1.693  0.00  0.00    +0.217 C 
ATOM      5  N   UNL     1       3.630  -1.897  -0.576  0.00  0.00    -0.284 N 
ATOM      6  H   UNL     1       4.306   0.547  -1.940  0.00  0.00    +0.143 HD
ATOM      7  H   UNL     1       6.020  -0.857  -2.450  0.00  0.00    +0.143 HD
ENDROOT
BRANCH   5   8
ATOM      8  C   UNL     1       2.797  -2.842   0.029  0.00  0.00    +0.033 A 
ATOM      9  C   UNL     1       2.043  -2.493   1.143  0.00  0.00    +0.024 A 
ATOM     10  C   UNL     1       1.221  -3.428   1.739  0.00  0.00    +0.022 A 
ATOM     11  C   UNL     1       1.147  -4.712   1.229  0.00  0.00    +0.041 A 
ATOM     12  C   UNL     1       1.897  -5.063   0.119  0.00  0.00    +0.022 A 
ATOM     13  C   UNL     1       2.716  -4.130  -0.484  0.00  0.00    +0.024 A 
ATOM     14 CL   UNL     1       0.113  -5.886   1.981  0.00  0.00    -0.084 Cl
ENDBRANCH   5   8
BRANCH   1  18
ATOM     15  C   UNL     1      -0.022   1.473  -0.762  0.00  0.00    +0.000 A 
ATOM     16  C   UNL     1       0.555   0.783  -1.812  0.00  0.00    +0.000 A 
ATOM     17  C   UNL     1       1.774   0.154  -1.639  0.00  0.00    +0.007 A 
ATOM     18  C   UNL     1       2.416   0.216  -0.416  0.00  0.00    -0.012 A 
ATOM     19  C   UNL     1       1.839   0.907   0.633  0.00  0.00    +0.007 A 
ATOM     20  C   UNL     1       0.620   1.534   0.461  0.00  0.00    +0.000 A 
ENDBRANCH   1  18
BRANCH   4  21
ATOM     21  S   UNL     1       3.707  -2.020  -3.286  0.00  0.00    -0.118 S 
BRANCH  21  22
ATOM     22  C   UNL     1       4.934  -2.602  -4.489  0.00  0.00    +0.119 C 
BRANCH  22  23
ATOM     23  C   UNL     1       4.297  -2.659  -5.879  0.00  0.00    +0.184 C 
ATOM     24  N   UNL     1       3.763  -1.341  -6.244  0.00  0.00    -0.363 N 
ATOM     25  C   UNL     1       2.481  -1.475  -6.426  0.00  0.00    +0.060 A 
ATOM     26  C   UNL     1       1.420  -0.529  -6.798  0.00  0.00    +0.027 A 
ATOM     27  C   UNL     1       0.150  -0.966  -6.914  0.00  0.00    +0.002 A 
ATOM     28  C   UNL     1      -0.214  -2.305  -6.691  0.00  0.00    +0.002 A 
ATOM     29  C   UNL     1       0.679  -3.253  -6.345  0.00  0.00    +0.027 A 
ATOM     30  C   UNL     1       2.095  -2.893  -6.190  0.00  0.00    +0.060 A 
ATOM     31  N   UNL     1       3.154  -3.581  -5.872  0.00  0.00    -0.363 N 
ATOM     32  H   UNL     1       4.272  -0.520  -6.333  0.00  0.00    +0.162 HD
ATOM     33  H   UNL     1       3.182  -4.529  -5.668  0.00  0.00    +0.162 HD
ENDBRANCH  22  23
ENDBRANCH  21  22
ENDBRANCH   4  21
TORSDOF 5
