REMARK  Name = ZINC36053022
REMARK  10 active torsions:
REMARK  status: ('A' for Active; 'I' for Inactive)
REMARK    1  A    between atoms: C_1  and  C_2
REMARK    2  A    between atoms: C_3  and  C_30
REMARK    3  A    between atoms: C_4  and  C_23
REMARK    4  A    between atoms: C_7  and  C_12
REMARK    5  A    between atoms: C_13  and  N_15
REMARK    6  A    between atoms: N_15  and  C_16
REMARK    7  A    between atoms: C_16  and  C_17
REMARK    8  A    between atoms: C_30  and  O_32
REMARK    9  A    between atoms: O_32  and  C_33
REMARK   10  A    between atoms: C_33  and  C_34
REMARK                            x       y       z     vdW  Elec       q    Type
REMARK                         _______ _______ _______ _____ _____    ______ ____
ROOT
ATOM      1  C   UNL     1       0.340   1.651   0.671  0.00  0.00    +0.066 C 
ATOM      2  C   UNL     1       0.081   0.217   1.055  0.00  0.00    +0.053 C 
ATOM      3  C   UNL     1      -1.168  -0.334   0.847  0.00  0.00    +0.083 C 
ATOM      4  C   UNL     1      -1.378  -1.777   1.249  0.00  0.00    +0.151 C 
ATOM      5  N   UNL     1      -0.215  -2.491   1.839  0.00  0.00    -0.267 N 
ATOM      6  C   UNL     1      -0.178  -3.801   2.274  0.00  0.00    +0.048 C 
ATOM      7  C   UNL     1       0.987  -4.259   2.783  0.00  0.00    +0.072 C 
ATOM      8  S   UNL     1       2.038  -2.828   2.645  0.00  0.00    -0.060 S 
ATOM      9  C   UNL     1       0.936  -1.764   1.960  0.00  0.00    +0.166 C 
ATOM     10  N   UNL     1       1.054  -0.507   1.585  0.00  0.00    -0.230 NA
ENDROOT
BRANCH   4  11
ATOM     11  C   UNL     1      -1.818  -2.540   0.025  0.00  0.00    -0.004 A 
ATOM     12  C   UNL     1      -3.131  -2.955  -0.096  0.00  0.00    +0.007 A 
ATOM     13  C   UNL     1      -3.534  -3.655  -1.218  0.00  0.00    +0.000 A 
ATOM     14  C   UNL     1      -2.624  -3.939  -2.219  0.00  0.00    +0.001 A 
ATOM     15  C   UNL     1      -1.312  -3.525  -2.099  0.00  0.00    +0.020 A 
ATOM     16  C   UNL     1      -0.909  -2.819  -0.979  0.00  0.00    +0.046 A 
ATOM     17 CL   UNL     1       0.739  -2.292  -0.831  0.00  0.00    -0.083 Cl
ENDBRANCH   4  11
BRANCH   6  18
ATOM     18  C   UNL     1      -1.363  -4.666   2.188  0.00  0.00    +0.091 C 
ATOM     19  C   UNL     1      -1.339  -5.898   2.731  0.00  0.00    +0.239 C 
ATOM     20  O   UNL     1      -0.189  -6.383   3.259  0.00  0.00    -0.271 OA
BRANCH  19  21
ATOM     21  N   UNL     1      -2.489  -6.668   2.751  0.00  0.00    -0.308 N 
ATOM     22  H   UNL     1      -3.312  -6.321   2.373  0.00  0.00    +0.149 HD
BRANCH  21  23
ATOM     23  C   UNL     1      -2.463  -8.008   3.342  0.00  0.00    +0.139 C 
BRANCH  23  24
ATOM     24  C   UNL     1      -3.832  -8.631   3.237  0.00  0.00    -0.030 A 
ATOM     25  C   UNL     1      -4.754  -8.447   4.250  0.00  0.00    +0.005 A 
ATOM     26  C   UNL     1      -6.009  -9.018   4.154  0.00  0.00    +0.000 A 
ATOM     27  C   UNL     1      -6.343  -9.772   3.044  0.00  0.00    +0.000 A 
ATOM     28  C   UNL     1      -5.420  -9.954   2.030  0.00  0.00    +0.000 A 
ATOM     29  C   UNL     1      -4.167  -9.380   2.125  0.00  0.00    +0.005 A 
ENDBRANCH  23  24
ENDBRANCH  21  23
ENDBRANCH  19  21
ENDBRANCH   6  18
BRANCH   3  30
ATOM     30  C   UNL     1      -2.206   0.418   0.283  0.00  0.00    +0.339 C 
ATOM     31  O   UNL     1      -2.039   1.601   0.040  0.00  0.00    -0.245 OA
BRANCH  30  32
ATOM     32  O   UNL     1      -3.393  -0.167   0.009  0.00  0.00    -0.457 OA
BRANCH  32  33
ATOM     33  C   UNL     1      -4.368   0.630  -0.666  0.00  0.00    +0.259 C 
BRANCH  33  34
ATOM     34  C   UNL     1      -5.658  -0.141  -0.777  0.00  0.00    +0.006 C 
ATOM     35  C   UNL     1      -6.757   0.340  -0.250  0.00  0.00    +0.007 C 
ENDBRANCH  33  34
ENDBRANCH  32  33
ENDBRANCH  30  32
ENDBRANCH   3  30
TORSDOF 9
