REMARK  Name = ZINC20878484
REMARK  11 active torsions:
REMARK  status: ('A' for Active; 'I' for Inactive)
REMARK    1  A    between atoms: C_1  and  C_2
REMARK    2  A    between atoms: C_2  and  C_3
REMARK    3  A    between atoms: C_2  and  C_4
REMARK    4  A    between atoms: C_4  and  N_5
REMARK    5  A    between atoms: C_6  and  C_8
REMARK    6  A    between atoms: C_12  and  N_14
REMARK    7  A    between atoms: N_14  and  C_15
REMARK    8  A    between atoms: C_15  and  C_16
REMARK    9  A    between atoms: C_25  and  O_26
REMARK   10  A    between atoms: O_26  and  C_27
REMARK   11  A    between atoms: C_27  and  C_28
REMARK                            x       y       z     vdW  Elec       q    Type
REMARK                         _______ _______ _______ _____ _____    ______ ____
ROOT
ATOM      1  C   UNL     1      -1.423   5.995   0.046  0.00  0.00    +0.141 C 
ENDROOT
BRANCH   1   2
ATOM      2  C   UNL     1      -0.112   5.253   0.030  0.00  0.00    +0.019 A 
ATOM      3  C   UNL     1      -0.095   3.849   0.023  0.00  0.00    -0.010 A 
ATOM      4  C   UNL     1      -1.288   3.105   0.030  0.00  0.00    +0.009 A 
ATOM      5  C   UNL     1      -1.235   1.746   0.017  0.00  0.00    +0.001 A 
ATOM      6  C   UNL     1      -0.013   1.076   0.008  0.00  0.00    +0.001 A 
ATOM      7  C   UNL     1       1.163   1.762   0.000  0.00  0.00    +0.008 A 
ATOM      8  C   UNL     1       1.148   3.167   0.008  0.00  0.00    -0.017 A 
ATOM      9  C   UNL     1       2.342   3.909   0.001  0.00  0.00    +0.012 A 
ATOM     10  C   UNL     1       2.292   5.268   0.009  0.00  0.00    +0.046 A 
ATOM     11  C   UNL     1       1.067   5.942   0.023  0.00  0.00    +0.126 A 
BRANCH  11  12
ATOM     12  O   UNL     1       1.050   7.301   0.030  0.00  0.00    -0.482 OA
BRANCH  12  13
ATOM     13  C   UNL     1       2.315   7.966   0.022  0.00  0.00    +0.324 C 
BRANCH  13  14
ATOM     14  C   UNL     1       2.098   9.457   0.032  0.00  0.00    +0.248 C 
ATOM     15  O   UNL     1       0.972   9.906   0.044  0.00  0.00    -0.272 OA
ATOM     16  N   UNL     1       3.156  10.292   0.027  0.00  0.00    -0.327 N 
ATOM     17  H   UNL     1       2.998  11.380   0.034  0.00  0.00    +0.145 HD
ATOM     18  H   UNL     1       4.178   9.885   0.015  0.00  0.00    +0.145 HD
ENDBRANCH  13  14
ENDBRANCH  12  13
ENDBRANCH  11  12
ENDBRANCH   1   2
BRANCH   1  19
ATOM     19  N   UNL     1      -1.836   6.228   1.432  0.00  0.00    -0.340 N 
ATOM     20  H   UNL     1      -1.207   5.872   2.261  0.00  0.00    +0.146 HD
BRANCH  19  25
ATOM     21  C   UNL     1      -4.612   7.798   3.277  0.00  0.00    +0.038 A 
ATOM     22  C   UNL     1      -5.404   8.246   2.218  0.00  0.00    +0.013 A 
ATOM     23  C   UNL     1      -5.006   8.022   0.916  0.00  0.00    +0.003 A 
ATOM     24  C   UNL     1      -3.824   7.354   0.655  0.00  0.00    +0.023 A 
ATOM     25  C   UNL     1      -3.029   6.903   1.702  0.00  0.00    +0.028 A 
ATOM     26  C   UNL     1      -3.423   7.119   3.014  0.00  0.00    +0.036 A 
BRANCH  21  28
ATOM     27  N   UNL     1      -6.189   8.688   4.925  0.00  0.00    -0.311 N 
ATOM     28  C   UNL     1      -5.036   8.037   4.673  0.00  0.00    +0.244 C 
ATOM     29  O   UNL     1      -4.346   7.645   5.594  0.00  0.00    -0.270 OA
ATOM     30  H   UNL     1      -6.814   9.042   4.092  0.00  0.00    +0.149 HD
BRANCH  27  31
ATOM     31  C   UNL     1      -6.609   8.925   6.309  0.00  0.00    +0.107 C 
BRANCH  31  33
ATOM     32  C   UNL     1      -8.442   9.816   7.755  0.00  0.00    +0.009 C 
ATOM     33  C   UNL     1      -7.941   9.678   6.315  0.00  0.00    -0.000 C 
ATOM     34  C   UNL     1      -7.743  11.069   5.709  0.00  0.00    +0.009 C 
ENDBRANCH  31  33
ENDBRANCH  27  31
ENDBRANCH  21  28
ENDBRANCH  19  25
ENDBRANCH   1  19
TORSDOF 9
