REMARK  Name = ZINC63531018
REMARK  13 active torsions:
REMARK  status: ('A' for Active; 'I' for Inactive)
REMARK    1  A    between atoms: C_1  and  C_2
REMARK    2  A    between atoms: C_2  and  N_3
REMARK    3  A    between atoms: N_3  and  C_4
REMARK    4  A    between atoms: N_3  and  C_29
REMARK    5  A    between atoms: C_4  and  C_5
REMARK    6  A    between atoms: C_5  and  C_6
REMARK    7  A    between atoms: C_6  and  N_7
REMARK    8  A    between atoms: C_8  and  C_10
REMARK    9  A    between atoms: C_12  and  S_22
REMARK   10  A    between atoms: C_16  and  O_20
REMARK   11  A    between atoms: O_20  and  C_21
REMARK   12  A    between atoms: S_22  and  C_23
REMARK   13  A    between atoms: C_29  and  C_30
REMARK                            x       y       z     vdW  Elec       q    Type
REMARK                         _______ _______ _______ _____ _____    ______ ____
ROOT
ATOM      1  C   UNL     1      -2.824   4.859  -3.568  0.00  0.00    +0.204 C 
ATOM      2  C   UNL     1      -1.683   5.773  -3.956  0.00  0.00    +0.030 C 
ATOM      3  C   UNL     1      -2.188   6.607  -4.945  0.00  0.00    +0.010 A 
ATOM      4  C   UNL     1      -1.608   7.659  -5.691  0.00  0.00    +0.014 A 
ATOM      5  C   UNL     1      -2.349   8.318  -6.615  0.00  0.00    +0.046 A 
ATOM      6  C   UNL     1      -3.689   7.983  -6.853  0.00  0.00    +0.122 A 
ATOM      7  C   UNL     1      -4.309   6.980  -6.169  0.00  0.00    +0.071 A 
ATOM      8  C   UNL     1      -3.594   6.251  -5.191  0.00  0.00    +0.048 A 
ATOM      9  N   UNL     1      -3.962   5.252  -4.405  0.00  0.00    -0.369 N 
ATOM     10  H   UNL     1      -4.842   4.844  -4.385  0.00  0.00    +0.161 HD
ENDROOT
BRANCH   1  12
ATOM     11  N   UNL     1      -1.690   2.747  -2.957  0.00  0.00    -0.313 N 
ATOM     12  C   UNL     1      -2.452   3.423  -3.839  0.00  0.00    +0.240 C 
ATOM     13  O   UNL     1      -2.840   2.877  -4.850  0.00  0.00    -0.273 OA
ATOM     14  H   UNL     1      -1.380   3.184  -2.148  0.00  0.00    +0.149 HD
BRANCH  11  15
ATOM     15  C   UNL     1      -1.329   1.352  -3.220  0.00  0.00    +0.102 C 
BRANCH  15  16
ATOM     16  C   UNL     1      -0.466   0.823  -2.072  0.00  0.00    +0.000 C 
BRANCH  16  17
ATOM     17  C   UNL     1      -0.089  -0.634  -2.346  0.00  0.00    -0.077 C 
BRANCH  17  18
ATOM     18  N   UNL     1       0.845  -1.101  -1.313  0.00  0.00    +0.382 N 
ATOM     19  H   UNL     1       1.634  -0.473  -1.264  0.00  0.00    -0.081 HD
BRANCH  18  21
ATOM     20  C   UNL     1       2.145  -2.396  -2.936  0.00  0.00    -0.017 C 
ATOM     21  C   UNL     1       1.315  -2.451  -1.652  0.00  0.00    -0.082 C 
ENDBRANCH  18  21
BRANCH  18  22
ATOM     22  C   UNL     1       0.162  -1.132  -0.013  0.00  0.00    -0.043 C 
BRANCH  22  23
ATOM     23  C   UNL     1       1.151  -1.492   1.065  0.00  0.00    -0.064 A 
ATOM     24  C   UNL     1       1.359  -2.818   1.398  0.00  0.00    +0.002 A 
ATOM     25  C   UNL     1       2.265  -3.149   2.387  0.00  0.00    +0.000 A 
ATOM     26  C   UNL     1       2.965  -2.154   3.044  0.00  0.00    +0.000 A 
ATOM     27  C   UNL     1       2.758  -0.828   2.712  0.00  0.00    +0.000 A 
ATOM     28  C   UNL     1       1.854  -0.498   1.719  0.00  0.00    +0.002 A 
ENDBRANCH  22  23
ENDBRANCH  18  22
ENDBRANCH  17  18
ENDBRANCH  16  17
ENDBRANCH  15  16
ENDBRANCH  11  15
ENDBRANCH   1  12
BRANCH   6  29
ATOM     29  O   UNL     1      -4.387   8.675  -7.789  0.00  0.00    -0.495 OA
ATOM     30  C   UNL     1      -3.693   9.716  -8.478  0.00  0.00    +0.277 C 
ENDBRANCH   6  29
BRANCH   2  31
ATOM     31  S   UNL     1      -0.146   5.780  -3.328  0.00  0.00    -0.091 S 
BRANCH  31  32
ATOM     32  C   UNL     1      -0.359   6.386  -1.687  0.00  0.00    +0.013 A 
ATOM     33  C   UNL     1      -1.601   6.853  -1.273  0.00  0.00    +0.015 A 
ATOM     34  C   UNL     1      -1.764   7.327   0.014  0.00  0.00    +0.001 A 
ATOM     35  C   UNL     1      -0.694   7.338   0.890  0.00  0.00    +0.000 A 
ATOM     36  C   UNL     1       0.543   6.875   0.480  0.00  0.00    +0.001 A 
ATOM     37  C   UNL     1       0.712   6.393  -0.803  0.00  0.00    +0.015 A 
ENDBRANCH  31  32
ENDBRANCH   2  31
TORSDOF 11
