REMARK  Name = ZINC07539066
REMARK  9 active torsions:
REMARK  status: ('A' for Active; 'I' for Inactive)
REMARK    1  A    between atoms: C_1  and  C_2
REMARK    2  A    between atoms: C_3  and  C_9
REMARK    3  A    between atoms: C_12  and  C_14
REMARK    4  A    between atoms: C_14  and  N_47
REMARK    5  A    between atoms: C_15  and  C_16
REMARK    6  A    between atoms: C_15  and  N_47
REMARK    7  A    between atoms: C_16  and  C_17
REMARK    8  A    between atoms: C_20  and  S_23
REMARK    9  A    between atoms: S_23  and  N_26
REMARK                            x       y       z     vdW  Elec       q    Type
REMARK                         _______ _______ _______ _____ _____    ______ ____
ROOT
ATOM      1  N   UNL     1       6.828  -2.617   2.294  0.00  0.00    +0.384 N 
ATOM      2  H   UNL     1       6.182  -2.169   2.954  0.00  0.00    -0.085 HD
ATOM      3  H   UNL     1       7.484  -1.917   1.928  0.00  0.00    -0.085 HD
ENDROOT
BRANCH   1   4
ATOM      4  C   UNL     1       6.057  -3.193   1.175  0.00  0.00    -0.007 C 
BRANCH   4   8
ATOM      5  C   UNL     1       3.696  -0.683  -0.038  0.00  0.00    +0.135 A 
ATOM      6  C   UNL     1       4.729  -0.446  -0.891  0.00  0.00    +0.050 A 
ATOM      7  C   UNL     1       5.752  -1.354  -0.551  0.00  0.00    +0.043 A 
ATOM      8  C   UNL     1       5.298  -2.092   0.481  0.00  0.00    +0.089 A 
ATOM      9  O   UNL     1       4.057  -1.680   0.791  0.00  0.00    -0.462 OA
BRANCH   5  12
ATOM     10  C   UNL     1       1.225  -2.187  -0.023  0.00  0.00    +0.046 C 
ATOM     11  C   UNL     1       1.205  -0.680  -0.014  0.00  0.00    -0.022 A 
ATOM     12  C   UNL     1       2.404   0.035  -0.021  0.00  0.00    +0.022 A 
ATOM     13  C   UNL     1       2.377   1.430  -0.013  0.00  0.00    +0.012 A 
ATOM     14  C   UNL     1       1.168   2.094   0.002  0.00  0.00    +0.002 A 
ATOM     15  C   UNL     1      -0.017   1.381   0.010  0.00  0.00    +0.020 A 
ATOM     16  C   UNL     1       0.002  -0.004   0.002  0.00  0.00    +0.045 A 
ATOM     17 CL   UNL     1      -1.490  -0.891   0.012  0.00  0.00    -0.083 Cl
ENDBRANCH   5  12
ENDBRANCH   4   8
ENDBRANCH   1   4
BRANCH   1  18
ATOM     18  C   UNL     1       7.583  -3.674   2.993  0.00  0.00    -0.077 C 
BRANCH  18  19
ATOM     19  C   UNL     1       8.370  -3.048   4.146  0.00  0.00    +0.016 C 
BRANCH  19  20
ATOM     20  C   UNL     1       9.145  -4.122   4.866  0.00  0.00    -0.049 A 
ATOM     21  C   UNL     1       8.573  -4.790   5.932  0.00  0.00    +0.005 A 
ATOM     22  C   UNL     1       9.282  -5.778   6.590  0.00  0.00    +0.029 A 
ATOM     23  C   UNL     1      10.566  -6.091   6.187  0.00  0.00    +0.105 A 
ATOM     24  C   UNL     1      11.141  -5.420   5.124  0.00  0.00    +0.029 A 
ATOM     25  C   UNL     1      10.430  -4.435   4.463  0.00  0.00    +0.005 A 
BRANCH  23  26
ATOM     26  S   UNL     1      11.472  -7.347   7.028  0.00  0.00    +0.056 S 
ATOM     27  O   UNL     1      10.512  -8.200   7.637  0.00  0.00    -0.153 OA
ATOM     28  O   UNL     1      12.446  -7.828   6.112  0.00  0.00    -0.153 OA
BRANCH  26  29
ATOM     29  N   UNL     1      12.301  -6.612   8.258  0.00  0.00    -0.204 NA
ATOM     30  H   UNL     1      12.497  -7.103   9.072  0.00  0.00    +0.144 HD
ATOM     31  H   UNL     1      12.592  -5.692   8.165  0.00  0.00    +0.144 HD
ENDBRANCH  26  29
ENDBRANCH  23  26
ENDBRANCH  19  20
ENDBRANCH  18  19
ENDBRANCH   1  18
TORSDOF 8
