REMARK  Name = ZINC40144099
REMARK  5 active torsions:
REMARK  status: ('A' for Active; 'I' for Inactive)
REMARK    1  A    between atoms: C_1  and  C_2
REMARK    2  A    between atoms: C_7  and  N_8
REMARK    3  A    between atoms: C_10  and  C_27
REMARK    4  A    between atoms: C_18  and  C_21
REMARK    5  A    between atoms: C_24  and  C_26
REMARK                            x       y       z     vdW  Elec       q    Type
REMARK                         _______ _______ _______ _____ _____    ______ ____
ROOT
ATOM      1  N   UNL     1      -0.186  -0.027   2.414  0.00  0.00    -0.271 N 
ATOM      2  C   UNL     1      -1.402   0.116   3.034  0.00  0.00    +0.103 C 
ATOM      3  C   UNL     1      -1.419   0.168   4.438  0.00  0.00    +0.142 C 
ATOM      4  C   UNL     1      -0.143   0.058   5.150  0.00  0.00    +0.258 C 
ATOM      5  O   UNL     1      -0.128  -0.177   6.345  0.00  0.00    -0.269 OA
ATOM      6  N   UNL     1       1.013   0.218   4.475  0.00  0.00    -0.289 N 
ATOM      7  C   UNL     1       1.004   0.546   3.053  0.00  0.00    +0.107 C 
ATOM      8  C   UNL     1       0.987   2.067   2.884  0.00  0.00    +0.046 C 
ATOM      9  C   UNL     1       0.978   2.413   1.394  0.00  0.00    +0.004 C 
ATOM     10  C   UNL     1       2.231   1.841   0.729  0.00  0.00    +0.011 C 
ATOM     11  C   UNL     1       2.251   0.321   0.899  0.00  0.00    +0.059 C 
ATOM     12  C   UNL     1       2.259  -0.025   2.390  0.00  0.00    +0.057 C 
ATOM     13  S   UNL     1      -2.892   0.231   2.100  0.00  0.00    -0.033 SA
ATOM     14  H   UNL     1       1.858   0.112   4.939  0.00  0.00    +0.151 HD
ENDROOT
BRANCH   1  21
ATOM     15  C   UNL     1       0.758  -2.711   2.461  0.00  0.00    +0.045 C 
ATOM     16  C   UNL     1       0.374  -2.023   1.176  0.00  0.00    -0.029 A 
ATOM     17  C   UNL     1       0.471  -2.698  -0.025  0.00  0.00    +0.005 A 
ATOM     18  C   UNL     1       0.119  -2.067  -1.204  0.00  0.00    +0.000 A 
ATOM     19  C   UNL     1      -0.330  -0.759  -1.185  0.00  0.00    +0.002 A 
ATOM     20  C   UNL     1      -0.429  -0.079   0.012  0.00  0.00    +0.024 A 
ATOM     21  C   UNL     1      -0.082  -0.711   1.199  0.00  0.00    +0.039 A 
ENDBRANCH   1  21
BRANCH  11  22
ATOM     22  C   UNL     1       3.487  -0.242   0.246  0.00  0.00    +0.108 A 
ATOM     23  C   UNL     1       3.507  -1.132  -0.763  0.00  0.00    +0.045 A 
ATOM     24  C   UNL     1       4.866  -1.380  -1.062  0.00  0.00    +0.044 A 
ATOM     25  C   UNL     1       5.595  -0.628  -0.218  0.00  0.00    +0.102 A 
ATOM     26  O   UNL     1       4.754   0.064   0.568  0.00  0.00    -0.465 OA
ATOM     27  C   UNL     1       7.100  -0.567  -0.167  0.00  0.00    +0.086 C 
ENDBRANCH  11  22
BRANCH   3  28
ATOM     28  C   UNL     1      -2.649   0.325   5.153  0.00  0.00    +0.107 C 
ATOM     29  N   UNL     1      -3.625   0.450   5.721  0.00  0.00    -0.191 NA
ENDBRANCH   3  28
TORSDOF 3
