REMARK  Name = ZINC03532258
REMARK  5 active torsions:
REMARK  status: ('A' for Active; 'I' for Inactive)
REMARK    1  A    between atoms: C_1  and  C_2
REMARK    2  A    between atoms: C_2  and  C_4
REMARK    3  A    between atoms: C_2  and  S_10
REMARK    4  A    between atoms: S_10  and  C_11
REMARK    5  A    between atoms: N_24  and  C_25
REMARK                            x       y       z     vdW  Elec       q    Type
REMARK                         _______ _______ _______ _____ _____    ______ ____
ROOT
ATOM      1  C   UNL     1       0.020  -4.839  -0.010  0.00  0.00    +0.178 A 
ATOM      2  N   UNL     1      -0.885  -3.902   0.239  0.00  0.00    -0.215 NA
ATOM      3  C   UNL     1      -0.496  -2.637   0.135  0.00  0.00    +0.117 A 
ATOM      4  C   UNL     1       0.812  -2.240  -0.224  0.00  0.00    +0.076 A 
ATOM      5  C   UNL     1       1.051  -0.807  -0.287  0.00  0.00    -0.023 A 
ATOM      6  C   UNL     1       0.002  -0.004   0.002  0.00  0.00    -0.004 A 
ATOM      7  S   UNL     1      -1.341  -1.105   0.369  0.00  0.00    -0.073 S 
ATOM      8  C   UNL     1      -0.018   1.493   0.010  0.00  0.00    +0.043 C 
ATOM      9  C   UNL     1       1.431   2.000  -0.001  0.00  0.00    +0.005 C 
ATOM     10  C   UNL     1       2.206   1.244  -1.084  0.00  0.00    +0.005 C 
ATOM     11  C   UNL     1       2.405  -0.211  -0.660  0.00  0.00    +0.037 C 
ATOM     12  C   UNL     1       1.764  -3.279  -0.486  0.00  0.00    +0.268 A 
ATOM     13  O   UNL     1       2.916  -3.036  -0.801  0.00  0.00    -0.267 OA
ATOM     14  N   UNL     1       1.304  -4.546  -0.363  0.00  0.00    -0.253 N 
ENDROOT
BRANCH  14  15
ATOM     15  C   UNL     1       2.189  -5.606  -0.607  0.00  0.00    +0.087 A 
ATOM     16  C   UNL     1       2.950  -6.130   0.428  0.00  0.00    +0.029 A 
ATOM     17  C   UNL     1       3.818  -7.177   0.185  0.00  0.00    +0.002 A 
ATOM     18  C   UNL     1       3.937  -7.697  -1.090  0.00  0.00    +0.003 A 
ATOM     19  C   UNL     1       3.185  -7.176  -2.126  0.00  0.00    +0.040 A 
ATOM     20  C   UNL     1       2.311  -6.130  -1.889  0.00  0.00    +0.147 A 
ATOM     21  F   UNL     1       1.577  -5.619  -2.902  0.00  0.00    -0.203 F 
ENDBRANCH  14  15
BRANCH   1  22
ATOM     22  S   UNL     1      -0.457  -6.530   0.118  0.00  0.00    -0.075 S 
BRANCH  22  24
ATOM     23  C   UNL     1      -2.270  -5.672   1.973  0.00  0.00    +0.029 C 
ATOM     24  C   UNL     1      -2.192  -6.332   0.595  0.00  0.00    +0.137 C 
BRANCH  24  25
ATOM     25  C   UNL     1      -2.856  -7.684   0.647  0.00  0.00    +0.233 C 
ATOM     26  O   UNL     1      -2.190  -8.679   0.842  0.00  0.00    -0.274 OA
ATOM     27  N   UNL     1      -4.189  -7.787   0.478  0.00  0.00    -0.239 N 
ATOM     28  C   UNL     1      -4.782  -8.996   0.525  0.00  0.00    +0.303 C 
ATOM     29  O   UNL     1      -4.116  -9.994   0.719  0.00  0.00    -0.253 OA
ATOM     30  N   UNL     1      -6.115  -9.100   0.355  0.00  0.00    -0.313 N 
ATOM     31  H   UNL     1      -4.721  -6.992   0.323  0.00  0.00    +0.159 HD
ATOM     32  H   UNL     1      -6.648  -8.304   0.200  0.00  0.00    +0.146 HD
ATOM     33  H   UNL     1      -6.543  -9.970   0.389  0.00  0.00    +0.146 HD
ENDBRANCH  24  25
ENDBRANCH  22  24
ENDBRANCH   1  22
TORSDOF 4
