REMARK  Name = ZINC22635688
REMARK  6 active torsions:
REMARK  status: ('A' for Active; 'I' for Inactive)
REMARK    1  A    between atoms: C_1  and  C_2
REMARK    2  A    between atoms: C_2  and  C_3
REMARK    3  A    between atoms: C_2  and  N_4
REMARK    4  A    between atoms: C_12  and  O_29
REMARK    5  A    between atoms: C_14  and  C_17
REMARK    6  A    between atoms: C_20  and  C_22
REMARK                            x       y       z     vdW  Elec       q    Type
REMARK                         _______ _______ _______ _____ _____    ______ ____
ROOT
ATOM      1  N   UNL     1      -2.371  -0.114   0.391  0.00  0.00    +0.384 N 
ATOM      2  C   UNL     1      -2.445   1.117  -0.409  0.00  0.00    -0.073 C 
ATOM      3  C   UNL     1      -1.348   2.093   0.020  0.00  0.00    +0.018 C 
ATOM      4  C   UNL     1      -0.016   1.351   0.009  0.00  0.00    -0.027 A 
ATOM      5  C   UNL     1       0.002  -0.004   0.002  0.00  0.00    -0.021 A 
ATOM      6  S   UNL     1       1.721  -0.435  -0.020  0.00  0.00    -0.080 S 
ATOM      7  C   UNL     1       2.390   1.139  -0.020  0.00  0.00    +0.080 A 
ATOM      8  C   UNL     1       1.282   1.997   0.001  0.00  0.00    +0.067 A 
ATOM      9  C   UNL     1       1.554   3.457   0.018  0.00  0.00    +0.220 C 
ATOM     10  N   UNL     1       2.775   3.849  -0.231  0.00  0.00    -0.220 NA
ATOM     11  C   UNL     1       3.874   2.963  -0.589  0.00  0.00    +0.260 C 
ATOM     12  N   UNL     1       3.681   1.608  -0.039  0.00  0.00    -0.311 N 
ATOM     13  C   UNL     1      -1.188  -0.910   0.013  0.00  0.00    -0.035 C 
ATOM     14  H   UNL     1       4.546   1.034   0.326  0.00  0.00    +0.149 HD
ATOM     15  H   UNL     1      -2.273   0.172   1.448  0.00  0.00    -0.081 HD
ENDROOT
BRANCH  11  16
ATOM     16  C   UNL     1       3.967   2.876  -2.090  0.00  0.00    +0.148 A 
ATOM     17  C   UNL     1       3.579   3.831  -2.958  0.00  0.00    +0.049 A 
ATOM     18  C   UNL     1       3.844   3.344  -4.254  0.00  0.00    +0.050 A 
ATOM     19  C   UNL     1       4.377   2.102  -4.104  0.00  0.00    +0.138 A 
ATOM     20  O   UNL     1       4.445   1.831  -2.786  0.00  0.00    -0.456 OA
BRANCH  19  21
ATOM     21  C   UNL     1       4.806   1.205  -5.197  0.00  0.00    +0.052 A 
ATOM     22  C   UNL     1       3.947   0.941  -6.266  0.00  0.00    +0.014 A 
ATOM     23  C   UNL     1       4.356   0.106  -7.285  0.00  0.00    +0.001 A 
ATOM     24  C   UNL     1       5.609  -0.478  -7.246  0.00  0.00    +0.003 A 
ATOM     25  C   UNL     1       6.464  -0.227  -6.189  0.00  0.00    +0.039 A 
ATOM     26  C   UNL     1       6.071   0.611  -5.163  0.00  0.00    +0.134 A 
ATOM     27  F   UNL     1       6.906   0.857  -4.130  0.00  0.00    -0.205 F 
ENDBRANCH  19  21
ENDBRANCH  11  16
BRANCH   1  29
ATOM     28  C   UNL     1      -3.774  -1.337  -1.201  0.00  0.00    -0.014 C 
ATOM     29  C   UNL     1      -3.602  -0.904   0.256  0.00  0.00    -0.074 C 
ATOM     30  C   UNL     1      -3.513  -2.144   1.149  0.00  0.00    -0.014 C 
ENDBRANCH   1  29
BRANCH   9  31
ATOM     31  O   UNL     1       0.573   4.350   0.283  0.00  0.00    -0.492 OA
ATOM     32  H   UNL     1       0.796   5.427   0.291  0.00  0.00    +0.294 HD
ENDBRANCH   9  31
TORSDOF 4
