REMARK  Name = ZINC09751884
REMARK  6 active torsions:
REMARK  status: ('A' for Active; 'I' for Inactive)
REMARK    1  A    between atoms: C_7  and  C_11
REMARK    2  A    between atoms: C_11  and  C_12
REMARK    3  A    between atoms: N_14  and  C_15
REMARK    4  A    between atoms: C_18  and  N_21
REMARK    5  A    between atoms: N_21  and  S_22
REMARK    6  A    between atoms: S_22  and  C_25
REMARK                            x       y       z     vdW  Elec       q    Type
REMARK                         _______ _______ _______ _____ _____    ______ ____
ROOT
ATOM      1  C   UNL     1       4.116  -1.932  -4.278  0.00  0.00    +0.034 A 
ATOM      2  C   UNL     1       3.591  -3.217  -4.240  0.00  0.00    +0.025 A 
ATOM      3  C   UNL     1       2.598  -3.531  -3.334  0.00  0.00    +0.026 A 
ATOM      4  C   UNL     1       2.125  -2.562  -2.459  0.00  0.00    +0.048 A 
ATOM      5  C   UNL     1       2.647  -1.276  -2.499  0.00  0.00    +0.026 A 
ATOM      6  C   UNL     1       3.642  -0.963  -3.403  0.00  0.00    +0.025 A 
ENDROOT
BRANCH   1   9
ATOM      7  C   UNL     1       5.141  -2.204  -6.409  0.00  0.00    +0.222 C 
ATOM      8  O   UNL     1       4.236  -2.941  -6.738  0.00  0.00    -0.275 OA
ATOM      9  N   UNL     1       5.123  -1.613  -5.198  0.00  0.00    -0.285 N 
ATOM     10  H   UNL     1       5.807  -0.966  -4.964  0.00  0.00    +0.155 HD
BRANCH   7  11
ATOM     11  C   UNL     1       6.287  -1.951  -7.354  0.00  0.00    +0.133 C 
BRANCH  11  18
ATOM     12  C   UNL     1       3.886  -1.052 -11.279  0.00  0.00    +0.001 A 
ATOM     13  C   UNL     1       3.969  -2.078 -12.210  0.00  0.00    +0.002 A 
ATOM     14  C   UNL     1       4.699  -3.215 -11.941  0.00  0.00    +0.026 A 
ATOM     15  C   UNL     1       5.362  -3.338 -10.724  0.00  0.00    +0.047 A 
ATOM     16  C   UNL     1       5.275  -2.295  -9.783  0.00  0.00    +0.003 A 
ATOM     17  C   UNL     1       4.529  -1.152 -10.077  0.00  0.00    +0.010 A 
ATOM     18  C   UNL     1       6.068  -2.724  -8.629  0.00  0.00    -0.014 A 
ATOM     19  C   UNL     1       6.567  -3.935  -8.924  0.00  0.00    +0.087 A 
ATOM     20  N   UNL     1       6.151  -4.320 -10.169  0.00  0.00    -0.360 N 
ATOM     21  H   UNL     1       6.381  -5.159 -10.599  0.00  0.00    +0.165 HD
ENDBRANCH  11  18
ENDBRANCH   7  11
ENDBRANCH   1   9
BRANCH   4  22
ATOM     22  N   UNL     1       1.119  -2.881  -1.540  0.00  0.00    -0.216 N 
ATOM     23  H   UNL     1       0.214  -2.562  -1.683  0.00  0.00    +0.174 HD
BRANCH  22  24
ATOM     24  S   UNL     1       1.473  -3.802  -0.211  0.00  0.00    +0.072 S 
ATOM     25  O   UNL     1       2.148  -4.958  -0.686  0.00  0.00    -0.150 OA
ATOM     26  O   UNL     1       0.281  -3.878   0.559  0.00  0.00    -0.150 OA
BRANCH  24  27
ATOM     27  C   UNL     1       2.638  -2.899   0.754  0.00  0.00    +0.109 A 
ATOM     28  C   UNL     1       2.200  -1.944   1.651  0.00  0.00    +0.031 A 
ATOM     29  C   UNL     1       3.113  -1.234   2.409  0.00  0.00    +0.040 A 
ATOM     30  C   UNL     1       4.468  -1.481   2.267  0.00  0.00    +0.124 A 
ATOM     31  C   UNL     1       4.906  -2.438   1.367  0.00  0.00    +0.040 A 
ATOM     32  C   UNL     1       3.991  -3.146   0.612  0.00  0.00    +0.031 A 
ATOM     33  F   UNL     1       5.362  -0.788   3.006  0.00  0.00    -0.205 F 
ENDBRANCH  24  27
ENDBRANCH  22  24
ENDBRANCH   4  22
TORSDOF 6
