REMARK  Name = ZINC40735275
REMARK  6 active torsions:
REMARK  status: ('A' for Active; 'I' for Inactive)
REMARK    1  A    between atoms: C_1  and  C_2
REMARK    2  A    between atoms: C_7  and  C_9
REMARK    3  A    between atoms: C_7  and  C_10
REMARK    4  A    between atoms: C_14  and  N_26
REMARK    5  A    between atoms: C_15  and  O_19
REMARK    6  A    between atoms: O_19  and  C_20
REMARK                            x       y       z     vdW  Elec       q    Type
REMARK                         _______ _______ _______ _____ _____    ______ ____
ROOT
ATOM      1  C   UNL     1       0.488   0.541   1.791  0.00  0.00    +0.013 C 
ATOM      2  C   UNL     1       0.278  -0.900   1.301  0.00  0.00    -0.014 C 
ATOM      3  C   UNL     1       1.189  -1.251   0.092  0.00  0.00    +0.030 C 
ATOM      4  C   UNL     1       0.432  -2.489  -0.450  0.00  0.00    +0.076 C 
ATOM      5  C   UNL     1       0.743  -3.655   0.486  0.00  0.00    +0.029 C 
ATOM      6  C   UNL     1       0.407  -3.380   1.941  0.00  0.00    -0.033 C 
ATOM      7  C   UNL     1       0.546  -1.937   2.390  0.00  0.00    +0.014 C 
ATOM      8  C   UNL     1      -1.004  -3.897   2.255  0.00  0.00    +0.011 C 
ATOM      9  C   UNL     1       1.381  -4.223   2.801  0.00  0.00    +0.011 C 
ATOM     10  N   UNL     1      -0.998  -2.142  -0.331  0.00  0.00    -0.310 N 
ATOM     11  C   UNL     1      -1.137  -1.123   0.721  0.00  0.00    +0.113 C 
ATOM     12  C   UNL     1      -2.034  -2.675  -1.088  0.00  0.00    +0.149 A 
ATOM     13  C   UNL     1      -3.364  -2.360  -0.794  0.00  0.00    +0.128 A 
ATOM     14  C   UNL     1      -4.364  -2.922  -1.584  0.00  0.00    +0.246 A 
ATOM     15  N   UNL     1      -4.019  -3.731  -2.581  0.00  0.00    -0.199 NA
ATOM     16  C   UNL     1      -2.754  -4.004  -2.826  0.00  0.00    +0.227 A 
ATOM     17  N   UNL     1      -1.776  -3.490  -2.107  0.00  0.00    -0.219 NA
ENDROOT
BRANCH  13  18
ATOM     18  N   UNL     1      -3.682  -1.500   0.270  0.00  0.00    -0.351 N 
ATOM     19  H   UNL     1      -3.088  -0.768   0.496  0.00  0.00    +0.143 HD
ATOM     20  H   UNL     1      -4.497  -1.639   0.777  0.00  0.00    +0.143 HD
ENDBRANCH  13  18
BRANCH  14  21
ATOM     21  O   UNL     1      -5.670  -2.648  -1.340  0.00  0.00    -0.435 OA
BRANCH  21  22
ATOM     22  C   UNL     1      -6.608  -3.318  -2.060  0.00  0.00    +0.148 A 
ATOM     23  C   UNL     1      -6.977  -4.613  -1.708  0.00  0.00    +0.049 A 
ATOM     24  C   UNL     1      -7.937  -5.255  -2.472  0.00  0.00    +0.023 A 
ATOM     25  C   UNL     1      -8.493  -4.594  -3.552  0.00  0.00    +0.111 A 
ATOM     26  N   UNL     1      -8.121  -3.367  -3.859  0.00  0.00    -0.260 NA
ATOM     27  C   UNL     1      -7.215  -2.719  -3.154  0.00  0.00    +0.157 A 
ENDBRANCH  21  22
ENDBRANCH  14  21
TORSDOF 3
