REMARK  Name = ZINC09241368
REMARK  5 active torsions:
REMARK  status: ('A' for Active; 'I' for Inactive)
REMARK    1  A    between atoms: C_3  and  C_6
REMARK    2  A    between atoms: C_12  and  S_15
REMARK    3  A    between atoms: S_15  and  C_16
REMARK    4  A    between atoms: C_16  and  C_17
REMARK    5  A    between atoms: N_19  and  C_20
REMARK                            x       y       z     vdW  Elec       q    Type
REMARK                         _______ _______ _______ _____ _____    ______ ____
ROOT
ATOM      1  C   UNL     1      -1.183  -0.887   0.017  0.00  0.00    +0.127 A 
ATOM      2  C   UNL     1      -2.478  -0.319   0.049  0.00  0.00    +0.037 A 
ATOM      3  C   UNL     1      -3.574  -1.121   0.058  0.00  0.00    +0.052 A 
ATOM      4  C   UNL     1      -3.403  -2.519   0.045  0.00  0.00    +0.179 A 
ATOM      5  N   UNL     1      -4.237  -3.542   0.053  0.00  0.00    -0.127 NA
ATOM      6  N   UNL     1      -3.572  -4.643   0.034  0.00  0.00    -0.120 NA
ATOM      7  C   UNL     1      -2.280  -4.395   0.013  0.00  0.00    +0.213 A 
ATOM      8  N   UNL     1      -2.126  -3.044   0.019  0.00  0.00    -0.187 N 
ATOM      9  N   UNL     1      -1.020  -2.193   0.005  0.00  0.00    -0.160 NA
ENDROOT
BRANCH   1  12
ATOM     10  C   UNL     1       2.088   0.757  -0.028  0.00  0.00    +0.042 A 
ATOM     11  C   UNL     1       1.299  -0.409  -0.022  0.00  0.00    +0.051 A 
ATOM     12  C   UNL     1       0.001  -0.004   0.003  0.00  0.00    +0.155 A 
ATOM     13  O   UNL     1      -0.017   1.343   0.012  0.00  0.00    -0.461 OA
ATOM     14  C   UNL     1       1.242   1.807  -0.007  0.00  0.00    +0.196 A 
ENDBRANCH   1  12
BRANCH   7  15
ATOM     15  S   UNL     1      -0.987  -5.591  -0.018  0.00  0.00    -0.075 S 
BRANCH  15  16
ATOM     16  C   UNL     1      -1.861  -7.181  -0.013  0.00  0.00    +0.173 C 
BRANCH  16  17
ATOM     17  C   UNL     1      -0.858  -8.306  -0.038  0.00  0.00    +0.227 C 
ATOM     18  O   UNL     1       0.329  -8.059  -0.058  0.00  0.00    -0.275 OA
ATOM     19  N   UNL     1      -1.280  -9.586  -0.039  0.00  0.00    -0.285 N 
ATOM     20  H   UNL     1      -2.226  -9.784   0.045  0.00  0.00    +0.155 HD
BRANCH  19  21
ATOM     21  C   UNL     1      -0.354 -10.628  -0.160  0.00  0.00    +0.033 A 
ATOM     22  C   UNL     1      -0.693 -11.782  -0.854  0.00  0.00    +0.024 A 
ATOM     23  C   UNL     1       0.224 -12.807  -0.977  0.00  0.00    +0.017 A 
ATOM     24  C   UNL     1       1.476 -12.690  -0.400  0.00  0.00    +0.018 A 
ATOM     25  C   UNL     1       1.814 -11.543   0.297  0.00  0.00    +0.017 A 
ATOM     26  C   UNL     1       0.903 -10.513   0.418  0.00  0.00    +0.024 A 
ATOM     27 BR   UNL     1       2.727 -14.098  -0.564  0.00  0.00    -0.050 Br
ENDBRANCH  19  21
ENDBRANCH  16  17
ENDBRANCH  15  16
ENDBRANCH   7  15
TORSDOF 5
