REMARK  Name = ZINC38671185
REMARK  12 active torsions:
REMARK  status: ('A' for Active; 'I' for Inactive)
REMARK    1  A    between atoms: C_1  and  C_2
REMARK    2  A    between atoms: C_3  and  C_35
REMARK    3  A    between atoms: C_4  and  C_34
REMARK    4  A    between atoms: C_5  and  S_10
REMARK    5  A    between atoms: C_6  and  C_9
REMARK    6  A    between atoms: C_7  and  C_8
REMARK    7  A    between atoms: S_10  and  N_13
REMARK    8  A    between atoms: N_13  and  C_14
REMARK    9  A    between atoms: C_14  and  C_15
REMARK   10  A    between atoms: C_15  and  C_17
REMARK   11  A    between atoms: C_15  and  N_28
REMARK   12  A    between atoms: N_26  and  C_27
REMARK                            x       y       z     vdW  Elec       q    Type
REMARK                         _______ _______ _______ _____ _____    ______ ____
ROOT
ATOM      1  C   UNL     1       3.154  -4.736  -0.632  0.00  0.00    -0.022 C 
ENDROOT
BRANCH   1   2
ATOM      2  C   UNL     1       4.247  -4.760   0.405  0.00  0.00    -0.059 A 
ATOM      3  C   UNL     1       4.244  -5.731   1.389  0.00  0.00    +0.004 A 
ATOM      4  C   UNL     1       5.245  -5.752   2.339  0.00  0.00    +0.023 A 
ATOM      5  C   UNL     1       6.256  -4.798   2.306  0.00  0.00    +0.033 A 
ATOM      6  C   UNL     1       6.261  -3.826   1.317  0.00  0.00    -0.026 A 
ATOM      7  C   UNL     1       5.254  -3.815   0.366  0.00  0.00    +0.007 A 
ATOM      8  C   UNL     1       7.345  -2.784   1.243  0.00  0.00    +0.038 C 
ATOM      9  C   UNL     1       8.043  -2.641   2.595  0.00  0.00    +0.024 C 
ATOM     10  C   UNL     1       8.473  -4.032   3.080  0.00  0.00    +0.105 C 
ATOM     11  N   UNL     1       7.259  -4.833   3.281  0.00  0.00    -0.333 N 
ATOM     12  C   UNL     1       7.100  -5.656   4.483  0.00  0.00    +0.129 C 
ENDBRANCH   1   2
BRANCH   1  13
ATOM     13  N   UNL     1       2.832  -6.111  -1.036  0.00  0.00    +0.385 N 
ATOM     14  C   UNL     1       4.047  -6.772  -1.528  0.00  0.00    -0.078 C 
ATOM     15  C   UNL     1       3.736  -8.229  -1.874  0.00  0.00    -0.019 C 
ATOM     16  C   UNL     1       2.656  -8.271  -2.959  0.00  0.00    -0.004 C 
ATOM     17  C   UNL     1       1.419  -7.515  -2.464  0.00  0.00    -0.019 C 
ATOM     18  C   UNL     1       1.817  -6.084  -2.096  0.00  0.00    -0.078 C 
ATOM     19  H   UNL     1       2.474  -6.619  -0.241  0.00  0.00    -0.081 HD
ENDBRANCH   1  13
BRANCH   1  20
ATOM     20  C   UNL     1       1.907  -4.073  -0.043  0.00  0.00    +0.095 C 
BRANCH  20  21
ATOM     21  N   UNL     1       2.204  -2.676   0.282  0.00  0.00    -0.191 NA
ATOM     22  H   UNL     1       3.124  -2.371   0.315  0.00  0.00    +0.148 HD
BRANCH  21  23
ATOM     23  S   UNL     1       0.969  -1.618   0.594  0.00  0.00    +0.059 S 
ATOM     24  O   UNL     1       0.026  -1.773  -0.457  0.00  0.00    -0.153 OA
ATOM     25  O   UNL     1       1.573  -0.367   0.898  0.00  0.00    -0.153 OA
BRANCH  23  30
ATOM     26  C   UNL     1      -1.751  -3.492   5.643  0.00  0.00    +0.044 C 
ATOM     27  C   UNL     1      -1.072  -3.024   4.382  0.00  0.00    -0.044 A 
ATOM     28  C   UNL     1      -1.518  -3.467   3.151  0.00  0.00    -0.043 A 
ATOM     29  C   UNL     1      -0.894  -3.038   1.994  0.00  0.00    -0.021 A 
ATOM     30  C   UNL     1       0.174  -2.164   2.068  0.00  0.00    +0.112 A 
ATOM     31  C   UNL     1       0.620  -1.720   3.299  0.00  0.00    -0.021 A 
ATOM     32  C   UNL     1      -0.006  -2.146   4.456  0.00  0.00    -0.043 A 
ATOM     33  C   UNL     1       0.476  -1.657   5.798  0.00  0.00    +0.044 C 
ATOM     34  C   UNL     1       1.785  -0.768   3.380  0.00  0.00    +0.046 C 
ATOM     35  C   UNL     1      -1.380  -3.522   0.652  0.00  0.00    +0.046 C 
ATOM     36  C   UNL     1      -2.683  -4.420   3.070  0.00  0.00    +0.044 C 
ENDBRANCH  23  30
ENDBRANCH  21  23
ENDBRANCH  20  21
ENDBRANCH   1  20
TORSDOF 6
