REMARK  Name = ZINC04578029
REMARK  4 active torsions:
REMARK  status: ('A' for Active; 'I' for Inactive)
REMARK    1  A    between atoms: C_1  and  C_2
REMARK    2  A    between atoms: C_6  and  C_24
REMARK    3  A    between atoms: N_14  and  C_17
REMARK    4  A    between atoms: C_20  and  O_23
REMARK                            x       y       z     vdW  Elec       q    Type
REMARK                         _______ _______ _______ _____ _____    ______ ____
ROOT
ATOM      1  C   UNL     1      -1.956  -1.641  -0.386  0.00  0.00    +0.012 C 
ATOM      2  C   UNL     1      -1.492  -0.186  -0.283  0.00  0.00    -0.013 C 
ATOM      3  C   UNL     1      -1.985   0.730  -1.417  0.00  0.00    +0.082 C 
ATOM      4  C   UNL     1      -2.122   2.141  -0.800  0.00  0.00    +0.140 C 
ATOM      5  O   UNL     1      -2.683   3.110  -1.250  0.00  0.00    -0.297 OA
ATOM      6  C   UNL     1      -1.345   1.996   0.550  0.00  0.00    +0.039 C 
ATOM      7  C   UNL     1      -2.013   0.620   0.978  0.00  0.00    +0.022 C 
ATOM      8  C   UNL     1      -0.019   1.577   0.011  0.00  0.00    +0.101 C 
ATOM      9  C   UNL     1       0.002  -0.004   0.002  0.00  0.00    +0.095 C 
ATOM     10  C   UNL     1       1.012  -0.075  -1.118  0.00  0.00    +0.231 C 
ATOM     11  O   UNL     1       1.029  -0.843  -2.055  0.00  0.00    -0.274 OA
ATOM     12  N   UNL     1       1.910   0.927  -0.834  0.00  0.00    -0.210 N 
ATOM     13  C   UNL     1       1.382   1.893  -0.001  0.00  0.00    +0.231 C 
ATOM     14  O   UNL     1       1.960   2.788   0.578  0.00  0.00    -0.274 OA
ATOM     15  C   UNL     1      -1.372   3.150   1.555  0.00  0.00    +0.020 C 
ENDROOT
BRANCH  12  16
ATOM     16  C   UNL     1       3.220   0.964  -1.337  0.00  0.00    +0.044 A 
ATOM     17  C   UNL     1       3.675  -0.053  -2.165  0.00  0.00    +0.027 A 
ATOM     18  C   UNL     1       4.962  -0.014  -2.664  0.00  0.00    +0.047 A 
ATOM     19  C   UNL     1       5.804   1.036  -2.328  0.00  0.00    +0.117 A 
ATOM     20  C   UNL     1       5.352   2.050  -1.495  0.00  0.00    +0.047 A 
ATOM     21  C   UNL     1       4.064   2.014  -1.000  0.00  0.00    +0.027 A 
BRANCH  19  22
ATOM     22  O   UNL     1       7.073   1.072  -2.815  0.00  0.00    -0.507 OA
ATOM     23  H   UNL     1       7.723   0.630  -2.252  0.00  0.00    +0.292 HD
ENDBRANCH  19  22
ENDBRANCH  12  16
TORSDOF 2
