REMARK  Name = ZINC11592151
REMARK  8 active torsions:
REMARK  status: ('A' for Active; 'I' for Inactive)
REMARK    1  A    between atoms: C_1  and  C_2
REMARK    2  A    between atoms: C_7  and  N_8
REMARK    3  A    between atoms: C_9  and  C_11
REMARK    4  A    between atoms: C_11  and  C_13
REMARK    5  A    between atoms: C_11  and  S_14
REMARK    6  A    between atoms: S_14  and  C_15
REMARK    7  A    between atoms: C_18  and  C_21
REMARK    8  A    between atoms: N_19  and  N_20
REMARK                            x       y       z     vdW  Elec       q    Type
REMARK                         _______ _______ _______ _____ _____    ______ ____
ROOT
ATOM      1  S   UNL     1      -1.448   2.327   0.038  0.00  0.00    -0.072 S 
ENDROOT
BRANCH   1   2
ATOM      2  C   UNL     1      -0.018   1.297   0.038  0.00  0.00    +0.209 A 
ATOM      3  N   UNL     1      -0.004  -0.016   0.037  0.00  0.00    -0.121 NA
ATOM      4  N   UNL     1       1.207  -0.446   0.033  0.00  0.00    -0.126 NA
ATOM      5  C   UNL     1       2.043   0.569   0.031  0.00  0.00    +0.188 A 
ATOM      6  N   UNL     1       1.283   1.717   0.034  0.00  0.00    -0.223 N 
BRANCH   5   7
ATOM      7  C   UNL     1       3.513   0.492   0.025  0.00  0.00    +0.058 A 
ATOM      8  C   UNL     1       4.322  -0.582  -0.248  0.00  0.00    +0.019 A 
ATOM      9  C   UNL     1       5.687  -0.412  -0.195  0.00  0.00    +0.008 A 
ATOM     10  C   UNL     1       6.190   0.805   0.137  0.00  0.00    +0.046 A 
ATOM     11  S   UNL     1       4.708   1.770   0.381  0.00  0.00    -0.093 S 
ENDBRANCH   5   7
BRANCH   6  12
ATOM     12  N   UNL     1       1.735   3.006   0.033  0.00  0.00    -0.295 N 
ATOM     13  H   UNL     1       1.858   3.347   0.975  0.00  0.00    +0.163 HD
ATOM     14  H   UNL     1       2.590   3.090  -0.496  0.00  0.00    +0.163 HD
ENDBRANCH   6  12
ENDBRANCH   1   2
BRANCH   1  15
ATOM     15  C   UNL     1      -2.745   1.064   0.036  0.00  0.00    +0.137 C 
ATOM     16  C   UNL     1      -2.686   0.271   1.343  0.00  0.00    +0.029 C 
BRANCH  15  18
ATOM     17  N   UNL     1      -5.157   1.016  -0.510  0.00  0.00    -0.284 N 
ATOM     18  C   UNL     1      -4.092   1.727  -0.088  0.00  0.00    +0.230 C 
ATOM     19  O   UNL     1      -4.218   2.900   0.192  0.00  0.00    -0.274 OA
ATOM     20  H   UNL     1      -5.041   0.101  -0.810  0.00  0.00    +0.155 HD
BRANCH  17  27
ATOM     21  C   UNL     1      -7.102  -0.022  -2.309  0.00  0.00    +0.045 C 
ATOM     22  C   UNL     1      -7.408   1.123  -1.378  0.00  0.00    -0.029 A 
ATOM     23  C   UNL     1      -8.663   1.700  -1.381  0.00  0.00    +0.005 A 
ATOM     24  C   UNL     1      -8.945   2.750  -0.528  0.00  0.00    +0.000 A 
ATOM     25  C   UNL     1      -7.972   3.227   0.332  0.00  0.00    +0.002 A 
ATOM     26  C   UNL     1      -6.717   2.651   0.344  0.00  0.00    +0.023 A 
ATOM     27  C   UNL     1      -6.429   1.599  -0.516  0.00  0.00    +0.036 A 
ENDBRANCH  17  27
ENDBRANCH  15  18
ENDBRANCH   1  15
TORSDOF 6
