REMARK  Name = ZINC20884492
REMARK  13 active torsions:
REMARK  status: ('A' for Active; 'I' for Inactive)
REMARK    1  A    between atoms: C_1  and  C_2
REMARK    2  A    between atoms: C_2  and  O_3
REMARK    3  A    between atoms: O_3  and  C_4
REMARK    4  A    between atoms: C_7  and  C_12
REMARK    5  A    between atoms: C_9  and  O_10
REMARK    6  A    between atoms: O_10  and  C_11
REMARK    7  A    between atoms: C_17  and  C_27
REMARK    8  A    between atoms: C_31  and  O_37
REMARK    9  A    between atoms: C_32  and  O_33
REMARK   10  A    between atoms: O_33  and  C_34
REMARK   11  A    between atoms: C_34  and  C_35
REMARK   12  A    between atoms: C_34  and  C_36
REMARK   13  A    between atoms: O_37  and  C_38
REMARK                            x       y       z     vdW  Elec       q    Type
REMARK                         _______ _______ _______ _____ _____    ______ ____
ROOT
ATOM      1  C   UNL     1      -0.535   4.203   0.701  0.00  0.00    +0.032 C 
ATOM      2  C   UNL     1       0.755   3.849  -0.038  0.00  0.00    +0.059 C 
ATOM      3  C   UNL     1       0.974   2.346  -0.012  0.00  0.00    +0.017 C 
ATOM      4  C   UNL     1      -0.074   1.503  -0.009  0.00  0.00    +0.037 C 
ATOM      5  C   UNL     1       0.002  -0.004   0.002  0.00  0.00    +0.140 C 
ATOM      6  N   UNL     1       1.321  -0.543  -0.253  0.00  0.00    -0.331 N 
ATOM      7  C   UNL     1       2.371  -0.319   0.637  0.00  0.00    +0.049 A 
ATOM      8  C   UNL     1       2.962  -1.359   1.336  0.00  0.00    +0.025 A 
ATOM      9  C   UNL     1       3.970  -1.081   2.244  0.00  0.00    +0.002 A 
ATOM     10  C   UNL     1       4.382   0.222   2.455  0.00  0.00    +0.002 A 
ATOM     11  C   UNL     1       3.806   1.261   1.744  0.00  0.00    +0.025 A 
ATOM     12  C   UNL     1       2.814   0.982   0.820  0.00  0.00    +0.052 A 
ATOM     13  N   UNL     1       2.275   1.959  -0.009  0.00  0.00    -0.316 N 
ATOM     14  C   UNL     1      -1.395   2.010  -0.012  0.00  0.00    +0.163 C 
ATOM     15  O   UNL     1      -2.324   1.226  -0.026  0.00  0.00    -0.292 OA
ATOM     16  C   UNL     1      -1.689   3.480  -0.004  0.00  0.00    +0.088 C 
ATOM     17  H   UNL     1       1.507  -1.138  -1.159  0.00  0.00    +0.147 HD
ATOM     18  H   UNL     1       2.991   2.430  -0.699  0.00  0.00    +0.152 HD
ENDROOT
BRANCH   1  22
ATOM     19  C   UNL     1      -1.170   8.430   0.563  0.00  0.00    +0.162 A 
ATOM     20  C   UNL     1      -1.095   7.698  -0.612  0.00  0.00    +0.050 A 
ATOM     21  C   UNL     1      -0.890   6.332  -0.564  0.00  0.00    +0.008 A 
ATOM     22  C   UNL     1      -0.758   5.692   0.654  0.00  0.00    -0.040 A 
ATOM     23  C   UNL     1      -0.837   6.415   1.830  0.00  0.00    +0.053 A 
ATOM     24  C   UNL     1      -1.038   7.785   1.789  0.00  0.00    +0.162 A 
BRANCH  24  25
ATOM     25  O   UNL     1      -1.110   8.498   2.945  0.00  0.00    -0.491 OA
ATOM     26  C   UNL     1      -0.966   7.771   4.166  0.00  0.00    +0.277 C 
ENDBRANCH  24  25
BRANCH  19  27
ATOM     27  O   UNL     1      -1.372   9.774   0.517  0.00  0.00    -0.489 OA
BRANCH  27  29
ATOM     28  C   UNL     1      -1.720  11.874  -0.627  0.00  0.00    +0.048 C 
ATOM     29  C   UNL     1      -1.499  10.367  -0.776  0.00  0.00    +0.226 C 
ENDBRANCH  27  29
ENDBRANCH  19  27
ENDBRANCH   1  22
BRANCH   5  30
ATOM     30  C   UNL     1      -0.462  -0.495   1.349  0.00  0.00    +0.023 A 
ATOM     31  C   UNL     1       0.291  -0.230   2.478  0.00  0.00    +0.009 A 
ATOM     32  C   UNL     1      -0.131  -0.678   3.716  0.00  0.00    +0.004 A 
ATOM     33  C   UNL     1      -1.309  -1.394   3.830  0.00  0.00    +0.049 A 
ATOM     34  C   UNL     1      -2.068  -1.663   2.703  0.00  0.00    +0.162 A 
ATOM     35  C   UNL     1      -1.645  -1.207   1.457  0.00  0.00    +0.168 A 
BRANCH  34  36
ATOM     36  O   UNL     1      -3.227  -2.366   2.813  0.00  0.00    -0.491 OA
ATOM     37  C   UNL     1      -3.601  -2.798   4.123  0.00  0.00    +0.277 C 
ENDBRANCH  34  36
BRANCH  35  38
ATOM     38  O   UNL     1      -2.389  -1.464   0.348  0.00  0.00    -0.485 OA
BRANCH  38  39
ATOM     39  C   UNL     1      -2.106  -2.674  -0.357  0.00  0.00    +0.168 C 
ATOM     40  C   UNL     1      -2.972  -3.805   0.203  0.00  0.00    +0.051 C 
ATOM     41  C   UNL     1      -2.415  -2.483  -1.843  0.00  0.00    +0.051 C 
ENDBRANCH  38  39
ENDBRANCH  35  38
ENDBRANCH   5  30
TORSDOF 8
