REMARK  Name = ZINC09988868
REMARK  16 active torsions:
REMARK  status: ('A' for Active; 'I' for Inactive)
REMARK    1  A    between atoms: C_1  and  C_2
REMARK    2  A    between atoms: C_2  and  C_3
REMARK    3  A    between atoms: C_3  and  C_4
REMARK    4  A    between atoms: C_4  and  N_5
REMARK    5  A    between atoms: C_6  and  N_37
REMARK    6  A    between atoms: C_7  and  N_14
REMARK    7  A    between atoms: N_14  and  C_15
REMARK    8  A    between atoms: C_16  and  C_18
REMARK    9  A    between atoms: C_19  and  C_20
REMARK   10  A    between atoms: C_23  and  O_28
REMARK   11  A    between atoms: C_24  and  O_26
REMARK   12  A    between atoms: O_26  and  C_27
REMARK   13  A    between atoms: O_28  and  C_29
REMARK   14  A    between atoms: C_29  and  C_30
REMARK   15  A    between atoms: C_31  and  C_36
REMARK   16  A    between atoms: C_34  and  C_35
REMARK                            x       y       z     vdW  Elec       q    Type
REMARK                         _______ _______ _______ _____ _____    ______ ____
ROOT
ATOM      1  N   UNL     1       4.307  -1.643  -7.465  0.00  0.00    -0.264 N 
ATOM      2  C   UNL     1       4.319  -0.186  -7.615  0.00  0.00    +0.139 C 
ATOM      3  C   UNL     1       3.716  -2.206  -6.393  0.00  0.00    +0.244 C 
ATOM      4  O   UNL     1       3.617  -3.417  -6.318  0.00  0.00    -0.270 OA
ENDROOT
BRANCH   1   7
ATOM      5  N   UNL     1       4.772  -4.082 -10.174  0.00  0.00    -0.280 N 
ATOM      6  C   UNL     1       4.152  -3.303  -9.224  0.00  0.00    +0.127 A 
ATOM      7  C   UNL     1       4.914  -2.457  -8.444  0.00  0.00    +0.140 A 
ATOM      8  C   UNL     1       6.308  -2.425  -8.638  0.00  0.00    +0.277 A 
ATOM      9  O   UNL     1       7.005  -1.690  -7.960  0.00  0.00    -0.266 OA
ATOM     10  N   UNL     1       6.866  -3.212  -9.579  0.00  0.00    -0.273 N 
ATOM     11  H   UNL     1       7.856  -3.190  -9.717  0.00  0.00    +0.173 HD
ATOM     12  C   UNL     1       6.107  -4.027 -10.333  0.00  0.00    +0.331 A 
ATOM     13  O   UNL     1       6.637  -4.727 -11.174  0.00  0.00    -0.246 OA
BRANCH   6  14
ATOM     14  N   UNL     1       2.789  -3.364  -9.058  0.00  0.00    -0.343 N 
ATOM     15  H   UNL     1       2.365  -2.862  -8.344  0.00  0.00    +0.144 HD
ATOM     16  H   UNL     1       2.251  -3.909  -9.654  0.00  0.00    +0.144 HD
ENDBRANCH   6  14
BRANCH   5  17
ATOM     17  C   UNL     1       3.975  -4.980 -11.013  0.00  0.00    +0.128 C 
BRANCH  17  18
ATOM     18  C   UNL     1       3.857  -6.344 -10.330  0.00  0.00    +0.021 C 
BRANCH  18  20
ATOM     19  C   UNL     1       2.907  -8.647 -10.524  0.00  0.00    +0.004 C 
ATOM     20  C   UNL     1       3.025  -7.283 -11.206  0.00  0.00    -0.002 C 
ENDBRANCH  18  20
ENDBRANCH  17  18
ENDBRANCH   5  17
ENDBRANCH   1   7
BRANCH   3  21
ATOM     21  C   UNL     1       3.193  -1.362  -5.319  0.00  0.00    +0.068 C 
ATOM     22  C   UNL     1       2.601  -1.925  -4.245  0.00  0.00    +0.013 C 
BRANCH  22  23
ATOM     23  C   UNL     1       2.076  -1.077  -3.165  0.00  0.00    -0.021 A 
ATOM     24  C   UNL     1       2.188   0.316  -3.250  0.00  0.00    +0.012 A 
ATOM     25  C   UNL     1       1.690   1.109  -2.240  0.00  0.00    +0.050 A 
ATOM     26  C   UNL     1       1.085   0.530  -1.132  0.00  0.00    +0.162 A 
ATOM     27  C   UNL     1       0.970  -0.857  -1.040  0.00  0.00    +0.162 A 
ATOM     28  C   UNL     1       1.462  -1.659  -2.051  0.00  0.00    +0.057 A 
BRANCH  27  29
ATOM     29  O   UNL     1       0.372  -1.419   0.044  0.00  0.00    -0.491 OA
ATOM     30  C   UNL     1       0.288  -2.845   0.072  0.00  0.00    +0.277 C 
ENDBRANCH  27  29
BRANCH  26  31
ATOM     31  O   UNL     1       0.601   1.317  -0.136  0.00  0.00    -0.484 OA
BRANCH  31  32
ATOM     32  C   UNL     1       0.752   2.729  -0.294  0.00  0.00    +0.270 C 
BRANCH  32  33
ATOM     33  C   UNL     1       0.160   3.434   0.899  0.00  0.00    +0.054 A 
ATOM     34  C   UNL     1       0.803   3.793   2.106  0.00  0.00    +0.087 A 
ATOM     35  N   UNL     1      -0.097   4.381   2.841  0.00  0.00    -0.083 NA
ATOM     36  O   UNL     1      -1.166   4.433   2.279  0.00  0.00    -0.359 OA
ATOM     37  C   UNL     1      -1.111   3.876   1.061  0.00  0.00    +0.141 A 
ATOM     38  C   UNL     1      -2.239   3.760   0.069  0.00  0.00    +0.089 C 
ATOM     39  C   UNL     1       2.244   3.546   2.469  0.00  0.00    +0.069 C 
ENDBRANCH  32  33
ENDBRANCH  31  32
ENDBRANCH  26  31
ENDBRANCH  22  23
ENDBRANCH   3  21
TORSDOF 11
