REMARK  Name = ZINC04592488
REMARK  6 active torsions:
REMARK  status: ('A' for Active; 'I' for Inactive)
REMARK    1  A    between atoms: C_1  and  C_2
REMARK    2  A    between atoms: C_2  and  C_3
REMARK    3  A    between atoms: C_6  and  C_9
REMARK    4  A    between atoms: C_12  and  C_23
REMARK    5  A    between atoms: C_18  and  N_22
REMARK    6  A    between atoms: C_19  and  C_20
REMARK                            x       y       z     vdW  Elec       q    Type
REMARK                         _______ _______ _______ _____ _____    ______ ____
ROOT
ATOM      1  C   UNL     1       2.903  -1.949   4.753  0.00  0.00    +0.102 C 
ATOM      2  C   UNL     1       2.200  -3.204   5.205  0.00  0.00    +0.054 A 
ATOM      3  C   UNL     1       2.189  -4.472   4.616  0.00  0.00    +0.100 A 
ATOM      4  N   UNL     1       1.438  -5.259   5.362  0.00  0.00    -0.171 NA
ATOM      5  N   UNL     1       0.951  -4.510   6.445  0.00  0.00    -0.246 N 
ATOM      6  H   UNL     1       0.372  -4.837   7.151  0.00  0.00    +0.192 HD
ATOM      7  C   UNL     1       1.430  -3.253   6.330  0.00  0.00    +0.223 A 
ATOM      8  O   UNL     1       1.239  -2.178   7.135  0.00  0.00    -0.423 OA
ATOM      9  C   UNL     1       2.046  -1.113   6.956  0.00  0.00    +0.200 C 
ATOM     10  C   UNL     1       2.845  -0.945   5.878  0.00  0.00    +0.098 C 
ENDROOT
BRANCH   1  14
ATOM     11  C   UNL     1       0.946  -0.366   1.302  0.00  0.00    -0.048 A 
ATOM     12  C   UNL     1       2.296  -0.658   1.258  0.00  0.00    +0.004 A 
ATOM     13  C   UNL     1       2.929  -1.170   2.375  0.00  0.00    +0.005 A 
ATOM     14  C   UNL     1       2.212  -1.390   3.536  0.00  0.00    -0.035 A 
ATOM     15  C   UNL     1       0.862  -1.097   3.580  0.00  0.00    +0.005 A 
ATOM     16  C   UNL     1       0.230  -0.580   2.465  0.00  0.00    +0.004 A 
BRANCH  11  18
ATOM     17  C   UNL     1       0.332   1.721   0.111  0.00  0.00    +0.009 C 
ATOM     18  C   UNL     1       0.255   0.193   0.084  0.00  0.00    +0.032 C 
ENDBRANCH  11  18
ENDBRANCH   1  14
BRANCH   3  19
ATOM     19  C   UNL     1       2.898  -4.863   3.372  0.00  0.00    +0.003 A 
ATOM     20  C   UNL     1       2.261  -5.667   2.429  0.00  0.00    +0.010 A 
ATOM     21  C   UNL     1       2.925  -6.028   1.273  0.00  0.00    +0.001 A 
ATOM     22  C   UNL     1       4.219  -5.594   1.052  0.00  0.00    +0.000 A 
ATOM     23  C   UNL     1       4.856  -4.796   1.985  0.00  0.00    +0.001 A 
ATOM     24  C   UNL     1       4.199  -4.424   3.141  0.00  0.00    +0.010 A 
ENDBRANCH   3  19
BRANCH   9  25
ATOM     25  N   UNL     1       2.057  -0.141   7.925  0.00  0.00    -0.328 N 
ATOM     26  H   UNL     1       1.496  -0.233   8.711  0.00  0.00    +0.145 HD
ATOM     27  H   UNL     1       2.627   0.637   7.825  0.00  0.00    +0.145 HD
ENDBRANCH   9  25
BRANCH  10  28
ATOM     28  C   UNL     1       3.664   0.226   5.799  0.00  0.00    +0.101 C 
ATOM     29  N   UNL     1       4.314   1.156   5.737  0.00  0.00    -0.191 NA
ENDBRANCH  10  28
TORSDOF 5
