REMARK  Name = ZINC03476709
REMARK  7 active torsions:
REMARK  status: ('A' for Active; 'I' for Inactive)
REMARK    1  A    between atoms: C_1  and  C_2
REMARK    2  A    between atoms: C_15  and  C_17
REMARK    3  A    between atoms: C_17  and  C_19
REMARK    4  A    between atoms: C_17  and  N_20
REMARK    5  A    between atoms: N_20  and  C_21
REMARK    6  A    between atoms: C_26  and  S_27
REMARK    7  A    between atoms: S_27  and  C_28
REMARK                            x       y       z     vdW  Elec       q    Type
REMARK                         _______ _______ _______ _____ _____    ______ ____
ROOT
ATOM      1  C   UNL     1       0.216   0.678  -0.359  0.00  0.00    +0.133 C 
ATOM      2  C   UNL     1      -0.626   0.199  -1.544  0.00  0.00    +0.036 C 
ENDROOT
BRANCH   1  16
ATOM      3  C   UNL     1       2.714  10.326  -1.091  0.00  0.00    +0.008 C 
ATOM      4  C   UNL     1       2.179   8.907  -1.294  0.00  0.00    -0.009 C 
ATOM      5  C   UNL     1       0.885   8.726  -0.495  0.00  0.00    +0.008 C 
ATOM      6  C   UNL     1       0.212   7.410  -0.885  0.00  0.00    +0.037 C 
ATOM      7  C   UNL     1       1.229   6.280  -0.755  0.00  0.00    -0.023 A 
ATOM      8  C   UNL     1       2.553   6.544  -0.719  0.00  0.00    -0.004 A 
ATOM      9  S   UNL     1       3.333   4.960  -0.562  0.00  0.00    -0.073 S 
ATOM     10  C   UNL     1       1.876   3.946  -0.545  0.00  0.00    +0.116 A 
ATOM     11  C   UNL     1       0.831   4.876  -0.663  0.00  0.00    +0.075 A 
ATOM     12  C   UNL     1      -0.492   4.324  -0.676  0.00  0.00    +0.260 A 
ATOM     13  O   UNL     1      -1.466   5.050  -0.775  0.00  0.00    -0.267 OA
ATOM     14  N   UNL     1      -0.641   2.989  -0.582  0.00  0.00    -0.309 N 
ATOM     15  H   UNL     1      -1.533   2.608  -0.594  0.00  0.00    +0.170 HD
ATOM     16  C   UNL     1       0.432   2.166  -0.467  0.00  0.00    +0.131 A 
ATOM     17  N   UNL     1       1.650   2.639  -0.452  0.00  0.00    -0.225 NA
ATOM     18  C   UNL     1       3.212   7.887  -0.796  0.00  0.00    +0.046 C 
ENDBRANCH   1  16
BRANCH   1  19
ATOM     19  N   UNL     1       1.511  -0.006  -0.371  0.00  0.00    -0.333 N 
ATOM     20  H   UNL     1       2.278   0.415  -0.789  0.00  0.00    +0.147 HD
BRANCH  19  21
ATOM     21  C   UNL     1       1.641  -1.268   0.220  0.00  0.00    +0.043 A 
ATOM     22  C   UNL     1       0.545  -1.872   0.817  0.00  0.00    +0.044 A 
ATOM     23  C   UNL     1       0.677  -3.120   1.401  0.00  0.00    +0.043 A 
ATOM     24  C   UNL     1       1.899  -3.768   1.390  0.00  0.00    +0.021 A 
ATOM     25  C   UNL     1       2.996  -3.172   0.797  0.00  0.00    +0.018 A 
ATOM     26  C   UNL     1       2.872  -1.924   0.204  0.00  0.00    +0.034 A 
ATOM     27 CL   UNL     1      -0.697  -3.875   2.148  0.00  0.00    -0.083 Cl
BRANCH  26  28
ATOM     28  S   UNL     1       4.267  -1.167  -0.561  0.00  0.00    -0.088 S 
BRANCH  28  29
ATOM     29  C   UNL     1       3.979  -1.384  -2.285  0.00  0.00    +0.013 A 
ATOM     30  C   UNL     1       2.903  -2.149  -2.720  0.00  0.00    +0.015 A 
ATOM     31  C   UNL     1       2.677  -2.313  -4.073  0.00  0.00    +0.001 A 
ATOM     32  C   UNL     1       3.526  -1.726  -4.994  0.00  0.00    +0.000 A 
ATOM     33  C   UNL     1       4.601  -0.969  -4.564  0.00  0.00    +0.001 A 
ATOM     34  C   UNL     1       4.830  -0.796  -3.213  0.00  0.00    +0.015 A 
ENDBRANCH  28  29
ENDBRANCH  26  28
ENDBRANCH  19  21
ENDBRANCH   1  19
TORSDOF 5
