REMARK  Name = ZINC60392256
REMARK  9 active torsions:
REMARK  status: ('A' for Active; 'I' for Inactive)
REMARK    1  A    between atoms: C_1  and  C_2
REMARK    2  A    between atoms: N_11  and  C_15
REMARK    3  A    between atoms: C_15  and  C_16
REMARK    4  A    between atoms: N_18  and  C_19
REMARK    5  A    between atoms: C_19  and  C_20
REMARK    6  A    between atoms: C_20  and  C_22
REMARK    7  A    between atoms: C_20  and  N_28
REMARK    8  A    between atoms: N_28  and  C_29
REMARK    9  A    between atoms: N_28  and  C_30
REMARK                            x       y       z     vdW  Elec       q    Type
REMARK                         _______ _______ _______ _____ _____    ______ ____
ROOT
ATOM      1  C   UNL     1       1.205   0.748   5.545  0.00  0.00    +0.231 C 
ATOM      2  O   UNL     1       1.766  -0.289   5.261  0.00  0.00    -0.274 OA
ATOM      3  N   UNL     1       1.029   1.086   6.838  0.00  0.00    -0.315 N 
ATOM      4  H   UNL     1       0.580   1.915   7.066  0.00  0.00    +0.149 HD
ENDROOT
BRANCH   1   5
ATOM      5  C   UNL     1       0.703   1.658   4.454  0.00  0.00    +0.213 C 
BRANCH   5  15
ATOM      6  C   UNL     1      -0.110   1.867   0.077  0.00  0.00    +0.010 C 
ATOM      7  C   UNL     1       0.120   0.356  -0.011  0.00  0.00    +0.018 C 
ATOM      8  C   UNL     1       0.893   0.032  -1.292  0.00  0.00    +0.006 C 
ATOM      9  C   UNL     1       1.139  -1.476  -1.369  0.00  0.00    +0.000 C 
ATOM     10  C   UNL     1       1.963  -1.923  -0.160  0.00  0.00    +0.003 C 
ATOM     11  C   UNL     1       1.194  -1.606   1.125  0.00  0.00    +0.035 C 
ATOM     12  C   UNL     1       0.922  -0.107   1.199  0.00  0.00    +0.115 C 
ATOM     13  C   UNL     1       0.194   0.234   2.478  0.00  0.00    +0.247 C 
ATOM     14  O   UNL     1      -0.898  -0.161   2.829  0.00  0.00    -0.273 OA
ATOM     15  N   UNL     1       1.013   1.071   3.148  0.00  0.00    -0.215 N 
ATOM     16  C   UNL     1       2.145   1.298   2.471  0.00  0.00    +0.310 C 
ATOM     17  O   UNL     1       3.039   2.019   2.870  0.00  0.00    -0.252 OA
ATOM     18  N   UNL     1       2.183   0.639   1.297  0.00  0.00    -0.285 N 
ATOM     19  H   UNL     1       2.901   0.654   0.645  0.00  0.00    +0.151 HD
ENDBRANCH   5  15
ENDBRANCH   1   5
BRANCH   3  20
ATOM     20  C   UNL     1       1.517   0.202   7.899  0.00  0.00    +0.093 C 
BRANCH  20  21
ATOM     21  C   UNL     1       1.294   0.866   9.259  0.00  0.00    -0.021 C 
BRANCH  21  22
ATOM     22  C   UNL     1      -0.184   1.026   9.504  0.00  0.00    -0.059 A 
ATOM     23  C   UNL     1      -0.931  -0.048   9.951  0.00  0.00    +0.002 A 
ATOM     24  C   UNL     1      -2.287   0.099  10.176  0.00  0.00    +0.000 A 
ATOM     25  C   UNL     1      -2.896   1.319   9.954  0.00  0.00    +0.000 A 
ATOM     26  C   UNL     1      -2.149   2.394   9.508  0.00  0.00    +0.000 A 
ATOM     27  C   UNL     1      -0.792   2.248   9.287  0.00  0.00    +0.002 A 
ENDBRANCH  21  22
BRANCH  21  28
ATOM     28  N   UNL     1       1.877   0.027  10.315  0.00  0.00    +0.382 N 
ATOM     29  C   UNL     1       3.319  -0.127  10.078  0.00  0.00    -0.096 C 
ATOM     30  C   UNL     1       1.662   0.664  11.621  0.00  0.00    -0.096 C 
ATOM     31  H   UNL     1       1.436  -0.880  10.307  0.00  0.00    -0.082 HD
ENDBRANCH  21  28
ENDBRANCH  20  21
ENDBRANCH   3  20
TORSDOF 6
