REMARK  Name = ZINC34139026
REMARK  13 active torsions:
REMARK  status: ('A' for Active; 'I' for Inactive)
REMARK    1  A    between atoms: C_1  and  C_2
REMARK    2  A    between atoms: C_2  and  C_41
REMARK    3  A    between atoms: C_9  and  C_21
REMARK    4  A    between atoms: C_17  and  C_19
REMARK    5  A    between atoms: C_17  and  C_20
REMARK    6  A    between atoms: N_23  and  N_24
REMARK    7  A    between atoms: C_25  and  C_27
REMARK    8  A    between atoms: C_27  and  C_28
REMARK    9  A    between atoms: C_28  and  C_29
REMARK   10  A    between atoms: C_29  and  C_30
REMARK   11  A    between atoms: C_30  and  C_31
REMARK   12  A    between atoms: C_31  and  N_32
REMARK   13  A    between atoms: C_33  and  C_35
REMARK                            x       y       z     vdW  Elec       q    Type
REMARK                         _______ _______ _______ _____ _____    ______ ____
ROOT
ATOM      1  C   UNL     1       3.272  -1.081   2.762  0.00  0.00    +0.261 C 
ATOM      2  O   UNL     1       4.403  -0.749   3.047  0.00  0.00    -0.271 OA
ATOM      3  N   UNL     1       2.284  -0.957   3.671  0.00  0.00    -0.232 N 
ATOM      4  H   UNL     1       1.379  -1.222   3.443  0.00  0.00    +0.173 HD
ENDROOT
BRANCH   1  11
ATOM      5  C   UNL     1      -0.019   1.526   0.010  0.00  0.00    +0.074 C 
ATOM      6  C   UNL     1       0.002  -0.004   0.002  0.00  0.00    +0.166 C 
ATOM      7  O   UNL     1       0.668  -0.476  -1.194  0.00  0.00    -0.341 OA
ATOM      8  C   UNL     1       1.708  -1.324  -0.739  0.00  0.00    +0.187 C 
ATOM      9  C   UNL     1       2.046  -0.693   0.646  0.00  0.00    +0.191 C 
ATOM     10  O   UNL     1       0.733  -0.490   1.159  0.00  0.00    -0.340 OA
ATOM     11  C   UNL     1       2.971  -1.632   1.392  0.00  0.00    +0.239 C 
ATOM     12  O   UNL     1       4.193  -1.716   0.605  0.00  0.00    -0.333 OA
ATOM     13  C   UNL     1       4.108  -0.895  -0.539  0.00  0.00    +0.286 C 
ATOM     14  C   UNL     1       3.000  -1.418  -1.476  0.00  0.00    +0.209 C 
ATOM     15  O   UNL     1       3.215  -0.625  -2.633  0.00  0.00    -0.338 OA
ATOM     16  C   UNL     1       4.623  -0.294  -2.628  0.00  0.00    +0.168 C 
ATOM     17  O   UNL     1       5.204  -0.853  -1.447  0.00  0.00    -0.318 OA
ATOM     18  C   UNL     1       5.307  -0.934  -3.838  0.00  0.00    +0.074 C 
ATOM     19  C   UNL     1       4.796   1.225  -2.684  0.00  0.00    +0.074 C 
ATOM     20  C   UNL     1      -1.431  -0.539   0.036  0.00  0.00    +0.074 C 
ENDBRANCH   1  11
BRANCH   3  21
ATOM     21  N   UNL     1       2.563  -0.445   4.944  0.00  0.00    -0.234 N 
ATOM     22  C   UNL     1       1.575  -0.321   5.853  0.00  0.00    +0.229 C 
ATOM     23  O   UNL     1       0.444  -0.653   5.567  0.00  0.00    -0.274 OA
ATOM     24  H   UNL     1       3.468  -0.179   5.172  0.00  0.00    +0.173 HD
BRANCH  22  25
ATOM     25  C   UNL     1       1.876   0.231   7.223  0.00  0.00    +0.097 C 
BRANCH  25  26
ATOM     26  C   UNL     1       0.591   0.266   8.052  0.00  0.00    +0.009 C 
BRANCH  26  27
ATOM     27  C   UNL     1       0.896   0.825   9.443  0.00  0.00    +0.002 C 
BRANCH  27  28
ATOM     28  C   UNL     1      -0.389   0.861  10.272  0.00  0.00    +0.019 C 
BRANCH  28  29
ATOM     29  C   UNL     1      -0.084   1.420  11.662  0.00  0.00    +0.104 C 
BRANCH  29  30
ATOM     30  N   UNL     1      -1.314   1.454  12.456  0.00  0.00    -0.311 N 
ATOM     31  C   UNL     1      -1.287   1.913  13.723  0.00  0.00    +0.244 C 
ATOM     32  O   UNL     1      -0.240   2.298  14.207  0.00  0.00    -0.270 OA
ATOM     33  H   UNL     1      -2.149   1.146  12.070  0.00  0.00    +0.149 HD
BRANCH  31  34
ATOM     34  C   UNL     1      -2.529   1.946  14.525  0.00  0.00    +0.037 A 
ATOM     35  C   UNL     1      -3.731   1.499  13.974  0.00  0.00    +0.013 A 
ATOM     36  C   UNL     1      -4.886   1.533  14.727  0.00  0.00    +0.001 A 
ATOM     37  C   UNL     1      -4.855   2.010  16.026  0.00  0.00    +0.000 A 
ATOM     38  C   UNL     1      -3.667   2.455  16.577  0.00  0.00    +0.001 A 
ATOM     39  C   UNL     1      -2.503   2.421  15.837  0.00  0.00    +0.013 A 
ENDBRANCH  31  34
ENDBRANCH  29  30
ENDBRANCH  28  29
ENDBRANCH  27  28
ENDBRANCH  26  27
ENDBRANCH  25  26
ENDBRANCH  22  25
ENDBRANCH   3  21
TORSDOF 9
