REMARK  Name = ZINC41890623
REMARK  6 active torsions:
REMARK  status: ('A' for Active; 'I' for Inactive)
REMARK    1  A    between atoms: C_1  and  C_2
REMARK    2  A    between atoms: C_6  and  C_18
REMARK    3  A    between atoms: C_8  and  C_10
REMARK    4  A    between atoms: C_8  and  N_13
REMARK    5  A    between atoms: C_18  and  C_19
REMARK    6  A    between atoms: C_18  and  C_20
REMARK                            x       y       z     vdW  Elec       q    Type
REMARK                         _______ _______ _______ _____ _____    ______ ____
ROOT
ATOM      1  C   UNL     1       1.624   0.981   1.018  0.00  0.00    +0.007 C 
ATOM      2  C   UNL     1       0.970  -0.348   0.631  0.00  0.00    -0.011 C 
ATOM      3  C   UNL     1      -0.543  -0.157   0.517  0.00  0.00    +0.004 C 
ATOM      4  C   UNL     1      -1.197  -1.485   0.131  0.00  0.00    +0.007 C 
ATOM      5  C   UNL     1      -0.894  -2.534   1.203  0.00  0.00    +0.030 C 
ATOM      6  C   UNL     1       0.620  -2.725   1.317  0.00  0.00    +0.167 C 
ATOM      7  C   UNL     1       1.273  -1.396   1.703  0.00  0.00    +0.045 C 
ENDROOT
BRANCH   6   8
ATOM      8  N   UNL     1       1.153  -3.175   0.029  0.00  0.00    -0.254 N 
ATOM      9  C   UNL     1       2.453  -3.180  -0.334  0.00  0.00    +0.109 A 
ATOM     10  C   UNL     1       2.528  -3.668  -1.594  0.00  0.00    +0.041 A 
ATOM     11  C   UNL     1       1.229  -3.971  -2.016  0.00  0.00    +0.134 A 
ATOM     12  N   UNL     1       0.405  -3.682  -1.042  0.00  0.00    -0.179 NA
ENDBRANCH   6   8
BRANCH   6  13
ATOM     13  C   UNL     1       0.918  -3.757   2.373  0.00  0.00    +0.383 C 
ATOM     14  O   UNL     1       1.959  -4.390   2.329  0.00  0.00    -0.244 OA
ATOM     15  O   UNL     1       0.118  -3.960   3.270  0.00  0.00    -0.244 OA
ENDBRANCH   6  13
BRANCH   5  16
ATOM     16  C   UNL     1      -1.451  -2.064   2.548  0.00  0.00    -0.011 C 
ATOM     17  C   UNL     1      -1.459  -0.534   2.590  0.00  0.00    +0.007 C 
ATOM     18  C   UNL     1      -2.879  -2.586   2.719  0.00  0.00    +0.007 C 
ENDBRANCH   5  16
TORSDOF 3
