REMARK  Name = ZINC39550581
REMARK  10 active torsions:
REMARK  status: ('A' for Active; 'I' for Inactive)
REMARK    1  A    between atoms: C_1  and  O_2
REMARK    2  A    between atoms: O_2  and  C_3
REMARK    3  A    between atoms: C_5  and  C_12
REMARK    4  A    between atoms: C_7  and  O_10
REMARK    5  A    between atoms: C_8  and  O_9
REMARK    6  A    between atoms: O_10  and  C_11
REMARK    7  A    between atoms: C_15  and  C_33
REMARK    8  A    between atoms: C_16  and  C_18
REMARK    9  A    between atoms: C_21  and  S_24
REMARK   10  A    between atoms: S_24  and  C_27
REMARK                            x       y       z     vdW  Elec       q    Type
REMARK                         _______ _______ _______ _____ _____    ______ ____
ROOT
ATOM      1  C   UNL     1      -4.867   0.229   0.151  0.00  0.00    +0.117 A 
ATOM      2  N   UNL     1      -4.936   1.593   0.140  0.00  0.00    -0.339 N 
ATOM      3  H   UNL     1      -4.191   2.208   0.220  0.00  0.00    +0.167 HD
ATOM      4  C   UNL     1      -6.263   1.931  -0.006  0.00  0.00    +0.072 A 
ATOM      5  C   UNL     1      -6.964   0.739  -0.080  0.00  0.00    +0.072 A 
ATOM      6  N   UNL     1      -6.077  -0.265   0.015  0.00  0.00    -0.339 N 
ATOM      7  H   UNL     1      -6.296  -1.209  -0.011  0.00  0.00    +0.167 HD
ENDROOT
BRANCH   1  10
ATOM      8  C   UNL     1      -1.238  -0.666   0.555  0.00  0.00    +0.166 A 
ATOM      9  C   UNL     1      -2.397   0.079   0.427  0.00  0.00    +0.061 A 
ATOM     10  C   UNL     1      -3.628  -0.564   0.288  0.00  0.00    +0.023 A 
ATOM     11  C   UNL     1      -3.686  -1.959   0.279  0.00  0.00    +0.061 A 
ATOM     12  C   UNL     1      -2.525  -2.700   0.408  0.00  0.00    +0.166 A 
ATOM     13  C   UNL     1      -1.299  -2.056   0.540  0.00  0.00    +0.201 A 
BRANCH   8  15
ATOM     14  C   UNL     1      -0.051   1.390   0.698  0.00  0.00    +0.277 C 
ATOM     15  O   UNL     1      -0.039  -0.039   0.691  0.00  0.00    -0.491 OA
ENDBRANCH   8  15
BRANCH  13  16
ATOM     16  O   UNL     1      -0.158  -2.786   0.661  0.00  0.00    -0.501 OA
ATOM     17  H   UNL     1       0.076  -3.003   1.574  0.00  0.00    +0.292 HD
ENDBRANCH  13  16
BRANCH  12  18
ATOM     18  O   UNL     1      -2.581  -4.059   0.399  0.00  0.00    -0.491 OA
ATOM     19  C   UNL     1      -3.873  -4.654   0.254  0.00  0.00    +0.277 C 
ENDBRANCH  12  18
ENDBRANCH   1  10
BRANCH   5  20
ATOM     20  C   UNL     1      -8.430   0.597  -0.240  0.00  0.00    +0.000 A 
ATOM     21  C   UNL     1      -9.104   1.340  -1.208  0.00  0.00    +0.012 A 
ATOM     22  C   UNL     1     -10.469   1.204  -1.352  0.00  0.00    +0.028 A 
ATOM     23  C   UNL     1     -11.170   0.331  -0.539  0.00  0.00    +0.094 A 
ATOM     24  C   UNL     1     -10.507  -0.409   0.424  0.00  0.00    +0.028 A 
ATOM     25  C   UNL     1      -9.140  -0.286   0.574  0.00  0.00    +0.012 A 
BRANCH  23  26
ATOM     26  S   UNL     1     -12.913   0.162  -0.729  0.00  0.00    +0.025 S 
ATOM     27  O   UNL     1     -13.413  -0.310   0.514  0.00  0.00    -0.164 OA
ATOM     28  O   UNL     1     -13.375   1.364  -1.329  0.00  0.00    -0.164 OA
BRANCH  26  29
ATOM     29  C   UNL     1     -13.187  -1.124  -1.903  0.00  0.00    +0.094 A 
ATOM     30  C   UNL     1     -13.270  -0.824  -3.249  0.00  0.00    +0.027 A 
ATOM     31  C   UNL     1     -13.484  -1.833  -4.170  0.00  0.00    +0.002 A 
ATOM     32  C   UNL     1     -13.615  -3.141  -3.744  0.00  0.00    +0.000 A 
ATOM     33  C   UNL     1     -13.531  -3.441  -2.397  0.00  0.00    +0.002 A 
ATOM     34  C   UNL     1     -13.313  -2.433  -1.477  0.00  0.00    +0.027 A 
ENDBRANCH  26  29
ENDBRANCH  23  26
ENDBRANCH   5  20
BRANCH   4  35
ATOM     35  C   UNL     1      -6.826   3.293  -0.070  0.00  0.00    +0.000 A 
ATOM     36  C   UNL     1      -7.942   3.629   0.701  0.00  0.00    +0.010 A 
ATOM     37  C   UNL     1      -8.463   4.904   0.635  0.00  0.00    +0.001 A 
ATOM     38  C   UNL     1      -7.883   5.850  -0.192  0.00  0.00    +0.000 A 
ATOM     39  C   UNL     1      -6.778   5.525  -0.958  0.00  0.00    +0.001 A 
ATOM     40  C   UNL     1      -6.242   4.255  -0.898  0.00  0.00    +0.010 A 
ENDBRANCH   4  35
TORSDOF 8
