REMARK  Name = ZINC32625349
REMARK  5 active torsions:
REMARK  status: ('A' for Active; 'I' for Inactive)
REMARK    1  A    between atoms: C_3  and  N_8
REMARK    2  A    between atoms: C_9  and  C_11
REMARK    3  A    between atoms: C_11  and  C_23
REMARK    4  A    between atoms: C_12  and  C_13
REMARK    5  A    between atoms: C_15  and  N_20
REMARK                            x       y       z     vdW  Elec       q    Type
REMARK                         _______ _______ _______ _____ _____    ______ ____
ROOT
ATOM      1  C   UNL     1      -2.582  -0.033   0.781  0.00  0.00    +0.114 C 
ATOM      2  C   UNL     1      -1.442  -0.664   1.223  0.00  0.00    +0.033 C 
ENDROOT
BRANCH   2   3
ATOM      3  C   UNL     1      -0.198   0.096   1.383  0.00  0.00    -0.003 A 
ATOM      4  C   UNL     1       0.197   1.015   0.402  0.00  0.00    +0.042 A 
ATOM      5  C   UNL     1       1.367   1.725   0.560  0.00  0.00    +0.127 A 
ATOM      6  C   UNL     1       2.153   1.533   1.684  0.00  0.00    +0.034 A 
ATOM      7  C   UNL     1       1.772   0.627   2.658  0.00  0.00    +0.023 A 
ATOM      8  C   UNL     1       0.603  -0.093   2.517  0.00  0.00    +0.048 A 
ATOM      9 CL   UNL     1       0.127  -1.229   3.740  0.00  0.00    -0.083 Cl
BRANCH   5  10
ATOM     10  N   UNL     1       1.786   2.696  -0.475  0.00  0.00    +0.056 N 
ATOM     11  O   UNL     1       1.062   2.921  -1.429  0.00  0.00    -0.126 OA
ATOM     12  O   UNL     1       2.855   3.272  -0.374  0.00  0.00    -0.126 OA
ENDBRANCH   5  10
ENDBRANCH   2   3
BRANCH   1  14
ATOM     13  N   UNL     1      -3.728   2.059   0.253  0.00  0.00    -0.281 N 
ATOM     14  C   UNL     1      -2.661   1.437   0.794  0.00  0.00    +0.259 C 
ATOM     15  O   UNL     1      -1.764   2.090   1.292  0.00  0.00    -0.269 OA
ATOM     16  H   UNL     1      -4.575   1.469  -0.125  0.00  0.00    +0.155 HD
BRANCH  13  19
ATOM     17  C   UNL     1      -2.616   5.542  -0.134  0.00  0.00    +0.003 A 
ATOM     18  C   UNL     1      -2.584   4.164  -0.051  0.00  0.00    +0.023 A 
ATOM     19  C   UNL     1      -3.757   3.455   0.174  0.00  0.00    +0.035 A 
ATOM     20  C   UNL     1      -4.958   4.136   0.325  0.00  0.00    +0.038 A 
ATOM     21  C   UNL     1      -4.983   5.515   0.245  0.00  0.00    +0.020 A 
ATOM     22  C   UNL     1      -3.813   6.218   0.016  0.00  0.00    +0.015 A 
ATOM     23 BR   UNL     1      -6.618   6.444   0.451  0.00  0.00    -0.050 Br
ENDBRANCH  13  19
ENDBRANCH   1  14
BRANCH   1  24
ATOM     24  C   UNL     1      -3.691  -0.805   0.309  0.00  0.00    +0.104 C 
ATOM     25  N   UNL     1      -4.571  -1.418  -0.066  0.00  0.00    -0.191 NA
ENDBRANCH   1  24
TORSDOF 5
