REMARK  Name = ZINC00626379
REMARK  8 active torsions:
REMARK  status: ('A' for Active; 'I' for Inactive)
REMARK    1  A    between atoms: C_1  and  C_2
REMARK    2  A    between atoms: C_2  and  O_3
REMARK    3  A    between atoms: O_3  and  C_4
REMARK    4  A    between atoms: C_4  and  C_6
REMARK    5  A    between atoms: C_7  and  C_30
REMARK    6  A    between atoms: C_11  and  C_13
REMARK    7  A    between atoms: C_26  and  C_28
REMARK    8  A    between atoms: C_26  and  C_29
REMARK                            x       y       z     vdW  Elec       q    Type
REMARK                         _______ _______ _______ _____ _____    ______ ____
ROOT
ATOM      1  C   UNL     1      -1.272   2.910   0.418  0.00  0.00    +0.065 C 
ATOM      2  C   UNL     1      -1.208   1.627   0.017  0.00  0.00    +0.016 C 
ATOM      3  N   UNL     1      -0.011   0.966   0.007  0.00  0.00    -0.321 N 
ATOM      4  C   UNL     1       1.169   1.660  -0.000  0.00  0.00    +0.016 C 
ATOM      5  C   UNL     1       1.207   2.950   0.397  0.00  0.00    +0.024 C 
ATOM      6  C   UNL     1      -0.045   3.650   0.862  0.00  0.00    +0.094 C 
ATOM      7  C   UNL     1       2.412   3.674   0.394  0.00  0.00    +0.162 C 
ATOM      8  O   UNL     1       2.409   4.839   0.741  0.00  0.00    -0.292 OA
ATOM      9  C   UNL     1       3.705   3.034  -0.032  0.00  0.00    +0.086 C 
ATOM     10  C   UNL     1       3.636   1.531   0.258  0.00  0.00    -0.023 C 
ATOM     11  C   UNL     1       2.418   0.953  -0.466  0.00  0.00    +0.058 C 
ATOM     12  C   UNL     1       3.494   1.304   1.765  0.00  0.00    +0.011 C 
ATOM     13  C   UNL     1       4.907   0.846  -0.248  0.00  0.00    +0.011 C 
ATOM     14  C   UNL     1      -2.461   0.912  -0.420  0.00  0.00    +0.061 C 
ATOM     15  H   UNL     1       0.010  -0.134   0.006  0.00  0.00    +0.152 HD
ENDROOT
BRANCH   6  16
ATOM     16  C   UNL     1      -0.035   3.735   2.366  0.00  0.00    -0.013 A 
ATOM     17  C   UNL     1       0.007   2.579   3.123  0.00  0.00    +0.055 A 
ATOM     18  C   UNL     1       0.015   2.654   4.505  0.00  0.00    +0.167 A 
ATOM     19  C   UNL     1      -0.018   3.898   5.132  0.00  0.00    +0.168 A 
ATOM     20  C   UNL     1      -0.059   5.053   4.369  0.00  0.00    +0.069 A 
ATOM     21  C   UNL     1      -0.063   4.971   2.988  0.00  0.00    +0.049 A 
ATOM     22 CL   UNL     1      -0.108   6.420   2.033  0.00  0.00    -0.083 Cl
ATOM     23  O   UNL     1      -0.001   3.706   6.483  0.00  0.00    -0.453 OA
ATOM     24  C   UNL     1      -0.370   2.328   6.681  0.00  0.00    +0.466 C 
ATOM     25  O   UNL     1       0.053   1.683   5.465  0.00  0.00    -0.453 OA
ENDBRANCH   6  16
BRANCH   1  26
ATOM     26  C   UNL     1      -2.521   3.574   0.417  0.00  0.00    +0.338 C 
ATOM     27  O   UNL     1      -3.523   2.985   0.059  0.00  0.00    -0.245 OA
BRANCH  26  28
ATOM     28  O   UNL     1      -2.600   4.862   0.812  0.00  0.00    -0.462 OA
BRANCH  28  30
ATOM     29  C   UNL     1      -3.785   6.919   1.264  0.00  0.00    +0.048 C 
ATOM     30  C   UNL     1      -3.893   5.470   0.786  0.00  0.00    +0.229 C 
ENDBRANCH  28  30
ENDBRANCH  26  28
ENDBRANCH   1  26
TORSDOF 4
