REMARK  Name = ZINC58849128
REMARK  11 active torsions:
REMARK  status: ('A' for Active; 'I' for Inactive)
REMARK    1  A    between atoms: C_1  and  C_2
REMARK    2  A    between atoms: C_2  and  O_3
REMARK    3  A    between atoms: O_3  and  C_4
REMARK    4  A    between atoms: C_9  and  N_10
REMARK    5  A    between atoms: N_10  and  S_11
REMARK    6  A    between atoms: S_11  and  C_14
REMARK    7  A    between atoms: C_27  and  C_30
REMARK    8  A    between atoms: C_33  and  O_38
REMARK    9  A    between atoms: C_34  and  O_36
REMARK   10  A    between atoms: O_36  and  C_37
REMARK   11  A    between atoms: O_38  and  C_39
REMARK                            x       y       z     vdW  Elec       q    Type
REMARK                         _______ _______ _______ _____ _____    ______ ____
ROOT
ATOM      1  C   UNL     1      -5.002  -2.106   2.495  0.00  0.00    +0.109 A 
ATOM      2  C   UNL     1      -4.510  -3.253   3.091  0.00  0.00    +0.030 A 
ATOM      3  C   UNL     1      -4.284  -3.277   4.452  0.00  0.00    +0.025 A 
ATOM      4  C   UNL     1      -4.548  -2.149   5.223  0.00  0.00    +0.031 A 
ATOM      5  C   UNL     1      -5.028  -0.994   4.626  0.00  0.00    -0.018 A 
ATOM      6  C   UNL     1      -5.254  -0.983   3.257  0.00  0.00    +0.034 A 
ATOM      7  C   UNL     1      -5.285   0.247   5.413  0.00  0.00    +0.049 C 
ATOM      8  C   UNL     1      -6.755   0.468   5.660  0.00  0.00    -0.023 C 
ATOM      9  C   UNL     1      -6.942   0.988   6.847  0.00  0.00    -0.030 C 
ATOM     10  C   UNL     1      -5.624   1.183   7.565  0.00  0.00    +0.033 C 
ATOM     11  C   UNL     1      -4.647   0.260   6.801  0.00  0.00    +0.029 C 
ATOM     12  C   UNL     1      -4.642  -1.092   7.483  0.00  0.00    +0.105 C 
ATOM     13  N   UNL     1      -4.333  -2.194   6.595  0.00  0.00    -0.336 N 
ATOM     14  H   UNL     1      -3.980  -3.011   6.980  0.00  0.00    +0.147 HD
ENDROOT
BRANCH  12  15
ATOM     15  C   UNL     1      -5.992  -1.314   8.115  0.00  0.00    -0.023 A 
ATOM     16  C   UNL     1      -7.055  -1.740   7.340  0.00  0.00    +0.009 A 
ATOM     17  C   UNL     1      -8.296  -1.945   7.915  0.00  0.00    +0.050 A 
ATOM     18  C   UNL     1      -8.476  -1.724   9.271  0.00  0.00    +0.162 A 
ATOM     19  C   UNL     1      -7.406  -1.297  10.051  0.00  0.00    +0.162 A 
ATOM     20  C   UNL     1      -6.164  -1.098   9.470  0.00  0.00    +0.055 A 
BRANCH  19  21
ATOM     21  O   UNL     1      -7.577  -1.079  11.383  0.00  0.00    -0.491 OA
ATOM     22  C   UNL     1      -6.435  -0.641  12.121  0.00  0.00    +0.277 C 
ENDBRANCH  19  21
BRANCH  18  23
ATOM     23  O   UNL     1      -9.695  -1.925   9.838  0.00  0.00    -0.491 OA
ATOM     24  C   UNL     1     -10.747  -2.364   8.976  0.00  0.00    +0.277 C 
ENDBRANCH  18  23
ENDBRANCH  12  15
BRANCH   1  25
ATOM     25  S   UNL     1      -5.300  -2.075   0.759  0.00  0.00    +0.072 S 
ATOM     26  O   UNL     1      -6.268  -1.060   0.531  0.00  0.00    -0.150 OA
ATOM     27  O   UNL     1      -5.500  -3.423   0.357  0.00  0.00    -0.150 OA
BRANCH  25  28
ATOM     28  N   UNL     1      -3.901  -1.567   0.031  0.00  0.00    -0.213 N 
ATOM     29  H   UNL     1      -3.899  -0.756  -0.501  0.00  0.00    +0.174 HD
BRANCH  28  35
ATOM     30  C   UNL     1      -1.495  -1.656   0.266  0.00  0.00    +0.143 A 
ATOM     31  C   UNL     1      -0.333  -2.393   0.424  0.00  0.00    +0.047 A 
ATOM     32  C   UNL     1      -0.394  -3.773   0.494  0.00  0.00    +0.004 A 
ATOM     33  C   UNL     1      -1.612  -4.421   0.408  0.00  0.00    +0.002 A 
ATOM     34  C   UNL     1      -2.776  -3.692   0.251  0.00  0.00    +0.028 A 
ATOM     35  C   UNL     1      -2.724  -2.307   0.185  0.00  0.00    +0.090 A 
BRANCH  30  36
ATOM     36  O   UNL     1      -1.437  -0.299   0.196  0.00  0.00    -0.490 OA
BRANCH  36  38
ATOM     37  C   UNL     1      -0.277   1.821   0.188  0.00  0.00    +0.048 C 
ATOM     38  C   UNL     1      -0.142   0.300   0.286  0.00  0.00    +0.226 C 
ENDBRANCH  36  38
ENDBRANCH  30  36
ENDBRANCH  28  35
ENDBRANCH  25  28
ENDBRANCH   1  25
TORSDOF 8
