REMARK  Name = ZINC39710599
REMARK  10 active torsions:
REMARK  status: ('A' for Active; 'I' for Inactive)
REMARK    1  A    between atoms: C_1  and  C_2
REMARK    2  A    between atoms: C_7  and  C_14
REMARK    3  A    between atoms: C_14  and  C_16
REMARK    4  A    between atoms: C_14  and  N_25
REMARK    5  A    between atoms: N_20  and  C_21
REMARK    6  A    between atoms: C_21  and  C_22
REMARK    7  A    between atoms: C_22  and  O_23
REMARK    8  A    between atoms: O_23  and  C_24
REMARK    9  A    between atoms: N_28  and  C_31
REMARK   10  A    between atoms: C_31  and  C_32
REMARK                            x       y       z     vdW  Elec       q    Type
REMARK                         _______ _______ _______ _____ _____    ______ ____
ROOT
ATOM      1  C   UNL     1       1.339  -5.790   1.304  0.00  0.00    +0.142 C 
ENDROOT
BRANCH   1   8
ATOM      2  C   UNL     1      -0.136   1.552   0.950  0.00  0.00    +0.044 C 
ATOM      3  C   UNL     1      -0.131   0.053   0.796  0.00  0.00    -0.049 A 
ATOM      4  C   UNL     1      -0.339  -0.491  -0.472  0.00  0.00    +0.004 A 
ATOM      5  C   UNL     1      -0.345  -1.834  -0.674  0.00  0.00    +0.010 A 
ATOM      6  C   UNL     1      -0.128  -2.720   0.470  0.00  0.00    -0.007 A 
ATOM      7  C   UNL     1      -0.125  -4.074   0.315  0.00  0.00    -0.003 C 
ATOM      8  C   UNL     1       0.109  -4.915   1.555  0.00  0.00    +0.123 C 
ATOM      9  C   UNL     1       0.321  -4.184   2.861  0.00  0.00    +0.226 C 
ATOM     10  O   UNL     1       0.513  -4.809   3.887  0.00  0.00    -0.275 OA
ATOM     11  N   UNL     1       0.296  -2.862   2.884  0.00  0.00    -0.284 N 
ATOM     12  C   UNL     1       0.090  -2.118   1.797  0.00  0.00    +0.041 A 
ATOM     13  C   UNL     1       0.082  -0.715   1.896  0.00  0.00    +0.027 A 
ATOM     14  H   UNL     1       0.433  -2.412   3.733  0.00  0.00    +0.155 HD
ENDBRANCH   1   8
BRANCH   1  15
ATOM     15  N   UNL     1       1.528  -6.706   2.436  0.00  0.00    -0.295 NA
ATOM     16  C   UNL     1       0.324  -7.516   2.665  0.00  0.00    +0.066 C 
ATOM     17  C   UNL     1       0.540  -8.412   3.887  0.00  0.00    -0.063 C 
ATOM     18  N   UNL     1       1.701  -9.282   3.657  0.00  0.00    +0.384 N 
ATOM     19  C   UNL     1       2.900  -8.459   3.455  0.00  0.00    -0.063 C 
ATOM     20  C   UNL     1       2.704  -7.564   2.229  0.00  0.00    +0.066 C 
ATOM     21  H   UNL     1       1.539  -9.848   2.838  0.00  0.00    -0.081 HD
BRANCH  18  22
ATOM     22  C   UNL     1       1.897 -10.154   4.823  0.00  0.00    -0.043 C 
BRANCH  22  23
ATOM     23  C   UNL     1       3.010 -11.130   4.539  0.00  0.00    -0.060 A 
ATOM     24  C   UNL     1       2.724 -12.351   3.956  0.00  0.00    +0.005 A 
ATOM     25  C   UNL     1       3.741 -13.250   3.693  0.00  0.00    +0.050 A 
ATOM     26  C   UNL     1       5.050 -12.928   4.013  0.00  0.00    +0.166 A 
ATOM     27  C   UNL     1       5.338 -11.698   4.600  0.00  0.00    +0.166 A 
ATOM     28  C   UNL     1       4.314 -10.801   4.855  0.00  0.00    +0.051 A 
ATOM     29  O   UNL     1       6.684 -11.622   4.815  0.00  0.00    -0.453 OA
ATOM     30  C   UNL     1       7.164 -12.977   4.731  0.00  0.00    +0.466 C 
ATOM     31  O   UNL     1       6.215 -13.623   3.861  0.00  0.00    -0.453 OA
ENDBRANCH  22  23
ENDBRANCH  18  22
ENDBRANCH   1  15
BRANCH   1  32
ATOM     32  C   UNL     1       2.557  -4.914   1.156  0.00  0.00    +0.170 A 
ATOM     33  N   UNL     1       3.131  -4.208   2.099  0.00  0.00    -0.112 NA
ATOM     34  N   UNL     1       4.141  -3.598   1.580  0.00  0.00    -0.023 NA
ATOM     35  N   UNL     1       4.224  -3.897   0.331  0.00  0.00    -0.044 NA
ATOM     36  N   UNL     1       3.269  -4.710   0.032  0.00  0.00    -0.225 N 
BRANCH  36  37
ATOM     37  C   UNL     1       3.005  -5.298  -1.283  0.00  0.00    +0.175 C 
BRANCH  37  38
ATOM     38  C   UNL     1       2.186  -4.318  -2.125  0.00  0.00    +0.183 C 
BRANCH  38  39
ATOM     39  O   UNL     1       2.025  -4.843  -3.445  0.00  0.00    -0.381 OA
ATOM     40  C   UNL     1       1.270  -4.000  -4.317  0.00  0.00    +0.194 C 
ENDBRANCH  38  39
ENDBRANCH  37  38
ENDBRANCH  36  37
ENDBRANCH   1  32
TORSDOF 8
