REMARK  Name = ZINC63739246
REMARK  11 active torsions:
REMARK  status: ('A' for Active; 'I' for Inactive)
REMARK    1  A    between atoms: C_1  and  C_2
REMARK    2  A    between atoms: C_2  and  C_4
REMARK    3  A    between atoms: C_2  and  N_32
REMARK    4  A    between atoms: C_4  and  C_5
REMARK    5  A    between atoms: C_5  and  N_6
REMARK    6  A    between atoms: C_7  and  C_9
REMARK    7  A    between atoms: C_9  and  C_11
REMARK    8  A    between atoms: C_9  and  C_12
REMARK    9  A    between atoms: C_18  and  C_20
REMARK   10  A    between atoms: C_26  and  O_30
REMARK   11  A    between atoms: O_30  and  C_31
REMARK                            x       y       z     vdW  Elec       q    Type
REMARK                         _______ _______ _______ _____ _____    ______ ____
ROOT
ATOM      1  C   UNL     1      -4.069  -6.078  -0.457  0.00  0.00    +0.004 C 
ATOM      2  C   UNL     1      -3.189  -6.752   0.598  0.00  0.00    +0.023 C 
ATOM      3  C   UNL     1      -3.101  -8.252   0.301  0.00  0.00    +0.108 C 
ATOM      4  N   UNL     1      -4.463  -8.798   0.213  0.00  0.00    -0.300 N 
ATOM      5  C   UNL     1      -5.419  -8.165  -0.705  0.00  0.00    +0.108 C 
ATOM      6  C   UNL     1      -5.481  -6.666  -0.397  0.00  0.00    +0.023 C 
ATOM      7  C   UNL     1      -4.827  -9.858   0.961  0.00  0.00    +0.242 C 
ATOM      8  O   UNL     1      -4.028 -10.372   1.715  0.00  0.00    -0.273 OA
ENDROOT
BRANCH   7   9
ATOM      9  C   UNL     1      -6.227 -10.406   0.860  0.00  0.00    +0.190 C 
ATOM     10  C   UNL     1      -7.229  -9.361   1.297  0.00  0.00    +0.016 C 
ATOM     11  C   UNL     1      -7.878  -9.884   2.360  0.00  0.00    -0.003 A 
ATOM     12  C   UNL     1      -8.950  -9.368   3.221  0.00  0.00    +0.013 A 
ATOM     13  C   UNL     1      -9.409 -10.138   4.232  0.00  0.00    +0.046 A 
ATOM     14  C   UNL     1      -8.884 -11.421   4.479  0.00  0.00    +0.122 A 
ATOM     15  C   UNL     1      -7.893 -11.961   3.726  0.00  0.00    +0.071 A 
ATOM     16  C   UNL     1      -7.342 -11.236   2.640  0.00  0.00    +0.047 A 
ATOM     17  N   UNL     1      -6.395 -11.537   1.779  0.00  0.00    -0.370 N 
ATOM     18  H   UNL     1      -5.892 -12.366   1.755  0.00  0.00    +0.161 HD
BRANCH  14  19
ATOM     19  O   UNL     1      -9.388 -12.143   5.510  0.00  0.00    -0.495 OA
ATOM     20  C   UNL     1     -10.429 -11.538   6.279  0.00  0.00    +0.277 C 
ENDBRANCH  14  19
ENDBRANCH   7   9
BRANCH   1  21
ATOM     21  C   UNL     1      -4.132  -4.574  -0.184  0.00  0.00    +0.075 C 
ATOM     22  C   UNL     1      -5.010  -3.900  -1.239  0.00  0.00    +0.017 C 
BRANCH  21  24
ATOM     23  N   UNL     1      -2.551  -2.677  -0.032  0.00  0.00    -0.315 N 
ATOM     24  C   UNL     1      -2.742  -3.995  -0.243  0.00  0.00    +0.216 C 
ATOM     25  O   UNL     1      -1.794  -4.714  -0.480  0.00  0.00    -0.276 OA
ATOM     26  H   UNL     1      -3.308  -2.102   0.158  0.00  0.00    +0.149 HD
BRANCH  23  27
ATOM     27  C   UNL     1      -1.200  -2.114  -0.089  0.00  0.00    +0.102 C 
BRANCH  27  28
ATOM     28  C   UNL     1      -1.262  -0.610   0.184  0.00  0.00    +0.003 C 
BRANCH  28  30
ATOM     29  C   UNL     1       0.658  -0.139  -1.344  0.00  0.00    -0.013 C 
ATOM     30  C   UNL     1       0.145  -0.017   0.092  0.00  0.00    -0.070 C 
BRANCH  30  31
ATOM     31  N   UNL     1       0.105   1.400   0.478  0.00  0.00    +0.381 N 
ATOM     32  C   UNL     1      -0.360   1.535   1.882  0.00  0.00    -0.079 C 
ATOM     33  C   UNL     1       0.177   2.927   2.302  0.00  0.00    -0.020 C 
ATOM     34  C   UNL     1       1.555   2.990   1.604  0.00  0.00    -0.020 C 
ATOM     35  C   UNL     1       1.467   1.976   0.448  0.00  0.00    -0.079 C 
ATOM     36  H   UNL     1      -0.503   1.913  -0.142  0.00  0.00    -0.081 HD
ENDBRANCH  30  31
ENDBRANCH  28  30
ENDBRANCH  27  28
ENDBRANCH  23  27
ENDBRANCH  21  24
ENDBRANCH   1  21
TORSDOF 8
