REMARK  Name = ZINC40985943
REMARK  11 active torsions:
REMARK  status: ('A' for Active; 'I' for Inactive)
REMARK    1  A    between atoms: C_1  and  C_2
REMARK    2  A    between atoms: C_5  and  C_8
REMARK    3  A    between atoms: C_8  and  C_10
REMARK    4  A    between atoms: C_8  and  N_30
REMARK    5  A    between atoms: C_10  and  N_11
REMARK    6  A    between atoms: C_12  and  C_14
REMARK    7  A    between atoms: C_17  and  S_21
REMARK    8  A    between atoms: S_21  and  C_22
REMARK    9  A    between atoms: C_22  and  C_23
REMARK   10  A    between atoms: N_30  and  C_31
REMARK   11  A    between atoms: N_30  and  C_32
REMARK                            x       y       z     vdW  Elec       q    Type
REMARK                         _______ _______ _______ _____ _____    ______ ____
ROOT
ATOM      1  N   UNL     1       0.773  -6.391   0.509  0.00  0.00    -0.312 N 
ATOM      2  C   UNL     1       1.768  -7.243   0.827  0.00  0.00    +0.248 C 
ATOM      3  O   UNL     1       2.916  -6.845   0.883  0.00  0.00    -0.270 OA
ATOM      4  H   UNL     1      -0.142  -6.708   0.464  0.00  0.00    +0.149 HD
ENDROOT
BRANCH   2   5
ATOM      5  C   UNL     1       1.464  -8.659   1.106  0.00  0.00    +0.092 A 
ATOM      6  C   UNL     1       0.149  -9.138   1.041  0.00  0.00    +0.129 A 
ATOM      7  N   UNL     1      -0.081 -10.412   1.298  0.00  0.00    -0.229 NA
ATOM      8  C   UNL     1       0.912 -11.235   1.614  0.00  0.00    +0.190 A 
ATOM      9  N   UNL     1       2.171 -10.820   1.687  0.00  0.00    -0.209 NA
ATOM     10  C   UNL     1       2.485  -9.562   1.439  0.00  0.00    +0.146 A 
ATOM     11 CL   UNL     1       4.136  -9.032   1.530  0.00  0.00    -0.061 Cl
BRANCH   8  12
ATOM     12  S   UNL     1       0.547 -12.926   1.948  0.00  0.00    -0.081 S 
BRANCH  12  13
ATOM     13  C   UNL     1       2.164 -13.657   2.326  0.00  0.00    +0.112 C 
BRANCH  13  14
ATOM     14  C   UNL     1       1.993 -15.122   2.634  0.00  0.00    -0.037 A 
ATOM     15  C   UNL     1       1.757 -15.532   3.933  0.00  0.00    +0.006 A 
ATOM     16  C   UNL     1       1.600 -16.875   4.216  0.00  0.00    +0.020 A 
ATOM     17  C   UNL     1       1.679 -17.811   3.200  0.00  0.00    +0.041 A 
ATOM     18  C   UNL     1       1.916 -17.400   1.900  0.00  0.00    +0.020 A 
ATOM     19  C   UNL     1       2.067 -16.055   1.617  0.00  0.00    +0.006 A 
ATOM     20 CL   UNL     1       1.483 -19.498   3.555  0.00  0.00    -0.084 Cl
ENDBRANCH  13  14
ENDBRANCH  12  13
ENDBRANCH   8  12
ENDBRANCH   2   5
BRANCH   1  21
ATOM     21  C   UNL     1       1.075  -4.984   0.231  0.00  0.00    +0.094 C 
BRANCH  21  22
ATOM     22  C   UNL     1      -0.229  -4.220  -0.007  0.00  0.00    -0.021 C 
BRANCH  22  27
ATOM     23  C   UNL     1      -2.812  -6.248  -4.762  0.00  0.00    +0.044 C 
ATOM     24  C   UNL     1      -2.138  -5.719  -3.522  0.00  0.00    -0.050 A 
ATOM     25  C   UNL     1      -2.566  -6.132  -2.274  0.00  0.00    +0.003 A 
ATOM     26  C   UNL     1      -1.948  -5.647  -1.137  0.00  0.00    +0.002 A 
ATOM     27  C   UNL     1      -0.902  -4.750  -1.247  0.00  0.00    -0.059 A 
ATOM     28  C   UNL     1      -0.474  -4.338  -2.495  0.00  0.00    +0.002 A 
ATOM     29  C   UNL     1      -1.089  -4.826  -3.633  0.00  0.00    +0.003 A 
ENDBRANCH  22  27
BRANCH  22  30
ATOM     30  N   UNL     1       0.065  -2.792  -0.182  0.00  0.00    +0.382 N 
ATOM     31  C   UNL     1      -1.182  -2.065  -0.455  0.00  0.00    -0.096 C 
ATOM     32  C   UNL     1       0.680  -2.265   1.044  0.00  0.00    -0.096 C 
ATOM     33  H   UNL     1       0.702  -2.671  -0.956  0.00  0.00    -0.082 HD
ENDBRANCH  22  30
ENDBRANCH  21  22
ENDBRANCH   1  21
TORSDOF 8
