REMARK  Name = ZINC05574921
REMARK  12 active torsions:
REMARK  status: ('A' for Active; 'I' for Inactive)
REMARK    1  A    between atoms: C_1  and  C_2
REMARK    2  A    between atoms: C_2  and  C_3
REMARK    3  A    between atoms: C_3  and  C_31
REMARK    4  A    between atoms: C_4  and  C_5
REMARK    5  A    between atoms: C_5  and  O_7
REMARK    6  A    between atoms: O_7  and  C_8
REMARK    7  A    between atoms: C_13  and  O_30
REMARK    8  A    between atoms: C_16  and  C_29
REMARK    9  A    between atoms: C_18  and  C_28
REMARK   10  A    between atoms: C_20  and  C_25
REMARK   11  A    between atoms: C_22  and  O_24
REMARK   12  A    between atoms: C_25  and  C_27
REMARK                            x       y       z     vdW  Elec       q    Type
REMARK                         _______ _______ _______ _____ _____    ______ ____
ROOT
ATOM      1  C   UNL     1      -3.288   1.814   0.163  0.00  0.00    +0.209 C 
ATOM      2  C   UNL     1      -4.129   0.846   0.998  0.00  0.00    +0.041 C 
ATOM      3  C   UNL     1      -4.157  -0.524   0.316  0.00  0.00    +0.039 C 
ATOM      4  C   UNL     1      -4.997  -1.492   1.150  0.00  0.00    +0.115 C 
ATOM      5  C   UNL     1      -6.424  -0.954   1.273  0.00  0.00    +0.035 C 
ATOM      6  C   UNL     1      -6.396   0.415   1.955  0.00  0.00    -0.005 C 
ATOM      7  C   UNL     1      -5.556   1.384   1.120  0.00  0.00    -0.022 C 
ATOM      8  C   UNL     1      -6.170   1.521  -0.274  0.00  0.00    +0.017 C 
ATOM      9  C   UNL     1      -5.330   2.490  -1.109  0.00  0.00    +0.047 C 
ATOM     10  C   UNL     1      -3.903   1.951  -1.231  0.00  0.00    +0.162 C 
ATOM     11  C   UNL     1      -5.528   2.753   1.802  0.00  0.00    +0.012 C 
ATOM     12  C   UNL     1      -7.823   0.953   2.077  0.00  0.00    +0.008 C 
ENDROOT
BRANCH   9  13
ATOM     13  C   UNL     1      -5.935   2.625  -2.482  0.00  0.00    -0.074 C 
ATOM     14  C   UNL     1      -6.198   3.813  -2.968  0.00  0.00    +0.008 C 
ATOM     15  C   UNL     1      -6.239   1.393  -3.297  0.00  0.00    +0.039 C 
ENDBRANCH   9  13
BRANCH  10  16
ATOM     16  O   UNL     1      -3.929   0.673  -1.869  0.00  0.00    -0.388 OA
ATOM     17  H   UNL     1      -3.057   0.271  -1.980  0.00  0.00    +0.210 HD
ENDBRANCH  10  16
BRANCH   4  18
ATOM     18  O   UNL     1      -5.023  -2.771   0.513  0.00  0.00    -0.392 OA
ATOM     19  H   UNL     1      -5.539  -3.437   0.988  0.00  0.00    +0.210 HD
ENDBRANCH   4  18
BRANCH   1  20
ATOM     20  O   UNL     1      -1.934   1.304   0.047  0.00  0.00    -0.455 OA
BRANCH  20  21
ATOM     21  C   UNL     1      -0.946   2.212  -0.075  0.00  0.00    +0.332 C 
ATOM     22  O   UNL     1      -1.209   3.399  -0.085  0.00  0.00    -0.246 OA
BRANCH  21  24
ATOM     23  C   UNL     1       1.434   2.664  -0.217  0.00  0.00    -0.066 C 
ATOM     24  C   UNL     1       0.450   1.768  -0.198  0.00  0.00    +0.090 C 
ATOM     25  C   UNL     1       1.112   4.136  -0.236  0.00  0.00    +0.039 C 
BRANCH  23  27
ATOM     26  C   UNL     1       3.383   2.150  -1.662  0.00  0.00    +0.008 C 
ATOM     27  C   UNL     1       2.869   2.206  -0.222  0.00  0.00    +0.027 C 
ENDBRANCH  23  27
ENDBRANCH  21  24
ENDBRANCH  20  21
ENDBRANCH   1  20
TORSDOF 7
