REMARK  Name = ZINC38684807
REMARK  13 active torsions:
REMARK  status: ('A' for Active; 'I' for Inactive)
REMARK    1  A    between atoms: C_1  and  C_2
REMARK    2  A    between atoms: C_2  and  C_3
REMARK    3  A    between atoms: C_3  and  C_4
REMARK    4  A    between atoms: C_4  and  C_5
REMARK    5  A    between atoms: C_5  and  O_6
REMARK    6  A    between atoms: O_6  and  C_7
REMARK    7  A    between atoms: C_11  and  C_13
REMARK    8  A    between atoms: C_18  and  O_27
REMARK    9  A    between atoms: C_22  and  N_26
REMARK   10  A    between atoms: C_23  and  C_24
REMARK   11  A    between atoms: O_27  and  C_28
REMARK   12  A    between atoms: C_28  and  C_30
REMARK   13  A    between atoms: C_35  and  N_36
REMARK                            x       y       z     vdW  Elec       q    Type
REMARK                         _______ _______ _______ _____ _____    ______ ____
ROOT
ATOM      1  C   UNL     1      -5.497  -7.946   0.014  0.00  0.00    +0.098 C 
ATOM      2  C   UNL     1      -6.194  -8.453   1.249  0.00  0.00    +0.008 A 
ATOM      3  C   UNL     1      -5.505  -8.503   2.447  0.00  0.00    +0.012 A 
ATOM      4  C   UNL     1      -6.127  -8.966   3.590  0.00  0.00    +0.047 A 
ATOM      5  C   UNL     1      -7.450  -9.383   3.538  0.00  0.00    +0.135 A 
ATOM      6  C   UNL     1      -8.143  -9.335   2.339  0.00  0.00    +0.093 A 
ATOM      7  C   UNL     1      -7.516  -8.868   1.191  0.00  0.00    +0.138 A 
ATOM      8  O   UNL     1      -8.208  -8.826   0.026  0.00  0.00    -0.441 OA
ATOM      9  C   UNL     1      -7.549  -8.759  -1.143  0.00  0.00    +0.199 C 
ATOM     10  C   UNL     1      -6.264  -8.349  -1.214  0.00  0.00    +0.098 C 
ENDROOT
BRANCH   1  15
ATOM     11  C   UNL     1      -4.088  -4.441   0.120  0.00  0.00    +0.121 A 
ATOM     12  C   UNL     1      -5.247  -3.681   0.186  0.00  0.00    +0.045 A 
ATOM     13  C   UNL     1      -6.480  -4.304   0.196  0.00  0.00    +0.004 A 
ATOM     14  C   UNL     1      -6.560  -5.683   0.140  0.00  0.00    +0.005 A 
ATOM     15  C   UNL     1      -5.407  -6.442   0.074  0.00  0.00    -0.031 A 
ATOM     16  C   UNL     1      -4.171  -5.824   0.059  0.00  0.00    +0.050 A 
BRANCH  11  17
ATOM     17  O   UNL     1      -2.874  -3.831   0.111  0.00  0.00    -0.492 OA
BRANCH  17  18
ATOM     18  C   UNL     1      -2.865  -2.403   0.176  0.00  0.00    +0.229 C 
BRANCH  18  19
ATOM     19  C   UNL     1      -1.420  -1.901   0.154  0.00  0.00    +0.041 C 
BRANCH  19  20
ATOM     20  C   UNL     1      -1.410  -0.373   0.225  0.00  0.00    +0.003 C 
BRANCH  20  22
ATOM     21  C   UNL     1       0.045   1.658   0.273  0.00  0.00    +0.004 C 
ATOM     22  C   UNL     1       0.035   0.129   0.203  0.00  0.00    -0.003 C 
ENDBRANCH  20  22
ENDBRANCH  19  20
ENDBRANCH  18  19
ENDBRANCH  17  18
ENDBRANCH  11  17
ENDBRANCH   1  15
BRANCH   9  23
ATOM     23  N   UNL     1      -8.201  -9.117  -2.296  0.00  0.00    -0.328 N 
ATOM     24  H   UNL     1      -9.124  -9.412  -2.260  0.00  0.00    +0.145 HD
ATOM     25  H   UNL     1      -7.739  -9.073  -3.148  0.00  0.00    +0.145 HD
ENDBRANCH   9  23
BRANCH  10  26
ATOM     26  C   UNL     1      -5.619  -8.298  -2.492  0.00  0.00    +0.101 C 
ATOM     27  N   UNL     1      -5.107  -8.258  -3.505  0.00  0.00    -0.191 NA
ENDBRANCH  10  26
BRANCH   5  28
ATOM     28  O   UNL     1      -8.064  -9.839   4.661  0.00  0.00    -0.422 OA
BRANCH  28  29
ATOM     29  C   UNL     1      -8.277  -8.966   5.665  0.00  0.00    +0.347 C 
ATOM     30  O   UNL     1      -8.009  -7.791   5.514  0.00  0.00    -0.244 OA
BRANCH  29  31
ATOM     31  C   UNL     1      -8.836  -9.438   6.948  0.00  0.00    +0.089 A 
ATOM     32  C   UNL     1     -10.043 -10.140   6.972  0.00  0.00    +0.017 A 
ATOM     33  C   UNL     1     -10.559 -10.578   8.173  0.00  0.00    +0.001 A 
ATOM     34  C   UNL     1      -9.884 -10.322   9.354  0.00  0.00    +0.002 A 
ATOM     35  C   UNL     1      -8.688  -9.626   9.338  0.00  0.00    +0.033 A 
ATOM     36  C   UNL     1      -8.158  -9.188   8.143  0.00  0.00    +0.140 A 
BRANCH  36  37
ATOM     37  N   UNL     1      -6.875  -8.450   8.127  0.00  0.00    +0.057 N 
ATOM     38  O   UNL     1      -6.352  -8.123   9.167  0.00  0.00    -0.126 OA
ATOM     39  O   UNL     1      -6.349  -8.173   7.074  0.00  0.00    -0.126 OA
ENDBRANCH  36  37
ENDBRANCH  29  31
ENDBRANCH  28  29
ENDBRANCH   5  28
TORSDOF 12
