REMARK  Name = ZINC15980667
REMARK  11 active torsions:
REMARK  status: ('A' for Active; 'I' for Inactive)
REMARK    1  A    between atoms: C_1  and  C_2
REMARK    2  A    between atoms: C_2  and  C_3
REMARK    3  A    between atoms: C_3  and  N_4
REMARK    4  A    between atoms: N_4  and  C_18
REMARK    5  A    between atoms: C_5  and  C_7
REMARK    6  A    between atoms: C_7  and  C_8
REMARK    7  A    between atoms: C_18  and  C_26
REMARK    8  A    between atoms: C_23  and  C_24
REMARK    9  A    between atoms: C_23  and  C_25
REMARK   10  A    between atoms: C_23  and  N_72
REMARK   11  A    between atoms: N_28  and  C_29
REMARK                            x       y       z     vdW  Elec       q    Type
REMARK                         _______ _______ _______ _____ _____    ______ ____
ROOT
ATOM      1  C   UNL     1      -4.108   5.078  -2.176  0.00  0.00    +0.110 C 
ATOM      2  C   UNL     1      -5.311   4.362  -2.795  0.00  0.00    +0.017 C 
ATOM      3  C   UNL     1      -5.072   2.849  -2.757  0.00  0.00    -0.076 C 
ATOM      4  C   UNL     1      -2.674   3.165  -2.897  0.00  0.00    -0.076 C 
ATOM      5  C   UNL     1      -2.840   4.686  -2.940  0.00  0.00    +0.017 C 
ATOM      6  N   UNL     1      -3.852   2.535  -3.530  0.00  0.00    +0.381 N 
ATOM      7  H   UNL     1      -3.957   2.906  -4.482  0.00  0.00    -0.081 HD
ENDROOT
BRANCH   1   8
ATOM      8  C   UNL     1      -4.309   6.569  -2.265  0.00  0.00    +0.241 C 
ATOM      9  O   UNL     1      -3.780   7.200  -3.155  0.00  0.00    -0.273 OA
ATOM     10  N   UNL     1      -5.077   7.200  -1.355  0.00  0.00    -0.284 N 
ATOM     11  H   UNL     1      -5.434   6.711  -0.597  0.00  0.00    +0.155 HD
BRANCH  10  12
ATOM     12  C   UNL     1      -5.359   8.563  -1.503  0.00  0.00    +0.033 A 
ATOM     13  C   UNL     1      -5.506   9.109  -2.771  0.00  0.00    +0.023 A 
ATOM     14  C   UNL     1      -5.790  10.454  -2.913  0.00  0.00    +0.002 A 
ATOM     15  C   UNL     1      -5.917  11.257  -1.795  0.00  0.00    +0.000 A 
ATOM     16  C   UNL     1      -5.765  10.717  -0.531  0.00  0.00    +0.002 A 
ATOM     17  C   UNL     1      -5.487   9.373  -0.382  0.00  0.00    +0.023 A 
ENDBRANCH  10  12
ENDBRANCH   1   8
BRANCH   1  18
ATOM     18  N   UNL     1      -3.974   4.684  -0.771  0.00  0.00    -0.287 N 
ATOM     19  C   UNL     1      -4.950   3.971  -0.175  0.00  0.00    +0.221 C 
ATOM     20  O   UNL     1      -5.979   3.735  -0.772  0.00  0.00    -0.275 OA
BRANCH  18  21
ATOM     21  C   UNL     1      -2.780   5.067  -0.014  0.00  0.00    +0.108 C 
BRANCH  21  23
ATOM     22  C   UNL     1      -0.570   4.273   0.839  0.00  0.00    +0.005 C 
ATOM     23  C   UNL     1      -1.765   3.923  -0.050  0.00  0.00    +0.016 C 
ENDBRANCH  21  23
ENDBRANCH  18  21
BRANCH  19  24
ATOM     24  C   UNL     1      -4.762   3.465   1.232  0.00  0.00    +0.131 C 
BRANCH  24  25
ATOM     25  C   UNL     1      -5.989   2.703   1.660  0.00  0.00    -0.031 A 
ATOM     26  C   UNL     1      -6.975   3.330   2.359  0.00  0.00    +0.005 A 
ATOM     27  C   UNL     1      -8.114   2.640   2.769  0.00  0.00    +0.001 A 
ATOM     28  C   UNL     1      -8.280   1.321   2.472  0.00  0.00    +0.008 A 
ATOM     29  C   UNL     1      -7.286   0.642   1.747  0.00  0.00    -0.018 A 
ATOM     30  C   UNL     1      -6.125   1.343   1.335  0.00  0.00    -0.014 A 
ATOM     31  C   UNL     1      -5.132   0.663   0.609  0.00  0.00    +0.009 A 
ATOM     32  C   UNL     1      -5.297  -0.655   0.312  0.00  0.00    +0.001 A 
ATOM     33  C   UNL     1      -6.439  -1.343   0.717  0.00  0.00    +0.001 A 
ATOM     34  C   UNL     1      -7.422  -0.718   1.421  0.00  0.00    +0.008 A 
ENDBRANCH  24  25
ENDBRANCH  19  24
ENDBRANCH   1  18
BRANCH   6  35
ATOM     35  C   UNL     1      -3.663   1.072  -3.603  0.00  0.00    -0.075 C 
ATOM     36  C   UNL     1      -4.905   0.442  -4.237  0.00  0.00    -0.014 C 
ATOM     37  C   UNL     1      -2.440   0.773  -4.472  0.00  0.00    -0.014 C 
ENDBRANCH   6  35
TORSDOF 8
