REMARK  Name = ZINC27329235
REMARK  5 active torsions:
REMARK  status: ('A' for Active; 'I' for Inactive)
REMARK    1  A    between atoms: C_2  and  N_20
REMARK    2  A    between atoms: N_8  and  C_11
REMARK    3  A    between atoms: C_15  and  C_18
REMARK    4  A    between atoms: C_18  and  O_19
REMARK    5  A    between atoms: N_20  and  C_21
REMARK                            x       y       z     vdW  Elec       q    Type
REMARK                         _______ _______ _______ _____ _____    ______ ____
ROOT
ATOM      1  C   UNL     1      -1.508   1.595   3.996  0.00  0.00    +0.065 A 
ATOM      2  C   UNL     1      -0.212   1.954   3.640  0.00  0.00    +0.060 A 
ATOM      3  C   UNL     1       0.681   2.307   4.667  0.00  0.00    +0.129 A 
ATOM      4  C   UNL     1       0.234   2.277   5.996  0.00  0.00    +0.166 A 
ATOM      5  N   UNL     1      -1.012   1.921   6.278  0.00  0.00    -0.216 NA
ATOM      6  C   UNL     1      -1.868   1.586   5.332  0.00  0.00    +0.133 A 
ATOM      7 CL   UNL     1      -3.485   1.130   5.773  0.00  0.00    -0.062 Cl
ATOM      8  N   UNL     1       1.310   2.664   6.764  0.00  0.00    -0.288 N 
ATOM      9  C   UNL     1       2.348   2.912   5.917  0.00  0.00    +0.203 A 
ATOM     10  N   UNL     1       1.978   2.702   4.688  0.00  0.00    -0.232 NA
ENDROOT
BRANCH   8  11
ATOM     11  C   UNL     1       1.334   2.787   8.224  0.00  0.00    +0.222 C 
ATOM     12  C   UNL     1       0.806   4.177   8.641  0.00  0.00    +0.057 C 
ATOM     13  C   UNL     1       1.752   4.546   9.818  0.00  0.00    +0.038 C 
ATOM     14  C   UNL     1       3.075   3.890   9.352  0.00  0.00    +0.146 C 
ATOM     15  O   UNL     1       2.680   2.673   8.699  0.00  0.00    -0.351 OA
BRANCH  14  16
ATOM     16  C   UNL     1       3.968   3.581  10.555  0.00  0.00    +0.187 C 
BRANCH  16  17
ATOM     17  O   UNL     1       5.203   3.023  10.102  0.00  0.00    -0.392 OA
ATOM     18  H   UNL     1       5.977   2.736  10.829  0.00  0.00    +0.210 HD
ENDBRANCH  16  17
ENDBRANCH  14  16
ENDBRANCH   8  11
BRANCH   2  19
ATOM     19  N   UNL     1       0.186   1.969   2.308  0.00  0.00    -0.339 N 
ATOM     20  H   UNL     1       1.214   2.260   2.044  0.00  0.00    +0.146 HD
BRANCH  19  21
ATOM     21  C   UNL     1      -0.763   1.597   1.255  0.00  0.00    +0.070 C 
ATOM     22  C   UNL     1      -0.013   1.086   0.008  0.00  0.00    +0.022 C 
ATOM     23  C   UNL     1      -0.784   1.609  -1.216  0.00  0.00    +0.002 C 
ATOM     24  C   UNL     1      -1.978   2.421  -0.670  0.00  0.00    +0.002 C 
ATOM     25  C   UNL     1      -1.531   2.845   0.750  0.00  0.00    +0.022 C 
ENDBRANCH  19  21
ENDBRANCH   2  19
TORSDOF 5
