REMARK  Name = ZINC08014284
REMARK  4 active torsions:
REMARK  status: ('A' for Active; 'I' for Inactive)
REMARK    1  A    between atoms: C_1  and  C_2
REMARK    2  A    between atoms: C_9  and  N_14
REMARK    3  A    between atoms: C_15  and  C_17
REMARK    4  A    between atoms: C_17  and  C_18
REMARK                            x       y       z     vdW  Elec       q    Type
REMARK                         _______ _______ _______ _____ _____    ______ ____
ROOT
ATOM      1  C   UNL     1       7.036   4.133   0.445  0.00  0.00    +0.062 C 
ATOM      2  C   UNL     1       5.741   3.405   0.812  0.00  0.00    +0.256 C 
ATOM      3  C   UNL     1       5.899   1.931   0.537  0.00  0.00    +0.258 C 
ATOM      4  O   UNL     1       6.995   1.414   0.600  0.00  0.00    -0.271 OA
ATOM      5  N   UNL     1       4.816   1.189   0.220  0.00  0.00    -0.279 N 
ATOM      6  C   UNL     1       3.567   1.818   0.119  0.00  0.00    +0.077 A 
ATOM      7  C   UNL     1       2.400   1.073   0.114  0.00  0.00    +0.050 A 
ATOM      8  C   UNL     1       1.173   1.715   0.013  0.00  0.00    +0.035 A 
ATOM      9  C   UNL     1       1.118   3.099  -0.088  0.00  0.00    +0.027 A 
ATOM     10  C   UNL     1       2.284   3.843  -0.077  0.00  0.00    +0.049 A 
ATOM     11  C   UNL     1       3.509   3.207   0.023  0.00  0.00    +0.143 A 
ATOM     12  O   UNL     1       4.664   3.927   0.031  0.00  0.00    -0.478 OA
ATOM     13  H   UNL     1       4.901   0.235   0.065  0.00  0.00    +0.155 HD
ENDROOT
BRANCH   8  14
ATOM     14  N   UNL     1      -0.011   0.966   0.007  0.00  0.00    -0.285 N 
ATOM     15  C   UNL     1      -1.121   1.455   0.595  0.00  0.00    +0.222 C 
ATOM     16  O   UNL     1      -1.118   2.576   1.059  0.00  0.00    -0.275 OA
ATOM     17  H   UNL     1      -0.033   0.097  -0.423  0.00  0.00    +0.155 HD
BRANCH  15  18
ATOM     18  C   UNL     1      -2.366   0.610   0.675  0.00  0.00    +0.131 C 
BRANCH  18  19
ATOM     19  C   UNL     1      -3.454   1.383   1.374  0.00  0.00    -0.039 A 
ATOM     20  C   UNL     1      -3.592   1.296   2.747  0.00  0.00    +0.005 A 
ATOM     21  C   UNL     1      -4.587   2.010   3.388  0.00  0.00    +0.015 A 
ATOM     22  C   UNL     1      -5.452   2.802   2.655  0.00  0.00    +0.018 A 
ATOM     23  C   UNL     1      -5.317   2.885   1.281  0.00  0.00    +0.015 A 
ATOM     24  C   UNL     1      -4.318   2.175   0.641  0.00  0.00    +0.005 A 
ATOM     25 BR   UNL     1      -6.818   3.773   3.531  0.00  0.00    -0.050 Br
ENDBRANCH  18  19
ENDBRANCH  15  18
ENDBRANCH   8  14
TORSDOF 3
