REMARK  Name = ZINC09264386
REMARK  3 active torsions:
REMARK  status: ('A' for Active; 'I' for Inactive)
REMARK    1  A    between atoms: C_4  and  N_7
REMARK    2  A    between atoms: C_20  and  C_22
REMARK    3  A    between atoms: C_30  and  C_33
REMARK                            x       y       z     vdW  Elec       q    Type
REMARK                         _______ _______ _______ _____ _____    ______ ____
ROOT
ATOM      1  N   UNL     1      -1.199  -0.722   0.010  0.00  0.00    -0.269 N 
ATOM      2  C   UNL     1      -1.183  -2.065  -0.099  0.00  0.00    +0.312 C 
ATOM      3  O   UNL     1      -0.123  -2.661  -0.113  0.00  0.00    -0.252 OA
ATOM      4  N   UNL     1      -2.341  -2.748  -0.193  0.00  0.00    -0.239 N 
ATOM      5  C   UNL     1      -3.551  -2.056  -0.170  0.00  0.00    +0.060 A 
ATOM      6  C   UNL     1      -3.975  -1.376   0.956  0.00  0.00    +0.025 A 
ATOM      7  C   UNL     1      -5.212  -0.755   0.952  0.00  0.00    +0.002 A 
ATOM      8  C   UNL     1      -6.022  -0.810  -0.167  0.00  0.00    +0.002 A 
ATOM      9  C   UNL     1      -5.590  -1.466  -1.307  0.00  0.00    +0.025 A 
ATOM     10  C   UNL     1      -4.343  -2.066  -1.313  0.00  0.00    +0.053 A 
ATOM     11  N   UNL     1      -3.819  -2.688  -2.441  0.00  0.00    -0.316 N 
ATOM     12  C   UNL     1      -3.529  -4.011  -2.535  0.00  0.00    +0.018 C 
ATOM     13  C   UNL     1      -2.852  -4.720  -1.617  0.00  0.00    +0.040 C 
ATOM     14  C   UNL     1      -2.312  -4.190  -0.309  0.00  0.00    +0.184 C 
ATOM     15  C   UNL     1      -2.590  -6.095  -1.827  0.00  0.00    +0.164 C 
ATOM     16  O   UNL     1      -1.956  -6.706  -0.990  0.00  0.00    -0.292 OA
ATOM     17  C   UNL     1      -3.067  -6.822  -3.049  0.00  0.00    +0.091 C 
ATOM     18  C   UNL     1      -4.347  -6.141  -3.550  0.00  0.00    +0.068 C 
ATOM     19  C   UNL     1      -4.018  -4.673  -3.813  0.00  0.00    +0.063 C 
ATOM     20  H   UNL     1      -2.044  -0.252   0.088  0.00  0.00    +0.156 HD
ATOM     21  H   UNL     1      -3.648  -2.134  -3.219  0.00  0.00    +0.152 HD
ENDROOT
BRANCH   1  25
ATOM     22  C   UNL     1       2.379   1.413   0.012  0.00  0.00    +0.000 A 
ATOM     23  C   UNL     1       1.253   1.953  -0.583  0.00  0.00    +0.002 A 
ATOM     24  C   UNL     1       0.066   1.248  -0.585  0.00  0.00    +0.023 A 
ATOM     25  C   UNL     1       0.003  -0.005   0.011  0.00  0.00    +0.035 A 
ATOM     26  C   UNL     1       1.134  -0.544   0.608  0.00  0.00    +0.023 A 
ATOM     27  C   UNL     1       2.319   0.166   0.607  0.00  0.00    +0.002 A 
ENDBRANCH   1  25
BRANCH  14  28
ATOM     28  C   UNL     1      -3.126  -4.777   0.815  0.00  0.00    +0.130 A 
ATOM     29  C   UNL     1      -2.809  -5.874   1.525  0.00  0.00    +0.047 A 
ATOM     30  C   UNL     1      -3.844  -6.063   2.470  0.00  0.00    +0.041 A 
ATOM     31  C   UNL     1      -4.731  -5.070   2.281  0.00  0.00    +0.195 A 
ATOM     32  O   UNL     1      -4.288  -4.291   1.280  0.00  0.00    -0.466 OA
ENDBRANCH  14  28
BRANCH  18  33
ATOM     33  C   UNL     1      -4.811  -6.798  -4.824  0.00  0.00    +0.109 A 
ATOM     34  C   UNL     1      -6.007  -7.381  -5.018  0.00  0.00    +0.045 A 
ATOM     35  C   UNL     1      -6.019  -7.860  -6.348  0.00  0.00    +0.041 A 
ATOM     36  C   UNL     1      -4.825  -7.548  -6.885  0.00  0.00    +0.195 A 
ATOM     37  O   UNL     1      -4.098  -6.905  -5.957  0.00  0.00    -0.468 OA
ENDBRANCH  18  33
TORSDOF 3
