REMARK  Name = ZINC38734574
REMARK  13 active torsions:
REMARK  status: ('A' for Active; 'I' for Inactive)
REMARK    1  A    between atoms: C_1  and  C_2
REMARK    2  A    between atoms: C_4  and  C_35
REMARK    3  A    between atoms: C_6  and  C_34
REMARK    4  A    between atoms: N_8  and  C_10
REMARK    5  A    between atoms: C_13  and  C_16
REMARK    6  A    between atoms: N_18  and  C_19
REMARK    7  A    between atoms: C_19  and  C_21
REMARK    8  A    between atoms: C_19  and  C_31
REMARK    9  A    between atoms: C_21  and  C_22
REMARK   10  A    between atoms: C_35  and  C_36
REMARK   11  A    between atoms: C_36  and  C_37
REMARK   12  A    between atoms: C_37  and  O_39
REMARK   13  A    between atoms: O_39  and  C_40
REMARK                            x       y       z     vdW  Elec       q    Type
REMARK                         _______ _______ _______ _____ _____    ______ ____
ROOT
ATOM      1  C   UNL     1       6.447   0.058   4.355  0.00  0.00    +0.245 C 
ATOM      2  O   UNL     1       7.583   0.140   3.930  0.00  0.00    -0.270 OA
ATOM      3  N   UNL     1       6.221   0.085   5.684  0.00  0.00    -0.300 N 
ATOM      4  H   UNL     1       5.315   0.020   6.023  0.00  0.00    +0.150 HD
ENDROOT
BRANCH   1   8
ATOM      5  C   UNL     1       3.191  -0.314   1.655  0.00  0.00    +0.045 A 
ATOM      6  C   UNL     1       4.491  -0.220   1.167  0.00  0.00    +0.025 A 
ATOM      7  C   UNL     1       5.548  -0.099   2.039  0.00  0.00    +0.015 A 
ATOM      8  C   UNL     1       5.316  -0.071   3.417  0.00  0.00    +0.037 A 
ATOM      9  C   UNL     1       4.009  -0.166   3.905  0.00  0.00    +0.015 A 
ATOM     10  C   UNL     1       2.955  -0.281   3.027  0.00  0.00    +0.025 A 
BRANCH   5  15
ATOM     11  C   UNL     1      -0.019   1.526   0.010  0.00  0.00    +0.026 C 
ATOM     12  C   UNL     1       0.002  -0.004   0.002  0.00  0.00    +0.075 C 
ATOM     13  C   UNL     1       0.789  -0.542  -1.224  0.00  0.00    +0.029 C 
ATOM     14  C   UNL     1       2.243  -0.483  -0.695  0.00  0.00    +0.092 C 
ATOM     15  N   UNL     1       2.125  -0.436   0.771  0.00  0.00    -0.264 N 
ATOM     16  N   UNL     1       0.805  -0.531   1.135  0.00  0.00    -0.237 NA
ATOM     17  C   UNL     1       3.015  -1.732  -1.127  0.00  0.00    +0.030 C 
ATOM     18  H   UNL     1       0.555  -1.486   1.342  0.00  0.00    +0.145 HD
BRANCH  13  19
ATOM     19  C   UNL     1       0.607   0.369  -2.439  0.00  0.00    +0.018 C 
BRANCH  19  20
ATOM     20  C   UNL     1      -0.850   0.316  -2.902  0.00  0.00    +0.121 C 
BRANCH  20  21
ATOM     21  C   UNL     1      -1.030   1.214  -4.099  0.00  0.00    +0.307 C 
ATOM     22  O   UNL     1      -0.089   1.833  -4.536  0.00  0.00    -0.251 OA
BRANCH  21  23
ATOM     23  O   UNL     1      -2.236   1.325  -4.679  0.00  0.00    -0.468 OA
ATOM     24  C   UNL     1      -2.333   2.194  -5.809  0.00  0.00    +0.280 C 
ENDBRANCH  21  23
ENDBRANCH  20  21
ENDBRANCH  19  20
ENDBRANCH  13  19
ENDBRANCH   5  15
ENDBRANCH   1   8
BRANCH   3  25
ATOM     25  C   UNL     1       7.344   0.213   6.615  0.00  0.00    +0.163 C 
BRANCH  25  26
ATOM     26  C   UNL     1       7.928  -1.149   6.888  0.00  0.00    +0.231 C 
ATOM     27  O   UNL     1       7.453  -2.130   6.357  0.00  0.00    -0.274 OA
ATOM     28  N   UNL     1       8.979  -1.277   7.723  0.00  0.00    -0.328 N 
ATOM     29  H   UNL     1       9.359  -0.492   8.148  0.00  0.00    +0.145 HD
ATOM     30  H   UNL     1       9.355  -2.154   7.899  0.00  0.00    +0.145 HD
ENDBRANCH  25  26
BRANCH  25  31
ATOM     31  C   UNL     1       6.852   0.829   7.926  0.00  0.00    +0.069 C 
BRANCH  31  32
ATOM     32  C   UNL     1       6.381   2.238   7.674  0.00  0.00    -0.020 A 
ATOM     33  C   UNL     1       5.051   2.643   7.210  0.00  0.00    +0.003 A 
ATOM     34  C   UNL     1       3.887   1.948   6.878  0.00  0.00    +0.010 A 
ATOM     35  C   UNL     1       2.780   2.637   6.468  0.00  0.00    +0.001 A 
ATOM     36  C   UNL     1       2.804   4.022   6.379  0.00  0.00    +0.002 A 
ATOM     37  C   UNL     1       3.943   4.727   6.702  0.00  0.00    +0.026 A 
ATOM     38  C   UNL     1       5.081   4.047   7.122  0.00  0.00    +0.047 A 
ATOM     39  N   UNL     1       6.340   4.451   7.505  0.00  0.00    -0.360 N 
ATOM     40  C   UNL     1       7.098   3.361   7.836  0.00  0.00    +0.087 A 
ATOM     41  H   UNL     1       6.643   5.372   7.540  0.00  0.00    +0.165 HD
ENDBRANCH  31  32
ENDBRANCH  25  31
ENDBRANCH   3  25
TORSDOF 10
