REMARK  Name = ZINC39657142
REMARK  9 active torsions:
REMARK  status: ('A' for Active; 'I' for Inactive)
REMARK    1  A    between atoms: C_1  and  C_2
REMARK    2  A    between atoms: C_2  and  C_3
REMARK    3  A    between atoms: C_3  and  C_5
REMARK    4  A    between atoms: C_3  and  C_6
REMARK    5  A    between atoms: C_6  and  C_7
REMARK    6  A    between atoms: C_11  and  C_20
REMARK    7  A    between atoms: N_22  and  C_23
REMARK    8  A    between atoms: C_23  and  C_25
REMARK    9  A    between atoms: C_23  and  C_26
REMARK                            x       y       z     vdW  Elec       q    Type
REMARK                         _______ _______ _______ _____ _____    ______ ____
ROOT
ATOM      1  C   UNL     1       1.327  -2.519  -2.757  0.00  0.00    +0.216 C 
ATOM      2  O   UNL     1       1.737  -1.738  -3.589  0.00  0.00    -0.276 OA
ATOM      3  N   UNL     1       1.312  -3.840  -3.023  0.00  0.00    -0.300 N 
ATOM      4  C   UNL     1       0.848  -4.939  -2.144  0.00  0.00    +0.121 C 
ATOM      5  C   UNL     1       0.117  -5.916  -3.092  0.00  0.00    +0.100 C 
ATOM      6  C   UNL     1       0.719  -5.639  -4.480  0.00  0.00    -0.004 C 
ATOM      7  C   UNL     1       1.751  -4.522  -4.264  0.00  0.00    +0.115 C 
ATOM      8  C   UNL     1      -0.366  -5.168  -5.443  0.00  0.00    -0.010 C 
ATOM      9  C   UNL     1       0.246  -4.954  -6.830  0.00  0.00    -0.082 C 
ATOM     10  N   UNL     1       0.837  -6.211  -7.305  0.00  0.00    +0.379 N 
ATOM     11  C   UNL     1       1.942  -6.609  -6.425  0.00  0.00    -0.082 C 
ATOM     12  C   UNL     1       1.401  -6.892  -5.020  0.00  0.00    -0.010 C 
ATOM     13  H   UNL     1       0.132  -6.933  -7.306  0.00  0.00    -0.086 HD
ATOM     14  H   UNL     1       1.185  -6.083  -8.243  0.00  0.00    -0.086 HD
ENDROOT
BRANCH   5  15
ATOM     15  C   UNL     1       0.378  -7.341  -2.679  0.00  0.00    +0.219 C 
ATOM     16  O   UNL     1       1.427  -7.637  -2.147  0.00  0.00    -0.275 OA
ATOM     17  N   UNL     1      -0.555  -8.289  -2.902  0.00  0.00    -0.308 N 
ATOM     18  H   UNL     1      -1.394  -8.053  -3.328  0.00  0.00    +0.149 HD
BRANCH  17  19
ATOM     19  C   UNL     1      -0.301  -9.675  -2.501  0.00  0.00    +0.100 C 
ATOM     20  C   UNL     1      -0.679  -9.857  -1.029  0.00  0.00    +0.033 C 
BRANCH  19  21
ATOM     21  C   UNL     1      -1.130 -10.603  -3.350  0.00  0.00    -0.027 A 
ATOM     22  C   UNL     1      -2.428 -10.262  -3.682  0.00  0.00    +0.006 A 
ATOM     23  C   UNL     1      -3.188 -11.114  -4.462  0.00  0.00    +0.015 A 
ATOM     24  C   UNL     1      -2.651 -12.306  -4.910  0.00  0.00    +0.018 A 
ATOM     25  C   UNL     1      -1.352 -12.647  -4.578  0.00  0.00    +0.015 A 
ATOM     26  C   UNL     1      -0.590 -11.793  -3.802  0.00  0.00    +0.006 A 
ATOM     27 BR   UNL     1      -3.691 -13.472  -5.976  0.00  0.00    -0.050 Br
ENDBRANCH  19  21
ENDBRANCH  17  19
ENDBRANCH   5  15
BRANCH   1  28
ATOM     28  C   UNL     1       0.836  -2.014  -1.425  0.00  0.00    +0.099 C 
BRANCH  28  29
ATOM     29  C   UNL     1       0.960  -0.489  -1.381  0.00  0.00    -0.006 C 
ATOM     30  C   UNL     1       2.438  -0.096  -1.443  0.00  0.00    +0.008 C 
BRANCH  29  32
ATOM     31  C   UNL     1       0.359   1.565  -0.092  0.00  0.00    +0.004 C 
ATOM     32  C   UNL     1       0.347   0.035  -0.081  0.00  0.00    +0.000 C 
ENDBRANCH  29  32
ENDBRANCH  28  29
ENDBRANCH   1  28
TORSDOF 6
