REMARK  Name = ZINC15245130
REMARK  8 active torsions:
REMARK  status: ('A' for Active; 'I' for Inactive)
REMARK    1  A    between atoms: C_3  and  N_16
REMARK    2  A    between atoms: C_6  and  C_7
REMARK    3  A    between atoms: C_7  and  O_8
REMARK    4  A    between atoms: O_8  and  C_9
REMARK    5  A    between atoms: N_16  and  S_17
REMARK    6  A    between atoms: S_17  and  C_20
REMARK    7  A    between atoms: C_23  and  S_26
REMARK    8  A    between atoms: S_26  and  N_29
REMARK                            x       y       z     vdW  Elec       q    Type
REMARK                         _______ _______ _______ _____ _____    ______ ____
ROOT
ATOM      1  N   UNL     1      -0.035   1.651   0.005  0.00  0.00    -0.216 N 
ATOM      2  H   UNL     1      -0.874   2.101   0.192  0.00  0.00    +0.174 HD
ENDROOT
BRANCH   1   5
ATOM      3  C   UNL     1       2.272   4.271  -1.143  0.00  0.00    +0.009 A 
ATOM      4  C   UNL     1       1.116   3.535  -0.970  0.00  0.00    +0.025 A 
ATOM      5  C   UNL     1       1.132   2.397  -0.173  0.00  0.00    +0.048 A 
ATOM      6  C   UNL     1       2.311   2.006   0.450  0.00  0.00    +0.025 A 
ATOM      7  C   UNL     1       3.464   2.744   0.268  0.00  0.00    +0.009 A 
ATOM      8  C   UNL     1       3.444   3.876  -0.526  0.00  0.00    -0.010 A 
BRANCH   8   9
ATOM      9  C   UNL     1       4.704   4.681  -0.718  0.00  0.00    +0.264 C 
BRANCH   9  10
ATOM     10  O   UNL     1       4.788   5.684   0.296  0.00  0.00    -0.487 OA
BRANCH  10  11
ATOM     11  C   UNL     1       5.872   6.503   0.266  0.00  0.00    +0.121 A 
ATOM     12  C   UNL     1       6.838   6.340  -0.716  0.00  0.00    +0.047 A 
ATOM     13  C   UNL     1       7.937   7.177  -0.748  0.00  0.00    +0.019 A 
ATOM     14  C   UNL     1       8.079   8.170   0.205  0.00  0.00    +0.018 A 
ATOM     15  C   UNL     1       7.120   8.329   1.189  0.00  0.00    +0.019 A 
ATOM     16  C   UNL     1       6.017   7.498   1.222  0.00  0.00    +0.047 A 
ATOM     17 BR   UNL     1       9.588   9.310   0.163  0.00  0.00    -0.050 Br
ENDBRANCH  10  11
ENDBRANCH   9  10
ENDBRANCH   8   9
ENDBRANCH   1   5
BRANCH   1  18
ATOM     18  S   UNL     1       0.013  -0.000  -0.109  0.00  0.00    +0.072 S 
ATOM     19  O   UNL     1       1.067  -0.436   0.738  0.00  0.00    -0.150 OA
ATOM     20  O   UNL     1      -1.325  -0.456   0.043  0.00  0.00    -0.150 OA
BRANCH  18  21
ATOM     21  C   UNL     1       0.494  -0.395  -1.757  0.00  0.00    +0.109 A 
ATOM     22  C   UNL     1      -0.455  -0.452  -2.760  0.00  0.00    +0.031 A 
ATOM     23  C   UNL     1      -0.076  -0.757  -4.054  0.00  0.00    +0.030 A 
ATOM     24  C   UNL     1       1.251  -1.014  -4.344  0.00  0.00    +0.105 A 
ATOM     25  C   UNL     1       2.200  -0.962  -3.340  0.00  0.00    +0.030 A 
ATOM     26  C   UNL     1       1.821  -0.653  -2.047  0.00  0.00    +0.031 A 
BRANCH  24  27
ATOM     27  S   UNL     1       1.733  -1.407  -5.992  0.00  0.00    +0.056 S 
ATOM     28  O   UNL     1       0.741  -0.857  -6.848  0.00  0.00    -0.153 OA
ATOM     29  O   UNL     1       3.108  -1.070  -6.104  0.00  0.00    -0.153 OA
BRANCH  27  30
ATOM     30  N   UNL     1       1.635  -3.053  -6.151  0.00  0.00    -0.204 NA
ATOM     31  H   UNL     1       1.350  -3.597  -5.400  0.00  0.00    +0.144 HD
ATOM     32  H   UNL     1       1.862  -3.473  -6.996  0.00  0.00    +0.144 HD
ENDBRANCH  27  30
ENDBRANCH  24  27
ENDBRANCH  18  21
ENDBRANCH   1  18
TORSDOF 8
