REMARK  Name = ZINC48079459
REMARK  12 active torsions:
REMARK  status: ('A' for Active; 'I' for Inactive)
REMARK    1  A    between atoms: C_1  and  C_2
REMARK    2  A    between atoms: C_2  and  O_3
REMARK    3  A    between atoms: O_3  and  C_4
REMARK    4  A    between atoms: C_4  and  C_6
REMARK    5  A    between atoms: C_7  and  C_8
REMARK    6  A    between atoms: C_11  and  N_14
REMARK    7  A    between atoms: N_17  and  C_18
REMARK    8  A    between atoms: C_18  and  C_19
REMARK    9  A    between atoms: C_19  and  C_21
REMARK   10  A    between atoms: C_19  and  N_28
REMARK   11  A    between atoms: N_28  and  C_29
REMARK   12  A    between atoms: N_28  and  C_30
REMARK                            x       y       z     vdW  Elec       q    Type
REMARK                         _______ _______ _______ _____ _____    ______ ____
ROOT
ATOM      1  N   UNL     1       4.674  -5.820   6.956  0.00  0.00    -0.269 N 
ATOM      2  C   UNL     1       4.609  -7.149   7.170  0.00  0.00    +0.304 C 
ATOM      3  O   UNL     1       4.163  -7.883   6.309  0.00  0.00    -0.253 OA
ATOM      4  N   UNL     1       5.039  -7.665   8.339  0.00  0.00    -0.300 N 
ATOM      5  H   UNL     1       5.094  -5.243   7.613  0.00  0.00    +0.156 HD
ATOM      6  H   UNL     1       5.395  -7.080   9.026  0.00  0.00    +0.150 HD
ENDROOT
BRANCH   1  10
ATOM      7  C   UNL     1       3.067  -4.190   3.474  0.00  0.00    -0.025 A 
ATOM      8  C   UNL     1       2.468  -5.308   4.068  0.00  0.00    +0.010 A 
ATOM      9  C   UNL     1       3.002  -5.843   5.218  0.00  0.00    +0.024 A 
ATOM     10  C   UNL     1       4.136  -5.274   5.791  0.00  0.00    +0.035 A 
ATOM     11  C   UNL     1       4.735  -4.163   5.204  0.00  0.00    +0.024 A 
ATOM     12  C   UNL     1       4.211  -3.626   4.051  0.00  0.00    +0.010 A 
BRANCH   7  14
ATOM     13  C   UNL     1       1.396  -4.162   1.692  0.00  0.00    +0.092 C 
ATOM     14  C   UNL     1       2.501  -3.616   2.246  0.00  0.00    +0.015 C 
BRANCH  13  15
ATOM     15  C   UNL     1       0.850  -3.608   0.507  0.00  0.00    +0.332 C 
ATOM     16  O   UNL     1       1.375  -2.640  -0.011  0.00  0.00    -0.246 OA
BRANCH  15  17
ATOM     17  O   UNL     1      -0.253  -4.154  -0.047  0.00  0.00    -0.462 OA
BRANCH  17  19
ATOM     18  C   UNL     1      -1.994  -4.295  -1.717  0.00  0.00    +0.048 C 
ATOM     19  C   UNL     1      -0.749  -3.544  -1.240  0.00  0.00    +0.229 C 
ENDBRANCH  17  19
ENDBRANCH  15  17
ENDBRANCH  13  15
ENDBRANCH   7  14
ENDBRANCH   1  10
BRANCH   4  20
ATOM     20  C   UNL     1       4.970  -9.110   8.572  0.00  0.00    +0.095 C 
BRANCH  20  21
ATOM     21  C   UNL     1       5.420  -9.418  10.001  0.00  0.00    -0.021 C 
BRANCH  21  22
ATOM     22  C   UNL     1       6.876  -9.063  10.157  0.00  0.00    -0.059 A 
ATOM     23  C   UNL     1       7.851  -9.926   9.694  0.00  0.00    +0.005 A 
ATOM     24  C   UNL     1       9.187  -9.601   9.836  0.00  0.00    +0.038 A 
ATOM     25  C   UNL     1       9.548  -8.409  10.442  0.00  0.00    +0.123 A 
ATOM     26  C   UNL     1       8.570  -7.545  10.905  0.00  0.00    +0.038 A 
ATOM     27  C   UNL     1       7.235  -7.870  10.757  0.00  0.00    +0.005 A 
ATOM     28  F   UNL     1      10.853  -8.090  10.582  0.00  0.00    -0.205 F 
ENDBRANCH  21  22
BRANCH  21  29
ATOM     29  N   UNL     1       5.233 -10.850  10.274  0.00  0.00    +0.382 N 
ATOM     30  C   UNL     1       5.672 -11.147  11.645  0.00  0.00    -0.096 C 
ATOM     31  C   UNL     1       3.813 -11.195  10.129  0.00  0.00    -0.096 C 
ATOM     32  H   UNL     1       5.780 -11.391   9.621  0.00  0.00    -0.082 HD
ENDBRANCH  21  29
ENDBRANCH  20  21
ENDBRANCH   4  20
TORSDOF 9
