REMARK  Name = ZINC02347972
REMARK  3 active torsions:
REMARK  status: ('A' for Active; 'I' for Inactive)
REMARK    1  A    between atoms: C_4  and  N_24
REMARK    2  A    between atoms: C_5  and  C_7
REMARK    3  A    between atoms: C_10  and  C_12
REMARK                            x       y       z     vdW  Elec       q    Type
REMARK                         _______ _______ _______ _____ _____    ______ ____
ROOT
ATOM      1  C   UNL     1      -0.569  -6.788  -0.224  0.00  0.00    +0.138 A 
ATOM      2  C   UNL     1      -1.906  -7.207  -0.279  0.00  0.00    +0.050 A 
ATOM      3  C   UNL     1      -2.686  -6.091  -0.200  0.00  0.00    +0.050 A 
ATOM      4  C   UNL     1      -1.811  -4.981  -0.097  0.00  0.00    +0.130 A 
ATOM      5  O   UNL     1      -0.542  -5.448  -0.121  0.00  0.00    -0.455 OA
ENDROOT
BRANCH   4   6
ATOM      6  C   UNL     1      -2.188  -3.655   0.005  0.00  0.00    +0.066 C 
ATOM      7  C   UNL     1      -1.421  -2.762   0.782  0.00  0.00    +0.078 C 
ATOM      8  C   UNL     1      -0.307  -3.200   1.672  0.00  0.00    +0.255 C 
ATOM      9  O   UNL     1      -0.049  -4.387   1.729  0.00  0.00    -0.269 OA
ATOM     10  N   UNL     1       0.415  -2.365   2.404  0.00  0.00    -0.280 N 
ATOM     11  C   UNL     1       0.378  -1.009   2.558  0.00  0.00    +0.048 A 
ATOM     12  C   UNL     1       1.281  -0.373   3.416  0.00  0.00    +0.024 A 
ATOM     13  C   UNL     1       1.241   0.994   3.569  0.00  0.00    +0.002 A 
ATOM     14  C   UNL     1       0.314   1.771   2.885  0.00  0.00    +0.001 A 
ATOM     15  C   UNL     1      -0.584   1.178   2.037  0.00  0.00    +0.017 A 
ATOM     16  C   UNL     1      -0.555  -0.195   1.873  0.00  0.00    +0.034 A 
ATOM     17  S   UNL     1      -1.682  -1.043   0.794  0.00  0.00    -0.082 S 
ATOM     18  H   UNL     1       1.124  -2.814   2.947  0.00  0.00    +0.155 HD
ENDBRANCH   4   6
BRANCH   1  23
ATOM     19  C   UNL     1       1.797  -9.601   0.507  0.00  0.00    +0.001 A 
ATOM     20  C   UNL     1       2.825  -9.322  -0.379  0.00  0.00    +0.002 A 
ATOM     21  C   UNL     1       2.751  -8.220  -1.215  0.00  0.00    +0.033 A 
ATOM     22  C   UNL     1       1.649  -7.394  -1.176  0.00  0.00    +0.137 A 
ATOM     23  C   UNL     1       0.606  -7.665  -0.278  0.00  0.00    +0.047 A 
ATOM     24  C   UNL     1       0.691  -8.784   0.565  0.00  0.00    +0.014 A 
BRANCH  22  25
ATOM     25  N   UNL     1       1.569  -6.220  -2.075  0.00  0.00    +0.057 N 
ATOM     26  O   UNL     1       2.549  -5.968  -2.917  0.00  0.00    -0.126 OA
ATOM     27  O   UNL     1       0.517  -5.429  -2.032  0.00  0.00    -0.126 OA
ENDBRANCH  22  25
ENDBRANCH   1  23
TORSDOF 3
