REMARK  Name = ZINC09931274
REMARK  12 active torsions:
REMARK  status: ('A' for Active; 'I' for Inactive)
REMARK    1  A    between atoms: C_1  and  C_2
REMARK    2  A    between atoms: C_2  and  C_3
REMARK    3  A    between atoms: C_3  and  N_4
REMARK    4  A    between atoms: C_8  and  S_31
REMARK    5  A    between atoms: C_12  and  C_13
REMARK    6  A    between atoms: C_13  and  C_14
REMARK    7  A    between atoms: C_14  and  C_15
REMARK    8  A    between atoms: N_17  and  C_18
REMARK    9  A    between atoms: C_18  and  C_19
REMARK   10  A    between atoms: C_24  and  C_25
REMARK   11  A    between atoms: C_25  and  N_70
REMARK   12  A    between atoms: S_31  and  N_34
REMARK                            x       y       z     vdW  Elec       q    Type
REMARK                         _______ _______ _______ _____ _____    ______ ____
ROOT
ATOM      1  C   UNL     1       3.049   2.108   6.840  0.00  0.00    +0.103 C 
ENDROOT
BRANCH   1   2
ATOM      2  C   UNL     1       3.201   2.425   5.375  0.00  0.00    +0.214 C 
ATOM      3  O   UNL     1       2.640   3.391   4.902  0.00  0.00    -0.276 OA
ATOM      4  N   UNL     1       3.960   1.635   4.590  0.00  0.00    -0.311 N 
ATOM      5  H   UNL     1       4.408   0.863   4.968  0.00  0.00    +0.149 HD
BRANCH   4   6
ATOM      6  C   UNL     1       4.108   1.944   3.165  0.00  0.00    +0.139 C 
BRANCH   6   7
ATOM      7  C   UNL     1       4.999   0.915   2.518  0.00  0.00    -0.029 A 
ATOM      8  C   UNL     1       6.308   1.233   2.206  0.00  0.00    +0.005 A 
ATOM      9  C   UNL     1       7.126   0.290   1.613  0.00  0.00    +0.000 A 
ATOM     10  C   UNL     1       6.635  -0.972   1.333  0.00  0.00    +0.000 A 
ATOM     11  C   UNL     1       5.329  -1.292   1.650  0.00  0.00    +0.002 A 
ATOM     12  C   UNL     1       4.509  -0.346   2.238  0.00  0.00    -0.059 A 
BRANCH  12  13
ATOM     13  C   UNL     1       3.083  -0.693   2.579  0.00  0.00    -0.043 C 
BRANCH  13  19
ATOM     14  C   UNL     1       1.548  -2.563   2.663  0.00  0.00    -0.078 C 
ATOM     15  C   UNL     1       1.322  -3.998   2.180  0.00  0.00    -0.019 C 
ATOM     16  C   UNL     1       1.173  -4.000   0.656  0.00  0.00    -0.004 C 
ATOM     17  C   UNL     1       2.425  -3.383   0.028  0.00  0.00    -0.019 C 
ATOM     18  C   UNL     1       2.619  -1.966   0.573  0.00  0.00    -0.078 C 
ATOM     19  N   UNL     1       2.781  -2.036   2.041  0.00  0.00    +0.382 N 
ATOM     20  H   UNL     1       3.561  -2.666   2.261  0.00  0.00    -0.081 HD
ENDBRANCH  13  19
ENDBRANCH  12  13
ENDBRANCH   6   7
ENDBRANCH   4   6
ENDBRANCH   1   2
BRANCH   1  21
ATOM     21  C   UNL     1       2.144   3.152   7.497  0.00  0.00    +0.083 C 
BRANCH  21  30
ATOM     22  N   UNL     1       1.018   2.046   9.492  0.00  0.00    -0.328 N 
ATOM     23  C   UNL     1       1.224   2.000  10.856  0.00  0.00    +0.069 A 
ATOM     24  C   UNL     1       0.575   1.372  11.911  0.00  0.00    +0.030 A 
ATOM     25  C   UNL     1       1.043   1.540  13.197  0.00  0.00    +0.030 A 
ATOM     26  C   UNL     1       2.156   2.332  13.443  0.00  0.00    +0.107 A 
ATOM     27  C   UNL     1       2.807   2.957  12.418  0.00  0.00    +0.058 A 
ATOM     28  C   UNL     1       2.350   2.802  11.106  0.00  0.00    +0.091 A 
ATOM     29  N   UNL     1       2.769   3.280   9.906  0.00  0.00    -0.232 NA
ATOM     30  C   UNL     1       1.992   2.835   8.962  0.00  0.00    +0.111 A 
BRANCH  26  31
ATOM     31  S   UNL     1       2.736   2.533  15.095  0.00  0.00    +0.056 S 
ATOM     32  O   UNL     1       3.459   3.756  15.126  0.00  0.00    -0.153 OA
ATOM     33  O   UNL     1       1.627   2.281  15.948  0.00  0.00    -0.153 OA
BRANCH  31  34
ATOM     34  N   UNL     1       3.834   1.326  15.378  0.00  0.00    -0.204 NA
ATOM     35  H   UNL     1       4.039   0.683  14.681  0.00  0.00    +0.144 HD
ATOM     36  H   UNL     1       4.273   1.262  16.241  0.00  0.00    +0.144 HD
ENDBRANCH  31  34
ENDBRANCH  26  31
BRANCH  22  37
ATOM     37  C   UNL     1      -0.048   1.367   8.751  0.00  0.00    +0.123 C 
BRANCH  37  39
ATOM     38  C   UNL     1      -0.685  -0.734   7.558  0.00  0.00    +0.005 C 
ATOM     39  C   UNL     1       0.429  -0.025   8.331  0.00  0.00    +0.018 C 
ENDBRANCH  37  39
ENDBRANCH  22  37
ENDBRANCH  21  30
ENDBRANCH   1  21
TORSDOF 11
