REMARK  Name = ZINC38752915
REMARK  12 active torsions:
REMARK  status: ('A' for Active; 'I' for Inactive)
REMARK    1  A    between atoms: C_1  and  C_2
REMARK    2  A    between atoms: C_2  and  C_3
REMARK    3  A    between atoms: C_3  and  C_4
REMARK    4  A    between atoms: C_4  and  N_5
REMARK    5  A    between atoms: C_6  and  O_40
REMARK    6  A    between atoms: C_8  and  C_15
REMARK    7  A    between atoms: C_21  and  O_37
REMARK    8  A    between atoms: N_28  and  C_33
REMARK    9  A    between atoms: C_33  and  C_34
REMARK   10  A    between atoms: C_34  and  C_35
REMARK   11  A    between atoms: C_35  and  C_36
REMARK   12  A    between atoms: O_37  and  C_38
REMARK                            x       y       z     vdW  Elec       q    Type
REMARK                         _______ _______ _______ _____ _____    ______ ____
ROOT
ATOM      1  C   UNL     1       1.797  -0.871  -5.128  0.00  0.00    +0.059 C 
ATOM      2  C   UNL     1       0.408  -0.281  -5.139  0.00  0.00    +0.005 A 
ATOM      3  C   UNL     1      -0.554  -0.845  -4.315  0.00  0.00    +0.027 A 
ATOM      4  C   UNL     1      -1.838  -0.336  -4.287  0.00  0.00    +0.045 A 
ATOM      5  C   UNL     1      -2.172   0.745  -5.083  0.00  0.00    +0.069 A 
ATOM      6  C   UNL     1      -1.218   1.312  -5.910  0.00  0.00    +0.164 A 
ATOM      7  C   UNL     1       0.078   0.795  -5.941  0.00  0.00    +0.175 A 
ATOM      8  O   UNL     1       0.982   1.371  -6.782  0.00  0.00    -0.439 OA
ATOM      9  C   UNL     1       2.270   0.993  -6.655  0.00  0.00    +0.202 C 
ATOM     10  N   UNL     1       3.228   1.864  -6.741  0.00  0.00    -0.131 NA
ATOM     11  C   UNL     1       4.520   1.534  -6.606  0.00  0.00    +0.335 C 
ATOM     12  O   UNL     1       5.368   2.401  -6.713  0.00  0.00    -0.250 OA
ATOM     13  N   UNL     1       4.903   0.272  -6.356  0.00  0.00    -0.224 N 
ATOM     14  C   UNL     1       4.007  -0.721  -6.249  0.00  0.00    +0.235 C 
ATOM     15  O   UNL     1       4.395  -1.846  -6.016  0.00  0.00    -0.274 OA
ATOM     16  C   UNL     1       2.535  -0.472  -6.410  0.00  0.00    +0.167 C 
ATOM     17 CL   UNL     1      -3.034  -1.053  -3.252  0.00  0.00    -0.083 Cl
ENDROOT
BRANCH   1  20
ATOM     18  N   UNL     1       0.468  -2.730  -7.132  0.00  0.00    -0.259 N 
ATOM     19  C   UNL     1       1.742  -2.986  -6.459  0.00  0.00    +0.218 C 
ATOM     20  C   UNL     1       1.702  -2.395  -5.047  0.00  0.00    +0.131 C 
ATOM     21  C   UNL     1       0.406  -2.787  -4.384  0.00  0.00    +0.228 C 
ATOM     22  O   UNL     1       0.375  -2.999  -3.191  0.00  0.00    -0.275 OA
ATOM     23  N   UNL     1      -0.718  -2.899  -5.116  0.00  0.00    -0.240 N 
ATOM     24  C   UNL     1      -0.689  -2.749  -6.450  0.00  0.00    +0.310 C 
ATOM     25  O   UNL     1      -1.737  -2.632  -7.056  0.00  0.00    -0.252 OA
ATOM     26  H   UNL     1      -1.560  -3.087  -4.673  0.00  0.00    +0.159 HD
BRANCH  19  27
ATOM     27  O   UNL     1       1.965  -4.395  -6.379  0.00  0.00    -0.373 OA
ATOM     28  H   UNL     1       2.003  -4.836  -7.239  0.00  0.00    +0.212 HD
ENDBRANCH  19  27
BRANCH  18  29
ATOM     29  C   UNL     1       0.454  -2.445  -8.569  0.00  0.00    +0.112 C 
BRANCH  29  30
ATOM     30  C   UNL     1       0.404  -0.931  -8.788  0.00  0.00    +0.019 C 
BRANCH  30  32
ATOM     31  C   UNL     1       0.321   0.874 -10.514  0.00  0.00    +0.004 C 
ATOM     32  C   UNL     1       0.246  -0.637 -10.281  0.00  0.00    -0.002 C 
ENDBRANCH  30  32
ENDBRANCH  29  30
ENDBRANCH  18  29
ENDBRANCH   1  20
BRANCH   6  33
ATOM     33  O   UNL     1      -1.544   2.375  -6.693  0.00  0.00    -0.491 OA
ATOM     34  C   UNL     1      -2.853   2.923  -6.531  0.00  0.00    +0.277 C 
ENDBRANCH   6  33
BRANCH  13  35
ATOM     35  C   UNL     1       6.328  -0.027  -6.197  0.00  0.00    +0.118 C 
BRANCH  35  36
ATOM     36  C   UNL     1       6.718   0.118  -4.724  0.00  0.00    +0.019 C 
BRANCH  36  37
ATOM     37  C   UNL     1       8.207  -0.195  -4.558  0.00  0.00    -0.002 C 
ATOM     38  C   UNL     1       8.597  -0.050  -3.086  0.00  0.00    +0.004 C 
ENDBRANCH  36  37
ENDBRANCH  35  36
ENDBRANCH  13  35
TORSDOF 9
