REMARK  Name = ZINC18750007
REMARK  6 active torsions:
REMARK  status: ('A' for Active; 'I' for Inactive)
REMARK    1  A    between atoms: C_1  and  C_2
REMARK    2  A    between atoms: C_14  and  C_16
REMARK    3  A    between atoms: C_16  and  O_17
REMARK    4  A    between atoms: O_17  and  C_18
REMARK    5  A    between atoms: C_18  and  C_20
REMARK    6  A    between atoms: C_25  and  N_26
REMARK                            x       y       z     vdW  Elec       q    Type
REMARK                         _______ _______ _______ _____ _____    ______ ____
ROOT
ATOM      1  C   UNL     1       9.549  -0.474  -4.824  0.00  0.00    +0.019 C 
ATOM      2  C   UNL     1       9.107  -0.047  -3.423  0.00  0.00    +0.050 C 
ATOM      3  C   UNL     1       8.661  -1.272  -2.641  0.00  0.00    +0.033 C 
ATOM      4  C   UNL     1       8.428  -1.051  -1.164  0.00  0.00    +0.115 C 
ATOM      5  N   UNL     1       7.261  -0.185  -0.935  0.00  0.00    -0.268 N 
ATOM      6  C   UNL     1       7.464   1.199  -0.852  0.00  0.00    +0.050 A 
ATOM      7  C   UNL     1       7.376   1.836   0.380  0.00  0.00    +0.024 A 
ATOM      8  C   UNL     1       7.622   3.194   0.470  0.00  0.00    +0.002 A 
ATOM      9  C   UNL     1       7.961   3.926  -0.654  0.00  0.00    +0.001 A 
ATOM     10  C   UNL     1       8.035   3.303  -1.889  0.00  0.00    +0.016 A 
ATOM     11  C   UNL     1       7.765   1.951  -1.979  0.00  0.00    +0.030 A 
ATOM     12  S   UNL     1       7.736   1.139  -3.559  0.00  0.00    -0.120 S 
ATOM     13  C   UNL     1       6.027  -0.711  -0.802  0.00  0.00    +0.258 C 
ATOM     14  O   UNL     1       5.868  -1.911  -0.877  0.00  0.00    -0.272 OA
ENDROOT
BRANCH  13  15
ATOM     15  C   UNL     1       4.845   0.193  -0.562  0.00  0.00    +0.328 C 
BRANCH  15  16
ATOM     16  O   UNL     1       3.638  -0.607  -0.455  0.00  0.00    -0.452 OA
BRANCH  16  17
ATOM     17  C   UNL     1       2.483   0.053  -0.238  0.00  0.00    +0.341 C 
ATOM     18  O   UNL     1       2.485   1.264  -0.141  0.00  0.00    -0.245 OA
BRANCH  17  19
ATOM     19  C   UNL     1       1.220  -0.693  -0.119  0.00  0.00    +0.080 A 
ATOM     20  C   UNL     1       1.228  -2.091  -0.107  0.00  0.00    +0.019 A 
ATOM     21  C   UNL     1       0.044  -2.784   0.005  0.00  0.00    +0.039 A 
ATOM     22  C   UNL     1      -1.161  -2.101   0.106  0.00  0.00    +0.125 A 
ATOM     23  C   UNL     1      -1.184  -0.719   0.102  0.00  0.00    +0.061 A 
ATOM     24  C   UNL     1       0.000  -0.004  -0.016  0.00  0.00    +0.041 A 
ATOM     25  F   UNL     1      -2.317  -2.791   0.215  0.00  0.00    -0.205 F 
BRANCH  24  26
ATOM     26  N   UNL     1      -0.020   1.384  -0.027  0.00  0.00    -0.357 N 
ATOM     27  H   UNL     1       0.812   1.881  -0.024  0.00  0.00    +0.142 HD
ATOM     28  H   UNL     1      -0.867   1.857  -0.041  0.00  0.00    +0.142 HD
ENDBRANCH  24  26
ENDBRANCH  17  19
ENDBRANCH  16  17
ENDBRANCH  15  16
ENDBRANCH  13  15
TORSDOF 5
