REMARK  Name = ZINC04411774
REMARK  7 active torsions:
REMARK  status: ('A' for Active; 'I' for Inactive)
REMARK    1  A    between atoms: C_1  and  C_2
REMARK    2  A    between atoms: C_5  and  C_8
REMARK    3  A    between atoms: C_8  and  N_9
REMARK    4  A    between atoms: C_19  and  S_20
REMARK    5  A    between atoms: S_20  and  C_21
REMARK    6  A    between atoms: C_21  and  C_23
REMARK    7  A    between atoms: C_21  and  C_24
REMARK                            x       y       z     vdW  Elec       q    Type
REMARK                         _______ _______ _______ _____ _____    ______ ____
ROOT
ATOM      1  N   UNL     1      -2.040   4.983  -0.475  0.00  0.00    -0.283 N 
ATOM      2  C   UNL     1      -2.809   5.259  -1.554  0.00  0.00    +0.263 A 
ATOM      3  O   UNL     1      -3.058   6.407  -1.875  0.00  0.00    -0.267 OA
ATOM      4  C   UNL     1      -3.336   4.122  -2.320  0.00  0.00    +0.065 A 
ATOM      5  C   UNL     1      -4.142   4.302  -3.444  0.00  0.00    +0.015 A 
ATOM      6  C   UNL     1      -4.606   3.208  -4.122  0.00  0.00    +0.001 A 
ATOM      7  C   UNL     1      -4.284   1.924  -3.702  0.00  0.00    +0.002 A 
ATOM      8  C   UNL     1      -3.497   1.719  -2.604  0.00  0.00    +0.028 A 
ATOM      9  C   UNL     1      -3.006   2.817  -1.891  0.00  0.00    +0.079 A 
ATOM     10  N   UNL     1      -2.226   2.660  -0.802  0.00  0.00    -0.223 NA
ATOM     11  C   UNL     1      -1.766   3.689  -0.134  0.00  0.00    +0.173 A 
ENDROOT
BRANCH   1  12
ATOM     12  C   UNL     1      -1.492   6.079   0.328  0.00  0.00    +0.162 C 
BRANCH  12  17
ATOM     13  C   UNL     1       3.663   7.622  -1.779  0.00  0.00    +0.044 C 
ATOM     14  C   UNL     1       2.318   7.220  -1.229  0.00  0.00    -0.050 A 
ATOM     15  C   UNL     1       1.169   7.829  -1.698  0.00  0.00    +0.004 A 
ATOM     16  C   UNL     1      -0.064   7.460  -1.194  0.00  0.00    +0.005 A 
ATOM     17  C   UNL     1      -0.148   6.481  -0.221  0.00  0.00    -0.028 A 
ATOM     18  C   UNL     1       1.002   5.876   0.251  0.00  0.00    +0.005 A 
ATOM     19  C   UNL     1       2.234   6.242  -0.256  0.00  0.00    +0.004 A 
ENDBRANCH  12  17
ENDBRANCH   1  12
BRANCH  11  20
ATOM     20  S   UNL     1      -0.753   3.389   1.277  0.00  0.00    -0.075 S 
BRANCH  20  21
ATOM     21  C   UNL     1      -0.729   1.579   1.267  0.00  0.00    +0.137 C 
ATOM     22  C   UNL     1      -0.013   1.086   0.008  0.00  0.00    +0.029 C 
BRANCH  21  23
ATOM     23  C   UNL     1       0.000   1.080   2.488  0.00  0.00    +0.233 C 
ATOM     24  O   UNL     1       0.757   1.815   3.085  0.00  0.00    -0.274 OA
ATOM     25  N   UNL     1      -0.190  -0.184   2.916  0.00  0.00    -0.239 N 
ATOM     26  C   UNL     1       0.462  -0.630   4.008  0.00  0.00    +0.303 C 
ATOM     27  O   UNL     1       1.221   0.107   4.606  0.00  0.00    -0.253 OA
ATOM     28  N   UNL     1       0.273  -1.894   4.436  0.00  0.00    -0.313 N 
ATOM     29  H   UNL     1      -0.795  -0.772   2.438  0.00  0.00    +0.159 HD
ATOM     30  H   UNL     1      -0.333  -2.482   3.958  0.00  0.00    +0.146 HD
ATOM     31  H   UNL     1       0.742  -2.215   5.222  0.00  0.00    +0.146 HD
ENDBRANCH  21  23
ENDBRANCH  20  21
ENDBRANCH  11  20
TORSDOF 5
