REMARK  Name = ZINC39660443
REMARK  13 active torsions:
REMARK  status: ('A' for Active; 'I' for Inactive)
REMARK    1  A    between atoms: C_1  and  C_2
REMARK    2  A    between atoms: C_2  and  C_3
REMARK    3  A    between atoms: C_3  and  C_4
REMARK    4  A    between atoms: C_4  and  C_5
REMARK    5  A    between atoms: C_5  and  C_6
REMARK    6  A    between atoms: C_6  and  N_7
REMARK    7  A    between atoms: C_8  and  C_10
REMARK    8  A    between atoms: C_21  and  C_23
REMARK    9  A    between atoms: C_23  and  C_25
REMARK   10  A    between atoms: C_23  and  O_28
REMARK   11  A    between atoms: C_25  and  C_26
REMARK   12  A    between atoms: C_25  and  C_27
REMARK   13  A    between atoms: O_28  and  C_29
REMARK                            x       y       z     vdW  Elec       q    Type
REMARK                         _______ _______ _______ _____ _____    ______ ____
ROOT
ATOM      1  C   UNL     1       3.040  -7.127  -4.948  0.00  0.00    +0.100 C 
ATOM      2  C   UNL     1       2.290  -6.523  -6.157  0.00  0.00    +0.121 C 
ATOM      3  N   UNL     1       2.373  -7.564  -7.207  0.00  0.00    -0.297 N 
ATOM      4  C   UNL     1       2.191  -8.841  -6.476  0.00  0.00    +0.115 C 
ATOM      5  C   UNL     1       2.972  -8.649  -5.162  0.00  0.00    -0.004 C 
ATOM      6  C   UNL     1       2.229  -9.311  -4.005  0.00  0.00    -0.010 C 
ATOM      7  C   UNL     1       2.225 -10.829  -4.210  0.00  0.00    -0.082 C 
ATOM      8  N   UNL     1       3.607 -11.319  -4.276  0.00  0.00    +0.379 N 
ATOM      9  C   UNL     1       4.286 -10.748  -5.445  0.00  0.00    -0.082 C 
ATOM     10  C   UNL     1       4.377  -9.227  -5.293  0.00  0.00    -0.010 C 
ATOM     11  C   UNL     1       2.570  -7.390  -8.529  0.00  0.00    +0.257 C 
ATOM     12  O   UNL     1       2.791  -6.282  -8.969  0.00  0.00    -0.272 OA
ATOM     13  H   UNL     1       4.099 -11.049  -3.438  0.00  0.00    -0.086 HD
ATOM     14  H   UNL     1       3.603 -12.326  -4.350  0.00  0.00    -0.086 HD
ENDROOT
BRANCH   1  16
ATOM     15  N   UNL     1       3.047  -6.744  -2.505  0.00  0.00    -0.315 N 
ATOM     16  C   UNL     1       2.355  -6.746  -3.661  0.00  0.00    +0.218 C 
ATOM     17  O   UNL     1       1.181  -6.442  -3.667  0.00  0.00    -0.275 OA
ATOM     18  H   UNL     1       3.986  -6.988  -2.501  0.00  0.00    +0.149 HD
BRANCH  15  19
ATOM     19  C   UNL     1       2.381  -6.374  -1.254  0.00  0.00    +0.104 C 
BRANCH  19  20
ATOM     20  C   UNL     1       3.382  -6.453  -0.100  0.00  0.00    +0.019 C 
BRANCH  20  21
ATOM     21  C   UNL     1       2.687  -6.066   1.207  0.00  0.00    +0.002 C 
BRANCH  21  22
ATOM     22  C   UNL     1       3.688  -6.145   2.361  0.00  0.00    -0.000 C 
BRANCH  22  24
ATOM     23  C   UNL     1       3.994  -5.837   4.821  0.00  0.00    +0.004 C 
ATOM     24  C   UNL     1       2.993  -5.758   3.667  0.00  0.00    -0.003 C 
ENDBRANCH  22  24
ENDBRANCH  21  22
ENDBRANCH  20  21
ENDBRANCH  19  20
ENDBRANCH  15  19
ENDBRANCH   1  16
BRANCH  11  25
ATOM     25  C   UNL     1       2.515  -8.573  -9.462  0.00  0.00    +0.261 C 
BRANCH  25  26
ATOM     26  C   UNL     1       1.099  -9.152  -9.468  0.00  0.00    +0.033 C 
ATOM     27  C   UNL     1       0.129  -8.123 -10.051  0.00  0.00    +0.011 C 
ATOM     28  C   UNL     1       1.071 -10.421 -10.323  0.00  0.00    +0.011 C 
ENDBRANCH  25  26
BRANCH  25  29
ATOM     29  O   UNL     1       2.865  -8.155 -10.783  0.00  0.00    -0.479 OA
BRANCH  29  30
ATOM     30  C   UNL     1       3.579  -9.030 -11.538  0.00  0.00    +0.122 A 
ATOM     31  C   UNL     1       3.966  -8.683 -12.824  0.00  0.00    +0.045 A 
ATOM     32  C   UNL     1       4.693  -9.574 -13.590  0.00  0.00    +0.004 A 
ATOM     33  C   UNL     1       5.034 -10.811 -13.075  0.00  0.00    +0.000 A 
ATOM     34  C   UNL     1       4.650 -11.159 -11.794  0.00  0.00    +0.004 A 
ATOM     35  C   UNL     1       3.928 -10.270 -11.022  0.00  0.00    +0.045 A 
ENDBRANCH  29  30
ENDBRANCH  25  29
ENDBRANCH  11  25
TORSDOF 10
