REMARK  Name = ZINC08783477
REMARK  8 active torsions:
REMARK  status: ('A' for Active; 'I' for Inactive)
REMARK    1  A    between atoms: C_1  and  C_2
REMARK    2  A    between atoms: C_2  and  C_3
REMARK    3  A    between atoms: C_2  and  C_4
REMARK    4  A    between atoms: C_11  and  N_28
REMARK    5  A    between atoms: C_12  and  C_26
REMARK    6  A    between atoms: C_13  and  C_15
REMARK    7  A    between atoms: C_19  and  O_21
REMARK    8  A    between atoms: O_21  and  C_22
REMARK                            x       y       z     vdW  Elec       q    Type
REMARK                         _______ _______ _______ _____ _____    ______ ____
ROOT
ATOM      1  C   UNL     1      -1.412  -0.526   0.013  0.00  0.00    +0.046 A 
ATOM      2  C   UNL     1      -1.974  -1.307  -0.921  0.00  0.00    +0.049 A 
ATOM      3  C   UNL     1      -3.307  -1.566  -0.532  0.00  0.00    +0.245 A 
ATOM      4  N   UNL     1      -3.522  -0.957   0.598  0.00  0.00    -0.135 NA
ATOM      5  N   UNL     1      -2.341  -0.295   0.969  0.00  0.00    -0.278 N 
ATOM      6  H   UNL     1      -2.214   0.236   1.770  0.00  0.00    +0.189 HD
ATOM      7  O   UNL     1      -4.142  -2.333  -1.284  0.00  0.00    -0.421 OA
ATOM      8  C   UNL     1      -3.756  -2.620  -2.542  0.00  0.00    +0.201 C 
ATOM      9  C   UNL     1      -2.510  -2.428  -3.023  0.00  0.00    +0.098 C 
ATOM     10  C   UNL     1      -1.385  -1.865  -2.192  0.00  0.00    +0.102 C 
ENDROOT
BRANCH  10  11
ATOM     11  C   UNL     1      -0.402  -2.958  -1.859  0.00  0.00    -0.027 A 
ATOM     12  C   UNL     1       0.921  -2.834  -2.240  0.00  0.00    +0.054 A 
ATOM     13  C   UNL     1       1.829  -3.836  -1.937  0.00  0.00    +0.170 A 
ATOM     14  C   UNL     1       1.406  -4.969  -1.248  0.00  0.00    +0.208 A 
ATOM     15  C   UNL     1       0.075  -5.089  -0.868  0.00  0.00    +0.166 A 
ATOM     16  C   UNL     1      -0.825  -4.079  -1.171  0.00  0.00    +0.054 A 
ATOM     17  O   UNL     1       2.477  -5.799  -1.073  0.00  0.00    -0.449 OA
ATOM     18  C   UNL     1       3.468  -5.351  -2.017  0.00  0.00    +0.467 C 
ATOM     19  O   UNL     1       3.164  -3.955  -2.194  0.00  0.00    -0.452 OA
BRANCH  15  20
ATOM     20  O   UNL     1      -0.343  -6.194  -0.194  0.00  0.00    -0.491 OA
ATOM     21  C   UNL     1      -1.724  -6.250   0.165  0.00  0.00    +0.277 C 
ENDBRANCH  15  20
ENDBRANCH  10  11
BRANCH   1  23
ATOM     22  C   UNL     1      -0.019   1.526   0.010  0.00  0.00    +0.014 C 
ATOM     23  C   UNL     1       0.002  -0.004   0.002  0.00  0.00    +0.031 C 
ATOM     24  C   UNL     1       0.742  -0.511   1.242  0.00  0.00    +0.014 C 
ENDBRANCH   1  23
BRANCH   8  25
ATOM     25  N   UNL     1      -4.695  -3.144  -3.395  0.00  0.00    -0.328 N 
ATOM     26  H   UNL     1      -5.601  -3.296  -3.084  0.00  0.00    +0.145 HD
ATOM     27  H   UNL     1      -4.453  -3.363  -4.308  0.00  0.00    +0.145 HD
ENDBRANCH   8  25
BRANCH   9  28
ATOM     28  C   UNL     1      -2.243  -2.776  -4.386  0.00  0.00    +0.101 C 
ATOM     29  N   UNL     1      -2.031  -3.052  -5.468  0.00  0.00    -0.191 NA
ENDBRANCH   9  28
TORSDOF 5
