REMARK  Name = ZINC45599169
REMARK  7 active torsions:
REMARK  status: ('A' for Active; 'I' for Inactive)
REMARK    1  A    between atoms: C_1  and  C_2
REMARK    2  A    between atoms: C_3  and  C_31
REMARK    3  A    between atoms: N_9  and  C_30
REMARK    4  A    between atoms: C_10  and  S_12
REMARK    5  A    between atoms: S_12  and  C_13
REMARK    6  A    between atoms: C_13  and  C_14
REMARK    7  A    between atoms: C_24  and  C_28
REMARK                            x       y       z     vdW  Elec       q    Type
REMARK                         _______ _______ _______ _____ _____    ______ ____
ROOT
ATOM      1  C   UNL     1       0.126  -6.168   5.197  0.00  0.00    +0.143 A 
ATOM      2  N   UNL     1       1.289  -6.606   5.646  0.00  0.00    -0.216 NA
ATOM      3  C   UNL     1       1.385  -7.654   6.449  0.00  0.00    +0.128 A 
ATOM      4  C   UNL     1       0.200  -8.333   6.845  0.00  0.00    +0.051 A 
ATOM      5  C   UNL     1       0.061  -9.502   7.715  0.00  0.00    -0.025 A 
ATOM      6  C   UNL     1      -1.190  -9.956   7.935  0.00  0.00    -0.004 A 
ATOM      7  S   UNL     1      -2.244  -8.871   7.011  0.00  0.00    -0.073 S 
ATOM      8  C   UNL     1      -1.001  -7.807   6.328  0.00  0.00    +0.114 A 
ATOM      9  N   UNL     1      -1.007  -6.753   5.535  0.00  0.00    -0.224 NA
ATOM     10  C   UNL     1      -1.595 -11.127   8.778  0.00  0.00    +0.046 C 
ATOM     11  C   UNL     1      -0.347 -11.972   9.066  0.00  0.00    -0.009 C 
ATOM     12  C   UNL     1       0.779 -11.043   9.528  0.00  0.00    +0.008 C 
ATOM     13  C   UNL     1       1.264 -10.191   8.354  0.00  0.00    +0.037 C 
ATOM     14  C   UNL     1      -0.659 -12.991  10.165  0.00  0.00    +0.008 C 
ATOM     15  N   UNL     1       2.622  -8.082   6.896  0.00  0.00    -0.343 N 
ATOM     16  H   UNL     1       3.393  -7.499   6.820  0.00  0.00    +0.144 HD
ATOM     17  H   UNL     1       2.717  -8.965   7.287  0.00  0.00    +0.144 HD
ENDROOT
BRANCH   1  18
ATOM     18  C   UNL     1       0.092  -4.969   4.285  0.00  0.00    +0.153 C 
BRANCH  18  19
ATOM     19  S   UNL     1      -0.049  -3.458   5.277  0.00  0.00    -0.080 S 
BRANCH  19  29
ATOM     20  C   UNL     1      -0.226   2.255   1.302  0.00  0.00    +0.045 C 
ATOM     21  C   UNL     1      -0.122   0.768   1.082  0.00  0.00    -0.026 A 
ATOM     22  C   UNL     1      -0.028   0.271  -0.160  0.00  0.00    -0.008 A 
ATOM     23  S   UNL     1       0.068  -1.490   0.105  0.00  0.00    -0.073 S 
ATOM     24  C   UNL     1      -0.020  -1.507   1.877  0.00  0.00    +0.117 A 
ATOM     25  C   UNL     1      -0.116  -0.144   2.214  0.00  0.00    +0.075 A 
ATOM     26  C   UNL     1      -0.199   0.148   3.612  0.00  0.00    +0.263 A 
ATOM     27  O   UNL     1      -0.289   1.301   3.998  0.00  0.00    -0.267 OA
ATOM     28  N   UNL     1      -0.175  -0.867   4.495  0.00  0.00    -0.290 N 
ATOM     29  C   UNL     1      -0.075  -2.163   4.082  0.00  0.00    +0.173 A 
ATOM     30  N   UNL     1      -0.008  -2.461   2.800  0.00  0.00    -0.216 NA
ATOM     31  C   UNL     1      -0.259  -0.574   5.928  0.00  0.00    +0.154 C 
ATOM     32  C   UNL     1      -0.009   1.020  -1.467  0.00  0.00    +0.052 C 
ENDBRANCH  19  29
ENDBRANCH  18  19
ENDBRANCH   1  18
TORSDOF 3
