REMARK  Name = ZINC02161110
REMARK  5 active torsions:
REMARK  status: ('A' for Active; 'I' for Inactive)
REMARK    1  A    between atoms: C_1  and  C_2
REMARK    2  A    between atoms: C_7  and  C_8
REMARK    3  A    between atoms: C_17  and  C_19
REMARK    4  A    between atoms: C_19  and  C_20
REMARK    5  A    between atoms: N_28  and  C_31
REMARK                            x       y       z     vdW  Elec       q    Type
REMARK                         _______ _______ _______ _____ _____    ______ ____
ROOT
ATOM      1  C   UNL     1       1.063  -4.138  -0.034  0.00  0.00    +0.044 C 
ATOM      2  C   UNL     1       0.691  -2.678  -0.021  0.00  0.00    -0.046 A 
ATOM      3  C   UNL     1      -0.641  -2.307  -0.008  0.00  0.00    +0.004 A 
ATOM      4  C   UNL     1      -0.983  -0.966   0.005  0.00  0.00    +0.005 A 
ATOM      5  C   UNL     1       0.002  -0.004   0.002  0.00  0.00    -0.027 A 
ATOM      6  C   UNL     1       1.346  -0.365  -0.011  0.00  0.00    +0.039 A 
ATOM      7  C   UNL     1       1.681  -1.717  -0.022  0.00  0.00    -0.026 A 
ATOM      8  C   UNL     1       3.130  -2.132  -0.035  0.00  0.00    +0.046 C 
ATOM      9  N   UNL     1       2.153   0.774  -0.012  0.00  0.00    -0.286 N 
ATOM     10  C   UNL     1       1.428   1.910  -0.001  0.00  0.00    +0.211 C 
ATOM     11  O   UNL     1       1.859   3.044  -0.002  0.00  0.00    -0.277 OA
ATOM     12  C   UNL     1      -0.018   1.498   0.010  0.00  0.00    +0.050 C 
ATOM     13  C   UNL     1      -0.770   2.057  -1.204  0.00  0.00    +0.088 C 
ATOM     14  C   UNL     1      -2.192   2.383  -0.667  0.00  0.00    +0.073 C 
ATOM     15  C   UNL     1      -2.156   1.976   0.821  0.00  0.00    -0.053 C 
ATOM     16  C   UNL     1      -2.286   3.887  -0.773  0.00  0.00    +0.224 C 
ATOM     17  O   UNL     1      -3.245   4.554  -0.450  0.00  0.00    -0.275 OA
ATOM     18  N   UNL     1      -1.144   4.370  -1.280  0.00  0.00    -0.239 N 
ATOM     19  C   UNL     1      -0.223   3.439  -1.557  0.00  0.00    +0.225 C 
ATOM     20  O   UNL     1       0.875   3.658  -2.022  0.00  0.00    -0.275 OA
ATOM     21  H   UNL     1       3.123   0.751  -0.019  0.00  0.00    +0.155 HD
ATOM     22  N   UNL     1      -0.734   2.012   1.165  0.00  0.00    +0.394 N 
ATOM     23  H   UNL     1      -0.441   2.976   1.364  0.00  0.00    -0.083 HD
ATOM     24  H   UNL     1      -0.552   1.423   1.986  0.00  0.00    -0.083 HD
ENDROOT
BRANCH  18  25
ATOM     25  C   UNL     1      -0.922   5.799  -1.512  0.00  0.00    +0.084 C 
ATOM     26  C   UNL     1      -0.974   6.538  -0.159  0.00  0.00    +0.023 C 
ATOM     27  C   UNL     1      -0.263   7.856  -0.307  0.00  0.00    +0.002 C 
ATOM     28  C   UNL     1      -1.225   9.010  -0.650  0.00  0.00    +0.000 C 
ATOM     29  C   UNL     1      -2.291   8.611  -1.689  0.00  0.00    +0.000 C 
ATOM     30  C   UNL     1      -1.723   7.774  -2.803  0.00  0.00    +0.002 C 
ATOM     31  C   UNL     1      -1.923   6.286  -2.449  0.00  0.00    +0.023 C 
ENDBRANCH  18  25
BRANCH  15  32
ATOM     32  C   UNL     1      -2.960   2.970   1.663  0.00  0.00    +0.020 C 
BRANCH  32  33
ATOM     33  C   UNL     1      -2.952   2.529   3.104  0.00  0.00    -0.049 A 
ATOM     34  C   UNL     1      -3.945   1.690   3.575  0.00  0.00    +0.003 A 
ATOM     35  C   UNL     1      -3.935   1.283   4.896  0.00  0.00    +0.000 A 
ATOM     36  C   UNL     1      -2.938   1.720   5.747  0.00  0.00    +0.000 A 
ATOM     37  C   UNL     1      -1.948   2.563   5.277  0.00  0.00    +0.000 A 
ATOM     38  C   UNL     1      -1.955   2.968   3.955  0.00  0.00    +0.003 A 
ENDBRANCH  32  33
ENDBRANCH  15  32
TORSDOF 3
