REMARK  Name = ZINC12099864
REMARK  10 active torsions:
REMARK  status: ('A' for Active; 'I' for Inactive)
REMARK    1  A    between atoms: C_1  and  S_2
REMARK    2  A    between atoms: S_2  and  C_3
REMARK    3  A    between atoms: C_6  and  C_9
REMARK    4  A    between atoms: C_9  and  C_10
REMARK    5  A    between atoms: C_10  and  C_16
REMARK    6  A    between atoms: C_16  and  C_17
REMARK    7  A    between atoms: C_17  and  C_18
REMARK    8  A    between atoms: N_20  and  C_21
REMARK    9  A    between atoms: C_21  and  C_22
REMARK   10  A    between atoms: C_22  and  N_75
REMARK                            x       y       z     vdW  Elec       q    Type
REMARK                         _______ _______ _______ _____ _____    ______ ____
ROOT
ATOM      1  C   UNL     1       0.518   1.995  -5.415  0.00  0.00    +0.213 C 
ATOM      2  O   UNL     1       1.564   2.295  -4.880  0.00  0.00    -0.276 OA
ATOM      3  N   UNL     1       0.365   2.172  -6.743  0.00  0.00    -0.317 N 
ATOM      4  H   UNL     1      -0.471   1.932  -7.171  0.00  0.00    +0.149 HD
ENDROOT
BRANCH   1   5
ATOM      5  C   UNL     1      -0.611   1.424  -4.597  0.00  0.00    +0.098 C 
BRANCH   5   6
ATOM      6  C   UNL     1      -0.180   1.327  -3.132  0.00  0.00    +0.035 C 
BRANCH   6   7
ATOM      7  C   UNL     1      -1.296   0.674  -2.314  0.00  0.00    +0.039 C 
ATOM      8  C   UNL     1      -0.925   0.666  -0.814  0.00  0.00    +0.035 C 
ATOM      9  C   UNL     1      -2.302   0.891  -0.147  0.00  0.00    +0.098 C 
ATOM     10  C   UNL     1      -3.116   1.600  -1.208  0.00  0.00    +0.214 C 
ATOM     11  O   UNL     1      -4.149   2.202  -1.004  0.00  0.00    -0.276 OA
ATOM     12  N   UNL     1      -2.527   1.467  -2.409  0.00  0.00    -0.309 N 
ATOM     13  H   UNL     1      -2.871   1.847  -3.233  0.00  0.00    +0.149 HD
BRANCH   7  14
ATOM     14  C   UNL     1      -1.547  -0.754  -2.805  0.00  0.00    +0.061 C 
BRANCH  14  18
ATOM     15  C   UNL     1      -4.688  -2.520  -0.506  0.00  0.00    +0.008 A 
ATOM     16  C   UNL     1      -4.991  -1.710  -1.594  0.00  0.00    +0.015 A 
ATOM     17  C   UNL     1      -3.974  -1.141  -2.334  0.00  0.00    +0.005 A 
ATOM     18  C   UNL     1      -2.654  -1.376  -1.994  0.00  0.00    -0.045 A 
ATOM     19  C   UNL     1      -2.348  -2.186  -0.916  0.00  0.00    +0.005 A 
ATOM     20  C   UNL     1      -3.360  -2.754  -0.167  0.00  0.00    +0.015 A 
BRANCH  15  22
ATOM     21  C   UNL     1      -5.111  -4.193   1.722  0.00  0.00    +0.090 C 
ATOM     22  S   UNL     1      -5.982  -3.248   0.442  0.00  0.00    -0.129 S 
ENDBRANCH  15  22
ENDBRANCH  14  18
ENDBRANCH   7  14
ENDBRANCH   6   7
ENDBRANCH   5   6
ENDBRANCH   1   5
BRANCH   3  23
ATOM     23  C   UNL     1       1.463   2.727  -7.539  0.00  0.00    +0.092 C 
BRANCH  23  24
ATOM     24  C   UNL     1       1.087   2.691  -9.021  0.00  0.00    -0.049 C 
ATOM     25  C   UNL     1       2.297   2.334  -9.841  0.00  0.00    -0.010 C 
ATOM     26  C   UNL     1       3.616   2.721  -9.142  0.00  0.00    -0.001 C 
ATOM     27  C   UNL     1       3.549   4.099  -8.455  0.00  0.00    -0.000 C 
ATOM     28  C   UNL     1       2.839   5.127  -9.294  0.00  0.00    -0.000 C 
ATOM     29  C   UNL     1       1.356   5.163  -8.871  0.00  0.00    -0.001 C 
ATOM     30  C   UNL     1       0.584   4.080  -9.463  0.00  0.00    -0.010 C 
BRANCH  24  36
ATOM     31  C   UNL     1       0.496   0.347  -8.871  0.00  0.00    -0.049 C 
ATOM     32  C   UNL     1      -0.651  -0.651  -9.056  0.00  0.00    +0.141 C 
ATOM     33  O   UNL     1      -1.118  -0.589 -10.406  0.00  0.00    -0.383 OA
ATOM     34  C   UNL     1      -1.578   0.707 -10.797  0.00  0.00    +0.141 C 
ATOM     35  C   UNL     1      -0.441   1.719 -10.630  0.00  0.00    -0.049 C 
ATOM     36  N   UNL     1       0.010   1.697  -9.223  0.00  0.00    +0.387 N 
ATOM     37  H   UNL     1      -0.782   1.936  -8.614  0.00  0.00    -0.081 HD
ENDBRANCH  24  36
ENDBRANCH  23  24
ENDBRANCH   3  23
TORSDOF 9
