REMARK  Name = ZINC24969337
REMARK  10 active torsions:
REMARK  status: ('A' for Active; 'I' for Inactive)
REMARK    1  A    between atoms: C_1  and  C_2
REMARK    2  A    between atoms: C_2  and  C_3
REMARK    3  A    between atoms: C_2  and  C_4
REMARK    4  A    between atoms: C_2  and  N_5
REMARK    5  A    between atoms: N_5  and  C_6
REMARK    6  A    between atoms: C_6  and  C_7
REMARK    7  A    between atoms: C_17  and  S_19
REMARK    8  A    between atoms: S_19  and  N_22
REMARK    9  A    between atoms: N_22  and  C_23
REMARK   10  A    between atoms: N_22  and  C_24
REMARK                            x       y       z     vdW  Elec       q    Type
REMARK                         _______ _______ _______ _____ _____    ______ ____
ROOT
ATOM      1  C   UNL     1      -0.028   2.086   2.241  0.00  0.00    +0.203 C 
ATOM      2  O   UNL     1      -0.622   2.567   3.183  0.00  0.00    -0.277 OA
ATOM      3  N   UNL     1      -0.716   1.563   1.207  0.00  0.00    -0.273 N 
ATOM      4  C   UNL     1      -0.015   1.098   0.003  0.00  0.00    +0.114 C 
ATOM      5  C   UNL     1      -0.789   1.610  -1.219  0.00  0.00    +0.024 C 
ATOM      6  C   UNL     1      -2.183   0.983  -1.218  0.00  0.00    +0.038 C 
ATOM      7  C   UNL     1      -2.849   1.181   0.118  0.00  0.00    -0.024 A 
ATOM      8  C   UNL     1      -2.114   1.453   1.261  0.00  0.00    +0.039 A 
ATOM      9  C   UNL     1      -2.759   1.624   2.480  0.00  0.00    +0.026 A 
ATOM     10  C   UNL     1      -4.135   1.527   2.553  0.00  0.00    +0.030 A 
ATOM     11  C   UNL     1      -4.868   1.259   1.412  0.00  0.00    +0.106 A 
ATOM     12  C   UNL     1      -4.228   1.086   0.200  0.00  0.00    +0.034 A 
ENDROOT
BRANCH  11  13
ATOM     13  S   UNL     1      -6.624   1.138   1.504  0.00  0.00    +0.060 S 
ATOM     14  O   UNL     1      -7.023   1.879   2.649  0.00  0.00    -0.153 OA
ATOM     15  O   UNL     1      -7.120   1.420   0.203  0.00  0.00    -0.153 OA
BRANCH  13  16
ATOM     16  N   UNL     1      -6.989  -0.447   1.816  0.00  0.00    -0.183 NA
ATOM     17  C   UNL     1      -7.101  -0.914   3.200  0.00  0.00    +0.131 C 
ATOM     18  C   UNL     1      -7.200  -1.382   0.708  0.00  0.00    +0.131 C 
ENDBRANCH  13  16
ENDBRANCH  11  13
BRANCH   1  19
ATOM     19  C   UNL     1       1.479   2.073   2.228  0.00  0.00    +0.016 C 
BRANCH  19  20
ATOM     20  N   UNL     1       1.984   2.581   3.510  0.00  0.00    +0.388 N 
ATOM     21  H   UNL     1       1.606   1.938   4.318  0.00  0.00    -0.084 HD
ATOM     22  H   UNL     1       1.614   3.607   3.654  0.00  0.00    -0.084 HD
BRANCH  20  24
ATOM     23  C   UNL     1       3.980   3.478   2.409  0.00  0.00    -0.011 C 
ATOM     24  C   UNL     1       3.453   2.583   3.533  0.00  0.00    -0.076 C 
ATOM     25  C   UNL     1       3.941   3.118   4.881  0.00  0.00    -0.011 C 
ATOM     26  C   UNL     1       3.968   1.157   3.333  0.00  0.00    -0.011 C 
ENDBRANCH  20  24
ENDBRANCH  19  20
ENDBRANCH   1  19
TORSDOF 5
