REMARK  Name = ZINC13803158
REMARK  9 active torsions:
REMARK  status: ('A' for Active; 'I' for Inactive)
REMARK    1  A    between atoms: C_5  and  C_6
REMARK    2  A    between atoms: C_8  and  C_12
REMARK    3  A    between atoms: C_12  and  C_14
REMARK    4  A    between atoms: C_12  and  N_17
REMARK    5  A    between atoms: C_14  and  C_15
REMARK    6  A    between atoms: C_18  and  C_20
REMARK    7  A    between atoms: C_27  and  C_29
REMARK    8  A    between atoms: C_29  and  C_30
REMARK    9  A    between atoms: C_30  and  C_31
REMARK                            x       y       z     vdW  Elec       q    Type
REMARK                         _______ _______ _______ _____ _____    ______ ____
ROOT
ATOM      1  N   UNL     1       4.473   1.866   1.988  0.00  0.00    -0.308 N 
ATOM      2  C   UNL     1       3.502   2.140   1.095  0.00  0.00    +0.218 C 
ATOM      3  O   UNL     1       3.674   2.998   0.256  0.00  0.00    -0.275 OA
ATOM      4  H   UNL     1       4.310   1.231   2.704  0.00  0.00    +0.149 HD
ENDROOT
BRANCH   2   5
ATOM      5  C   UNL     1       2.201   1.381   1.141  0.00  0.00    +0.092 C 
ATOM      6  C   UNL     1       2.473  -0.112   0.942  0.00  0.00    +0.016 C 
ATOM      7  C   UNL     1       1.156  -0.887   1.021  0.00  0.00    +0.020 C 
ATOM      8  C   UNL     1       0.222  -0.414  -0.097  0.00  0.00    +0.108 C 
ATOM      9  N   UNL     1       0.070   1.044  -0.001  0.00  0.00    -0.301 N 
ATOM     10  C   UNL     1       1.278   1.880   0.024  0.00  0.00    +0.120 C 
ATOM     11  C   UNL     1      -1.154   1.605   0.058  0.00  0.00    +0.216 C 
ATOM     12  O   UNL     1      -1.266   2.810   0.138  0.00  0.00    -0.276 OA
BRANCH  11  13
ATOM     13  C   UNL     1      -2.384   0.734   0.025  0.00  0.00    +0.096 C 
BRANCH  13  14
ATOM     14  C   UNL     1      -3.633   1.613   0.105  0.00  0.00    +0.012 C 
BRANCH  14  15
ATOM     15  C   UNL     1      -4.882   0.730   0.072  0.00  0.00    -0.014 C 
ATOM     16  C   UNL     1      -4.976   0.028  -1.285  0.00  0.00    -0.016 C 
ATOM     17  C   UNL     1      -6.257  -0.807  -1.335  0.00  0.00    -0.082 C 
ATOM     18  C   UNL     1      -7.376   0.716   0.182  0.00  0.00    -0.082 C 
ATOM     19  C   UNL     1      -6.127   1.596   0.277  0.00  0.00    -0.016 C 
ATOM     20  N   UNL     1      -7.429   0.069  -1.143  0.00  0.00    +0.379 N 
ATOM     21  H   UNL     1      -8.286  -0.493  -1.211  0.00  0.00    -0.086 HD
ATOM     22  H   UNL     1      -7.434   0.791  -1.872  0.00  0.00    -0.086 HD
ENDBRANCH  14  15
ENDBRANCH  13  14
ENDBRANCH  11  13
ENDBRANCH   2   5
BRANCH   1  23
ATOM     23  C   UNL     1       5.777   2.526   1.878  0.00  0.00    +0.115 C 
BRANCH  23  26
ATOM     24  C   UNL     1       8.165   1.835  -0.972  0.00  0.00    +0.007 A 
ATOM     25  C   UNL     1       7.401   2.538  -0.033  0.00  0.00    +0.017 A 
ATOM     26  C   UNL     1       6.614   1.816   0.846  0.00  0.00    -0.008 A 
ATOM     27  C   UNL     1       6.599   0.435   0.763  0.00  0.00    +0.116 A 
ATOM     28  N   UNL     1       7.325  -0.202  -0.136  0.00  0.00    -0.262 NA
ATOM     29  C   UNL     1       8.094   0.441  -0.990  0.00  0.00    +0.119 A 
BRANCH  24  34
ATOM     30  C   UNL     1       9.836   2.050  -2.913  0.00  0.00    +0.017 A 
ATOM     31  C   UNL     1      10.557   2.926  -3.695  0.00  0.00    +0.028 A 
ATOM     32  C   UNL     1      10.446   4.261  -3.466  0.00  0.00    +0.079 A 
ATOM     33  S   UNL     1       9.284   4.314  -2.112  0.00  0.00    -0.077 S 
ATOM     34  C   UNL     1       9.029   2.556  -1.930  0.00  0.00    +0.022 A 
ATOM     35 CL   UNL     1      11.227   5.578  -4.286  0.00  0.00    -0.076 Cl
ENDBRANCH  24  34
ENDBRANCH  23  26
BRANCH  23  36
ATOM     36  C   UNL     1       6.488   2.478   3.232  0.00  0.00    +0.152 C 
BRANCH  36  37
ATOM     37  C   UNL     1       5.721   3.304   4.232  0.00  0.00    +0.358 C 
ATOM     38  O   UNL     1       4.766   3.952   3.874  0.00  0.00    -0.246 OA
ATOM     39  O   UNL     1       6.098   3.319   5.520  0.00  0.00    -0.246 OA
ENDBRANCH  36  37
ENDBRANCH  23  36
ENDBRANCH   1  23
TORSDOF 9
