REMARK  Name = ZINC01079947
REMARK  1 active torsions:
REMARK  status: ('A' for Active; 'I' for Inactive)
REMARK    1  A    between atoms: C_9  and  C_19
REMARK                            x       y       z     vdW  Elec       q    Type
REMARK                         _______ _______ _______ _____ _____    ______ ____
ROOT
ATOM      1  C   UNL     1      -4.195   4.803  -5.536  0.00  0.00    +0.020 A 
ATOM      2  C   UNL     1      -3.768   3.982  -4.530  0.00  0.00    +0.012 A 
ATOM      3  C   UNL     1      -2.388   3.726  -4.423  0.00  0.00    +0.006 A 
ATOM      4  C   UNL     1      -1.504   4.324  -5.354  0.00  0.00    +0.071 A 
ATOM      5  C   UNL     1      -0.124   4.071  -5.252  0.00  0.00    +0.030 A 
ATOM      6  C   UNL     1       0.346   3.259  -4.269  0.00  0.00    +0.025 A 
ATOM      7  C   UNL     1      -0.524   2.665  -3.345  0.00  0.00    +0.036 A 
ATOM      8  C   UNL     1      -1.880   2.891  -3.414  0.00  0.00    -0.005 A 
ATOM      9  C   UNL     1      -2.813   2.253  -2.426  0.00  0.00    +0.086 C 
ATOM     10  C   UNL     1      -2.078   1.781  -1.198  0.00  0.00    +0.024 C 
ATOM     11  C   UNL     1      -0.741   1.585  -1.216  0.00  0.00    +0.016 C 
ATOM     12  N   UNL     1      -0.014   1.839  -2.342  0.00  0.00    -0.317 N 
ATOM     13  C   UNL     1      -0.013   1.086   0.008  0.00  0.00    +0.051 C 
ATOM     14  C   UNL     1      -0.728   1.579   1.268  0.00  0.00    +0.014 C 
ATOM     15  C   UNL     1      -2.173   1.074   1.235  0.00  0.00    +0.080 C 
ATOM     16  C   UNL     1      -2.828   1.545  -0.034  0.00  0.00    +0.162 C 
ATOM     17  O   UNL     1      -4.029   1.727  -0.052  0.00  0.00    -0.292 OA
ATOM     18  N   UNL     1      -1.987   5.118  -6.315  0.00  0.00    -0.255 NA
ATOM     19  C   UNL     1      -3.272   5.359  -6.418  0.00  0.00    +0.111 A 
ATOM     20  H   UNL     1       0.865   1.442  -2.447  0.00  0.00    +0.152 HD
ENDROOT
BRANCH   9  21
ATOM     21  C   UNL     1      -3.491   1.075  -3.078  0.00  0.00    -0.032 A 
ATOM     22  C   UNL     1      -2.737   0.008  -3.528  0.00  0.00    +0.008 A 
ATOM     23  C   UNL     1      -3.354  -1.077  -4.122  0.00  0.00    +0.050 A 
ATOM     24  C   UNL     1      -4.731  -1.092  -4.278  0.00  0.00    +0.166 A 
ATOM     25  C   UNL     1      -5.490  -0.014  -3.829  0.00  0.00    +0.167 A 
ATOM     26  C   UNL     1      -4.865   1.067  -3.230  0.00  0.00    +0.054 A 
ATOM     27  O   UNL     1      -6.805  -0.266  -4.095  0.00  0.00    -0.453 OA
ATOM     28  C   UNL     1      -6.883  -1.683  -4.340  0.00  0.00    +0.466 C 
ATOM     29  O   UNL     1      -5.570  -2.019  -4.825  0.00  0.00    -0.453 OA
ENDBRANCH   9  21
TORSDOF 1
