REMARK  Name = ZINC63821554
REMARK  2 active torsions:
REMARK  status: ('A' for Active; 'I' for Inactive)
REMARK    1  A    between atoms: C_9  and  C_13
REMARK    2  A    between atoms: C_16  and  C_19
REMARK                            x       y       z     vdW  Elec       q    Type
REMARK                         _______ _______ _______ _____ _____    ______ ____
ROOT
ATOM      1  C   UNL     1       2.695  -4.254  -0.047  0.00  0.00    +0.279 C 
ATOM      2  N   UNL     1       4.095  -4.648   0.147  0.00  0.00    -0.339 N 
ATOM      3  C   UNL     1       4.488  -5.314  -0.894  0.00  0.00    +0.134 C 
ATOM      4  N   UNL     1       3.484  -5.431  -1.823  0.00  0.00    -0.247 N 
ATOM      5  O   UNL     1       2.323  -4.775  -1.332  0.00  0.00    -0.243 OA
ATOM      6  H   UNL     1       3.555  -5.888  -2.676  0.00  0.00    +0.196 HD
ATOM      7  H   UNL     1       4.637  -4.445   0.926  0.00  0.00    +0.164 HD
ENDROOT
BRANCH   1  16
ATOM      8  C   UNL     1      -0.017   1.363   0.009  0.00  0.00    +0.001 A 
ATOM      9  C   UNL     1       1.169   2.084   0.002  0.00  0.00    +0.002 A 
ATOM     10  C   UNL     1       2.386   1.438  -0.013  0.00  0.00    +0.026 A 
ATOM     11  C   UNL     1       2.428   0.047  -0.021  0.00  0.00    +0.050 A 
ATOM     12  C   UNL     1       1.223  -0.678  -0.013  0.00  0.00    +0.045 A 
ATOM     13  C   UNL     1       0.002  -0.004   0.002  0.00  0.00    +0.014 A 
ATOM     14  C   UNL     1       1.290  -2.150  -0.022  0.00  0.00    +0.197 A 
ATOM     15  O   UNL     1       0.275  -2.827  -0.016  0.00  0.00    -0.287 OA
ATOM     16  C   UNL     1       2.570  -2.752  -0.037  0.00  0.00    +0.067 A 
ATOM     17  H   UNL     1       4.455  -0.125  -0.041  0.00  0.00    +0.165 HD
ATOM     18  C   UNL     1       3.679  -1.984  -0.043  0.00  0.00    +0.095 A 
ATOM     19  N   UNL     1       3.627  -0.630  -0.036  0.00  0.00    -0.360 N 
ENDBRANCH   1  16
BRANCH   3  20
ATOM     20  C   UNL     1       5.848  -5.877  -1.060  0.00  0.00    +0.018 A 
ATOM     21  C   UNL     1       6.579  -6.283   0.056  0.00  0.00    +0.011 A 
ATOM     22  C   UNL     1       7.845  -6.806  -0.105  0.00  0.00    +0.002 A 
ATOM     23  C   UNL     1       8.391  -6.929  -1.370  0.00  0.00    +0.020 A 
ATOM     24  C   UNL     1       7.671  -6.528  -2.482  0.00  0.00    +0.042 A 
ATOM     25  C   UNL     1       6.400  -6.008  -2.334  0.00  0.00    +0.031 A 
ATOM     26 CL   UNL     1       8.363  -6.686  -4.066  0.00  0.00    -0.084 Cl
ENDBRANCH   3  20
TORSDOF 2
