REMARK  Name = ZINC35714043
REMARK  10 active torsions:
REMARK  status: ('A' for Active; 'I' for Inactive)
REMARK    1  A    between atoms: C_1  and  C_2
REMARK    2  A    between atoms: C_2  and  C_4
REMARK    3  A    between atoms: C_2  and  N_10
REMARK    4  A    between atoms: C_11  and  C_13
REMARK    5  A    between atoms: C_16  and  C_18
REMARK    6  A    between atoms: C_18  and  N_19
REMARK    7  A    between atoms: N_19  and  C_20
REMARK    8  A    between atoms: N_19  and  C_27
REMARK    9  A    between atoms: C_20  and  C_21
REMARK   10  A    between atoms: C_27  and  C_28
REMARK                            x       y       z     vdW  Elec       q    Type
REMARK                         _______ _______ _______ _____ _____    ______ ____
ROOT
ATOM      1  C   UNL     1       3.322  -2.369  -5.623  0.00  0.00    +0.020 C 
ENDROOT
BRANCH   1   5
ATOM      2  C   UNL     1       2.017  -2.670  -8.989  0.00  0.00    +0.163 A 
ATOM      3  C   UNL     1       3.281  -2.242  -9.254  0.00  0.00    +0.230 A 
ATOM      4  O   UNL     1       3.897  -2.084  -8.072  0.00  0.00    -0.449 OA
ATOM      5  C   UNL     1       3.031  -2.408  -7.101  0.00  0.00    +0.179 A 
ATOM      6  N   UNL     1       1.899  -2.756  -7.636  0.00  0.00    -0.210 NA
BRANCH   2   8
ATOM      7  N   UNL     1      -0.273  -3.298  -9.570  0.00  0.00    -0.303 N 
ATOM      8  C   UNL     1       0.970  -2.978  -9.980  0.00  0.00    +0.266 C 
ATOM      9  O   UNL     1       1.228  -2.942 -11.168  0.00  0.00    -0.268 OA
ATOM     10  H   UNL     1      -0.459  -3.406  -8.624  0.00  0.00    +0.150 HD
BRANCH   7  12
ATOM     11  C   UNL     1      -1.964  -2.128 -10.894  0.00  0.00    +0.033 C 
ATOM     12  C   UNL     1      -1.344  -3.484 -10.553  0.00  0.00    +0.100 C 
BRANCH  12  13
ATOM     13  C   UNL     1      -2.401  -4.391  -9.978  0.00  0.00    -0.027 A 
ATOM     14  C   UNL     1      -2.776  -4.263  -8.654  0.00  0.00    +0.005 A 
ATOM     15  C   UNL     1      -3.747  -5.094  -8.127  0.00  0.00    +0.000 A 
ATOM     16  C   UNL     1      -4.342  -6.054  -8.924  0.00  0.00    +0.000 A 
ATOM     17  C   UNL     1      -3.968  -6.181 -10.248  0.00  0.00    +0.000 A 
ATOM     18  C   UNL     1      -3.001  -5.347 -10.777  0.00  0.00    +0.005 A 
ENDBRANCH  12  13
ENDBRANCH   7  12
ENDBRANCH   2   8
ENDBRANCH   1   5
BRANCH   1  19
ATOM     19  N   UNL     1       3.892  -3.656  -5.203  0.00  0.00    +0.391 N 
ATOM     20  H   UNL     1       3.274  -4.404  -5.481  0.00  0.00    -0.080 HD
BRANCH  19  21
ATOM     21  C   UNL     1       4.049  -3.668  -3.742  0.00  0.00    -0.042 C 
BRANCH  21  22
ATOM     22  C   UNL     1       2.692  -3.609  -3.090  0.00  0.00    -0.064 A 
ATOM     23  C   UNL     1       2.176  -2.396  -2.676  0.00  0.00    +0.002 A 
ATOM     24  C   UNL     1       0.930  -2.342  -2.078  0.00  0.00    +0.000 A 
ATOM     25  C   UNL     1       0.201  -3.502  -1.895  0.00  0.00    +0.000 A 
ATOM     26  C   UNL     1       0.717  -4.715  -2.309  0.00  0.00    +0.000 A 
ATOM     27  C   UNL     1       1.960  -4.769  -2.911  0.00  0.00    +0.002 A 
ENDBRANCH  21  22
ENDBRANCH  19  21
BRANCH  19  28
ATOM     28  C   UNL     1       5.203  -3.843  -5.838  0.00  0.00    -0.039 C 
BRANCH  28  29
ATOM     29  C   UNL     1       5.732  -5.214  -5.505  0.00  0.00    -0.029 A 
ATOM     30  C   UNL     1       6.669  -5.368  -4.500  0.00  0.00    +0.007 A 
ATOM     31  C   UNL     1       7.154  -6.625  -4.194  0.00  0.00    +0.039 A 
ATOM     32  C   UNL     1       6.703  -7.732  -4.893  0.00  0.00    +0.126 A 
ATOM     33  C   UNL     1       5.766  -7.579  -5.900  0.00  0.00    +0.076 A 
ATOM     34  C   UNL     1       5.276  -6.320  -6.202  0.00  0.00    +0.127 A 
ATOM     35  F   UNL     1       4.356  -6.170  -7.181  0.00  0.00    -0.205 F 
ATOM     36  F   UNL     1       7.179  -8.960  -4.594  0.00  0.00    -0.205 F 
ENDBRANCH  28  29
ENDBRANCH  19  28
ENDBRANCH   1  19
TORSDOF 9
