REMARK  Name = ZINC21221355
REMARK  9 active torsions:
REMARK  status: ('A' for Active; 'I' for Inactive)
REMARK    1  A    between atoms: C_1  and  O_2
REMARK    2  A    between atoms: O_2  and  C_3
REMARK    3  A    between atoms: C_5  and  C_13
REMARK    4  A    between atoms: C_7  and  O_11
REMARK    5  A    between atoms: C_8  and  O_9
REMARK    6  A    between atoms: O_9  and  C_10
REMARK    7  A    between atoms: O_11  and  C_12
REMARK    8  A    between atoms: C_18  and  C_28
REMARK    9  A    between atoms: C_32  and  O_34
REMARK                            x       y       z     vdW  Elec       q    Type
REMARK                         _______ _______ _______ _____ _____    ______ ____
ROOT
ATOM      1  C   UNL     1      -0.151   1.515  -0.011  0.00  0.00    +0.032 C 
ATOM      2  C   UNL     1      -0.823   2.056  -1.272  0.00  0.00    +0.059 C 
ATOM      3  C   UNL     1      -0.785   3.575  -1.268  0.00  0.00    +0.017 C 
ATOM      4  C   UNL     1       0.243   4.229  -0.701  0.00  0.00    +0.036 C 
ATOM      5  C   UNL     1       0.408   5.729  -0.631  0.00  0.00    +0.136 C 
ATOM      6  N   UNL     1      -0.513   6.474  -1.462  0.00  0.00    -0.331 N 
ATOM      7  C   UNL     1      -1.885   6.448  -1.216  0.00  0.00    +0.049 A 
ATOM      8  C   UNL     1      -2.561   7.573  -0.771  0.00  0.00    +0.025 A 
ATOM      9  C   UNL     1      -3.899   7.471  -0.432  0.00  0.00    +0.002 A 
ATOM     10  C   UNL     1      -4.558   6.260  -0.537  0.00  0.00    +0.002 A 
ATOM     11  C   UNL     1      -3.890   5.140  -1.003  0.00  0.00    +0.025 A 
ATOM     12  C   UNL     1      -2.557   5.244  -1.360  0.00  0.00    +0.052 A 
ATOM     13  N   UNL     1      -1.840   4.173  -1.879  0.00  0.00    -0.316 N 
ATOM     14  C   UNL     1       1.293   3.508  -0.085  0.00  0.00    +0.163 C 
ATOM     15  O   UNL     1       2.223   4.124   0.397  0.00  0.00    -0.292 OA
ATOM     16  C   UNL     1       1.300   2.011  -0.006  0.00  0.00    +0.088 C 
ATOM     17  H   UNL     1      -0.133   7.074  -2.303  0.00  0.00    +0.147 HD
ATOM     18  H   UNL     1      -2.184   3.812  -2.859  0.00  0.00    +0.152 HD
ENDROOT
BRANCH   1  21
ATOM     19  C   UNL     1      -0.812  -2.067   0.996  0.00  0.00    +0.165 A 
ATOM     20  C   UNL     1      -0.786  -0.681   1.006  0.00  0.00    +0.053 A 
ATOM     21  C   UNL     1      -0.176   0.008  -0.025  0.00  0.00    -0.036 A 
ATOM     22  C   UNL     1       0.406  -0.681  -1.072  0.00  0.00    +0.053 A 
ATOM     23  C   UNL     1       0.391  -2.067  -1.087  0.00  0.00    +0.165 A 
ATOM     24  C   UNL     1      -0.223  -2.764  -0.052  0.00  0.00    +0.204 A 
BRANCH  19  26
ATOM     25  C   UNL     1      -1.997  -1.963   3.056  0.00  0.00    +0.277 C 
ATOM     26  O   UNL     1      -1.413  -2.744   2.011  0.00  0.00    -0.491 OA
ENDBRANCH  19  26
BRANCH  24  27
ATOM     27  O   UNL     1      -0.245  -4.125  -0.065  0.00  0.00    -0.488 OA
ATOM     28  C   UNL     1      -1.358  -4.749  -0.707  0.00  0.00    +0.277 C 
ENDBRANCH  24  27
BRANCH  23  29
ATOM     29  O   UNL     1       0.968  -2.744  -2.115  0.00  0.00    -0.491 OA
ATOM     30  C   UNL     1       1.580  -1.964  -3.143  0.00  0.00    +0.277 C 
ENDBRANCH  23  29
ENDBRANCH   1  21
BRANCH   5  31
ATOM     31  C   UNL     1       0.220   6.164   0.799  0.00  0.00    -0.019 A 
ATOM     32  C   UNL     1      -1.000   5.978   1.423  0.00  0.00    +0.006 A 
ATOM     33  C   UNL     1      -1.174   6.372   2.736  0.00  0.00    +0.004 A 
ATOM     34  C   UNL     1      -0.132   6.961   3.426  0.00  0.00    +0.045 A 
ATOM     35  C   UNL     1       1.091   7.153   2.801  0.00  0.00    +0.117 A 
ATOM     36  C   UNL     1       1.265   6.753   1.484  0.00  0.00    +0.051 A 
BRANCH  35  37
ATOM     37  O   UNL     1       2.118   7.732   3.478  0.00  0.00    -0.507 OA
ATOM     38  H   UNL     1       3.087   7.884   2.981  0.00  0.00    +0.292 HD
ENDBRANCH  35  37
ENDBRANCH   5  31
TORSDOF 6
