REMARK  Name = ZINC36556104
REMARK  15 active torsions:
REMARK  status: ('A' for Active; 'I' for Inactive)
REMARK    1  A    between atoms: C_1  and  C_2
REMARK    2  A    between atoms: C_5  and  S_8
REMARK    3  A    between atoms: S_8  and  C_11
REMARK    4  A    between atoms: C_11  and  N_12
REMARK    5  A    between atoms: C_13  and  C_15
REMARK    6  A    between atoms: C_15  and  C_17
REMARK    7  A    between atoms: C_15  and  N_24
REMARK    8  A    between atoms: C_22  and  O_23
REMARK    9  A    between atoms: N_24  and  C_25
REMARK   10  A    between atoms: C_25  and  C_26
REMARK   11  A    between atoms: C_29  and  C_31
REMARK   12  A    between atoms: C_32  and  C_34
REMARK   13  A    between atoms: C_34  and  C_35
REMARK   14  A    between atoms: C_35  and  C_36
REMARK   15  A    between atoms: C_35  and  C_37
REMARK                            x       y       z     vdW  Elec       q    Type
REMARK                         _______ _______ _______ _____ _____    ______ ____
ROOT
ATOM      1  C   UNL     1       3.020  -4.861   3.518  0.00  0.00    +0.196 C 
ENDROOT
BRANCH   1   2
ATOM      2  C   UNL     1       4.371  -4.257   3.231  0.00  0.00    +0.023 A 
ATOM      3  C   UNL     1       5.505  -5.043   3.284  0.00  0.00    +0.009 A 
ATOM      4  C   UNL     1       6.745  -4.489   3.021  0.00  0.00    +0.001 A 
ATOM      5  C   UNL     1       6.852  -3.147   2.704  0.00  0.00    +0.004 A 
ATOM      6  C   UNL     1       5.720  -2.357   2.650  0.00  0.00    +0.046 A 
ATOM      7  C   UNL     1       4.475  -2.912   2.908  0.00  0.00    +0.122 A 
BRANCH   7   8
ATOM      8  O   UNL     1       3.360  -2.137   2.850  0.00  0.00    -0.506 OA
ATOM      9  H   UNL     1       3.130  -1.715   3.689  0.00  0.00    +0.292 HD
ENDBRANCH   7   8
ENDBRANCH   1   2
BRANCH   1  11
ATOM     10  N   UNL     1       1.206  -4.371   1.910  0.00  0.00    -0.294 N 
ATOM     11  C   UNL     1       2.293  -5.104   2.221  0.00  0.00    +0.239 C 
ATOM     12  O   UNL     1       2.686  -5.960   1.457  0.00  0.00    -0.273 OA
ATOM     13  H   UNL     1       0.891  -3.686   2.521  0.00  0.00    +0.150 HD
BRANCH  10  14
ATOM     14  C   UNL     1       0.498  -4.607   0.649  0.00  0.00    +0.278 C 
BRANCH  14  15
ATOM     15  S   UNL     1      -0.885  -5.744   0.936  0.00  0.00    +0.013 S 
ATOM     16  O   UNL     1      -0.452  -6.859   1.704  0.00  0.00    -0.168 OA
ATOM     17  O   UNL     1      -1.620  -5.934  -0.266  0.00  0.00    -0.168 OA
BRANCH  15  22
ATOM     18  C   UNL     1      -4.641  -2.734   4.575  0.00  0.00    +0.044 C 
ATOM     19  C   UNL     1      -3.703  -3.486   3.666  0.00  0.00    -0.050 A 
ATOM     20  C   UNL     1      -3.838  -3.382   2.294  0.00  0.00    +0.005 A 
ATOM     21  C   UNL     1      -2.978  -4.071   1.460  0.00  0.00    +0.027 A 
ATOM     22  C   UNL     1      -1.982  -4.865   1.998  0.00  0.00    +0.090 A 
ATOM     23  C   UNL     1      -1.846  -4.968   3.370  0.00  0.00    +0.027 A 
ATOM     24  C   UNL     1      -2.704  -4.275   4.204  0.00  0.00    +0.005 A 
ENDBRANCH  15  22
ENDBRANCH  14  15
ENDBRANCH  10  14
ENDBRANCH   1  11
BRANCH   1  25
ATOM     25  N   UNL     1       3.194  -6.131   4.226  0.00  0.00    -0.278 N 
ATOM     26  C   UNL     1       3.887  -6.170   5.382  0.00  0.00    +0.217 C 
ATOM     27  O   UNL     1       4.130  -7.235   5.908  0.00  0.00    -0.276 OA
BRANCH  25  28
ATOM     28  C   UNL     1       2.616  -7.361   3.678  0.00  0.00    +0.183 C 
BRANCH  28  29
ATOM     29  C   UNL     1       3.674  -8.120   2.920  0.00  0.00    +0.122 A 
ATOM     30  C   UNL     1       4.493  -9.054   3.435  0.00  0.00    +0.046 A 
ATOM     31  C   UNL     1       5.320  -9.501   2.379  0.00  0.00    +0.045 A 
ATOM     32  C   UNL     1       4.957  -8.813   1.282  0.00  0.00    +0.102 A 
ATOM     33  O   UNL     1       3.955  -7.982   1.614  0.00  0.00    -0.463 OA
ATOM     34  C   UNL     1       5.566  -8.955  -0.089  0.00  0.00    +0.086 C 
ENDBRANCH  28  29
ENDBRANCH  25  28
BRANCH  26  35
ATOM     35  C   UNL     1       4.359  -4.889   6.020  0.00  0.00    +0.099 C 
BRANCH  35  36
ATOM     36  C   UNL     1       5.257  -5.215   7.215  0.00  0.00    -0.008 C 
ATOM     37  C   UNL     1       6.527  -5.913   6.722  0.00  0.00    +0.008 C 
ATOM     38  C   UNL     1       5.635  -3.920   7.937  0.00  0.00    +0.008 C 
ENDBRANCH  35  36
ENDBRANCH  26  35
ENDBRANCH   1  25
TORSDOF 11
