REMARK  Name = ZINC14661708
REMARK  16 active torsions:
REMARK  status: ('A' for Active; 'I' for Inactive)
REMARK    1  A    between atoms: C_1  and  C_2
REMARK    2  A    between atoms: C_2  and  C_3
REMARK    3  A    between atoms: C_2  and  C_4
REMARK    4  A    between atoms: C_2  and  C_5
REMARK    5  A    between atoms: C_8  and  O_15
REMARK    6  A    between atoms: C_9  and  C_11
REMARK    7  A    between atoms: C_11  and  C_12
REMARK    8  A    between atoms: C_11  and  C_13
REMARK    9  A    between atoms: C_11  and  C_14
REMARK   10  A    between atoms: O_15  and  C_16
REMARK   11  A    between atoms: C_16  and  C_17
REMARK   12  A    between atoms: N_19  and  N_20
REMARK   13  A    between atoms: C_21  and  C_23
REMARK   14  A    between atoms: C_23  and  C_24
REMARK   15  A    between atoms: C_24  and  C_25
REMARK   16  A    between atoms: N_27  and  C_28
REMARK                            x       y       z     vdW  Elec       q    Type
REMARK                         _______ _______ _______ _____ _____    ______ ____
ROOT
ATOM      1  C   UNL     1       7.307   1.170  -0.002  0.00  0.00    +0.267 C 
ATOM      2  O   UNL     1       7.323  -0.043  -0.012  0.00  0.00    -0.271 OA
ATOM      3  N   UNL     1       6.131   1.829   0.006  0.00  0.00    -0.232 N 
ATOM      4  H   UNL     1       6.119   2.799   0.015  0.00  0.00    +0.173 HD
ENDROOT
BRANCH   3   5
ATOM      5  N   UNL     1       4.927   1.112   0.003  0.00  0.00    -0.234 N 
ATOM      6  C   UNL     1       3.751   1.771   0.011  0.00  0.00    +0.230 C 
ATOM      7  O   UNL     1       3.736   2.983   0.022  0.00  0.00    -0.274 OA
ATOM      8  H   UNL     1       4.940   0.142  -0.005  0.00  0.00    +0.173 HD
BRANCH   6   9
ATOM      9  C   UNL     1       2.456   1.000   0.008  0.00  0.00    +0.106 C 
BRANCH   9  10
ATOM     10  C   UNL     1       1.280   1.979   0.019  0.00  0.00    +0.105 C 
BRANCH  10  11
ATOM     11  C   UNL     1      -0.015   1.208   0.015  0.00  0.00    +0.218 C 
ATOM     12  O   UNL     1       0.001  -0.005   0.005  0.00  0.00    -0.275 OA
ATOM     13  N   UNL     1      -1.191   1.867   0.018  0.00  0.00    -0.284 N 
ATOM     14  H   UNL     1      -1.205   2.834   0.092  0.00  0.00    +0.155 HD
BRANCH  13  15
ATOM     15  C   UNL     1      -2.392   1.155  -0.086  0.00  0.00    +0.052 A 
ATOM     16  C   UNL     1      -2.510  -0.099   0.499  0.00  0.00    +0.026 A 
ATOM     17  C   UNL     1      -3.696  -0.799   0.395  0.00  0.00    +0.022 A 
ATOM     18  C   UNL     1      -4.766  -0.253  -0.291  0.00  0.00    +0.042 A 
ATOM     19  C   UNL     1      -4.652   0.996  -0.876  0.00  0.00    +0.041 A 
ATOM     20  C   UNL     1      -3.470   1.704  -0.770  0.00  0.00    +0.064 A 
ATOM     21 CL   UNL     1      -3.329   3.274  -1.497  0.00  0.00    -0.082 Cl
ATOM     22 CL   UNL     1      -6.255  -1.136  -0.420  0.00  0.00    -0.083 Cl
ENDBRANCH  13  15
ENDBRANCH  10  11
ENDBRANCH   9  10
ENDBRANCH   6   9
ENDBRANCH   3   5
BRANCH   1  23
ATOM     23  C   UNL     1       8.602   1.941   0.002  0.00  0.00    +0.326 C 
BRANCH  23  24
ATOM     24  O   UNL     1       9.701   1.027  -0.008  0.00  0.00    -0.482 OA
BRANCH  24  28
ATOM     25  C   UNL     1      13.492   2.654  -0.003  0.00  0.00    -0.041 A 
ATOM     26  C   UNL     1      12.385   3.482   0.006  0.00  0.00    +0.008 A 
ATOM     27  C   UNL     1      11.114   2.940   0.005  0.00  0.00    +0.046 A 
ATOM     28  C   UNL     1      10.950   1.562  -0.007  0.00  0.00    +0.125 A 
ATOM     29  C   UNL     1      12.061   0.733  -0.011  0.00  0.00    -0.000 A 
ATOM     30  C   UNL     1      13.330   1.280  -0.014  0.00  0.00    +0.012 A 
BRANCH  25  32
ATOM     31  C   UNL     1      14.777   4.774   0.013  0.00  0.00    +0.015 C 
ATOM     32  C   UNL     1      14.877   3.248  -0.000  0.00  0.00    -0.013 C 
ATOM     33  C   UNL     1      15.632   2.776   1.243  0.00  0.00    +0.015 C 
ATOM     34  C   UNL     1      15.627   2.797  -1.255  0.00  0.00    +0.015 C 
ENDBRANCH  25  32
BRANCH  29  35
ATOM     35  C   UNL     1      11.886  -0.763  -0.017  0.00  0.00    -0.009 C 
ATOM     36  C   UNL     1      13.259  -1.438  -0.020  0.00  0.00    +0.015 C 
ATOM     37  C   UNL     1      11.111  -1.191   1.231  0.00  0.00    +0.015 C 
ATOM     38  C   UNL     1      11.110  -1.181  -1.267  0.00  0.00    +0.015 C 
ENDBRANCH  29  35
ENDBRANCH  24  28
ENDBRANCH  23  24
ENDBRANCH   1  23
TORSDOF 10
