REMARK  Name = ZINC09747719
REMARK  10 active torsions:
REMARK  status: ('A' for Active; 'I' for Inactive)
REMARK    1  A    between atoms: C_1  and  C_2
REMARK    2  A    between atoms: C_2  and  C_3
REMARK    3  A    between atoms: C_2  and  C_4
REMARK    4  A    between atoms: C_4  and  C_6
REMARK    5  A    between atoms: C_4  and  O_12
REMARK    6  A    between atoms: O_12  and  C_13
REMARK    7  A    between atoms: C_13  and  C_15
REMARK    8  A    between atoms: C_20  and  O_21
REMARK    9  A    between atoms: O_21  and  C_22
REMARK   10  A    between atoms: C_22  and  C_23
REMARK                            x       y       z     vdW  Elec       q    Type
REMARK                         _______ _______ _______ _____ _____    ______ ____
ROOT
ATOM      1  C   UNL     1      -2.468   2.731   3.922  0.00  0.00    +0.343 C 
ATOM      2  O   UNL     1      -1.433   2.099   3.846  0.00  0.00    -0.245 OA
ENDROOT
BRANCH   1   3
ATOM      3  C   UNL     1      -3.163   3.157   2.694  0.00  0.00    +0.101 A 
ATOM      4  C   UNL     1      -4.352   3.887   2.777  0.00  0.00    +0.018 A 
ATOM      5  C   UNL     1      -5.000   4.277   1.626  0.00  0.00    +0.001 A 
ATOM      6  C   UNL     1      -4.476   3.953   0.385  0.00  0.00    +0.004 A 
ATOM      7  C   UNL     1      -3.300   3.236   0.288  0.00  0.00    +0.046 A 
ATOM      8  C   UNL     1      -2.634   2.835   1.437  0.00  0.00    +0.135 A 
BRANCH   8   9
ATOM      9  O   UNL     1      -1.479   2.130   1.343  0.00  0.00    -0.487 OA
BRANCH   9  10
ATOM     10  C   UNL     1      -1.004   1.835   0.028  0.00  0.00    +0.264 C 
BRANCH  10  11
ATOM     11  C   UNL     1       0.281   1.052   0.123  0.00  0.00    -0.009 A 
ATOM     12  C   UNL     1       0.246  -0.329   0.170  0.00  0.00    +0.007 A 
ATOM     13  C   UNL     1       1.424  -1.048   0.251  0.00  0.00    +0.001 A 
ATOM     14  C   UNL     1       2.637  -0.386   0.283  0.00  0.00    +0.015 A 
ATOM     15  C   UNL     1       2.672   0.996   0.236  0.00  0.00    +0.018 A 
ATOM     16  C   UNL     1       1.493   1.715   0.155  0.00  0.00    +0.022 A 
ATOM     17 BR   UNL     1       4.331   1.902   0.281  0.00  0.00    -0.050 Br
ENDBRANCH  10  11
ENDBRANCH   9  10
ENDBRANCH   8   9
ENDBRANCH   1   3
BRANCH   1  18
ATOM     18  O   UNL     1      -2.980   3.042   5.129  0.00  0.00    -0.448 OA
BRANCH  18  19
ATOM     19  C   UNL     1      -2.242   2.590   6.295  0.00  0.00    +0.265 C 
BRANCH  19  20
ATOM     20  C   UNL     1      -3.200   2.341   7.431  0.00  0.00    +0.261 C 
ATOM     21  O   UNL     1      -2.810   1.809   8.448  0.00  0.00    -0.271 OA
ATOM     22  N   UNL     1      -4.491   2.710   7.317  0.00  0.00    -0.237 N 
ATOM     23  C   UNL     1      -5.323   2.588   8.370  0.00  0.00    +0.303 C 
ATOM     24  O   UNL     1      -4.909   2.146   9.424  0.00  0.00    -0.253 OA
ATOM     25  N   UNL     1      -6.614   2.958   8.256  0.00  0.00    -0.313 N 
ATOM     26  H   UNL     1      -4.822   3.063   6.476  0.00  0.00    +0.159 HD
ATOM     27  H   UNL     1      -6.945   3.311   7.415  0.00  0.00    +0.146 HD
ATOM     28  H   UNL     1      -7.213   2.870   9.014  0.00  0.00    +0.146 HD
ENDBRANCH  19  20
BRANCH  19  30
ATOM     29  C   UNL     1      -0.359   3.132   7.846  0.00  0.00    +0.011 C 
ATOM     30  C   UNL     1      -1.231   3.663   6.706  0.00  0.00    +0.033 C 
ATOM     31  C   UNL     1      -0.346   4.015   5.508  0.00  0.00    +0.011 C 
ENDBRANCH  19  30
ENDBRANCH  18  19
ENDBRANCH   1  18
TORSDOF 8
