REMARK  Name = ZINC40478086
REMARK  5 active torsions:
REMARK  status: ('A' for Active; 'I' for Inactive)
REMARK    1  A    between atoms: C_3  and  N_9
REMARK    2  A    between atoms: C_10  and  C_12
REMARK    3  A    between atoms: C_12  and  N_13
REMARK    4  A    between atoms: N_22  and  C_23
REMARK    5  A    between atoms: C_23  and  C_24
REMARK                            x       y       z     vdW  Elec       q    Type
REMARK                         _______ _______ _______ _____ _____    ______ ____
ROOT
ATOM      1  N   UNL     1       4.576   5.671  -0.325  0.00  0.00    -0.288 N 
ATOM      2  C   UNL     1       4.377   6.247  -1.537  0.00  0.00    +0.205 A 
ATOM      3  N   UNL     1       4.120   7.514  -1.683  0.00  0.00    -0.216 NA
ATOM      4  C   UNL     1       4.032   8.344  -0.634  0.00  0.00    +0.186 A 
ATOM      5  C   UNL     1       4.222   7.843   0.660  0.00  0.00    +0.196 A 
ATOM      6  C   UNL     1       4.506   6.413   0.804  0.00  0.00    +0.284 A 
ATOM      7  O   UNL     1       4.677   5.911   1.901  0.00  0.00    -0.265 OA
ATOM      8  N   UNL     1       4.085   8.859   1.524  0.00  0.00    -0.122 NA
ATOM      9  N   UNL     1       3.828   9.947   0.886  0.00  0.00    -0.063 NA
ATOM     10  N   UNL     1       3.783   9.676  -0.490  0.00  0.00    -0.222 N 
ENDROOT
BRANCH   1  11
ATOM     11  C   UNL     1       4.861   4.237  -0.238  0.00  0.00    +0.222 C 
BRANCH  11  13
ATOM     12  N   UNL     1       3.584   2.129  -0.021  0.00  0.00    -0.282 N 
ATOM     13  C   UNL     1       3.567   3.474  -0.116  0.00  0.00    +0.237 C 
ATOM     14  O   UNL     1       2.511   4.069  -0.103  0.00  0.00    -0.274 OA
ATOM     15  H   UNL     1       4.430   1.659   0.049  0.00  0.00    +0.155 HD
BRANCH  12  18
ATOM     16  C   UNL     1       0.065   1.244  -0.620  0.00  0.00    +0.022 A 
ATOM     17  C   UNL     1       1.250   1.953  -0.618  0.00  0.00    +0.027 A 
ATOM     18  C   UNL     1       2.381   1.412  -0.024  0.00  0.00    +0.069 A 
ATOM     19  C   UNL     1       2.318   0.154   0.567  0.00  0.00    +0.146 A 
ATOM     20  C   UNL     1       1.129  -0.551   0.562  0.00  0.00    +0.060 A 
ATOM     21  C   UNL     1       0.004  -0.007  -0.032  0.00  0.00    +0.044 A 
ATOM     22 CL   UNL     1      -1.488  -0.895  -0.036  0.00  0.00    -0.083 Cl
ATOM     23  F   UNL     1       3.418  -0.377   1.146  0.00  0.00    -0.203 F 
ENDBRANCH  12  18
ENDBRANCH  11  13
ENDBRANCH   1  11
BRANCH  10  24
ATOM     24  C   UNL     1       3.519  10.638  -1.563  0.00  0.00    +0.183 C 
BRANCH  24  25
ATOM     25  C   UNL     1       2.037  10.696  -1.832  0.00  0.00    -0.021 A 
ATOM     26  C   UNL     1       1.470   9.845  -2.762  0.00  0.00    +0.044 A 
ATOM     27  C   UNL     1       0.109   9.898  -3.010  0.00  0.00    +0.126 A 
ATOM     28  C   UNL     1      -0.684  10.803  -2.327  0.00  0.00    +0.076 A 
ATOM     29  C   UNL     1      -0.115  11.655  -1.395  0.00  0.00    +0.126 A 
ATOM     30  C   UNL     1       1.246  11.596  -1.145  0.00  0.00    +0.044 A 
ATOM     31  F   UNL     1      -0.888  12.539  -0.727  0.00  0.00    -0.205 F 
ATOM     32  F   UNL     1      -0.445   9.067  -3.920  0.00  0.00    -0.205 F 
ENDBRANCH  24  25
ENDBRANCH  10  24
TORSDOF 5
