REMARK  Name = ZINC44786796
REMARK  4 active torsions:
REMARK  status: ('A' for Active; 'I' for Inactive)
REMARK    1  A    between atoms: C_1  and  C_2
REMARK    2  A    between atoms: C_3  and  C_8
REMARK    3  A    between atoms: N_6  and  C_7
REMARK    4  A    between atoms: C_8  and  N_9
REMARK                            x       y       z     vdW  Elec       q    Type
REMARK                         _______ _______ _______ _____ _____    ______ ____
ROOT
ATOM      1  C   UNL     1      -0.018   1.503   0.010  0.00  0.00    +0.065 C 
ATOM      2  C   UNL     1       0.002  -0.004   0.002  0.00  0.00    +0.037 A 
ATOM      3  C   UNL     1       0.008  -0.796  -1.095  0.00  0.00    -0.032 A 
ATOM      4  C   UNL     1       0.028  -2.127  -0.666  0.00  0.00    +0.136 A 
ATOM      5  N   UNL     1       0.035  -2.134   0.643  0.00  0.00    -0.179 NA
ATOM      6  N   UNL     1       0.024  -0.805   1.088  0.00  0.00    -0.271 N 
ATOM      7  C   UNL     1       0.031  -0.364   2.485  0.00  0.00    +0.172 C 
ENDROOT
BRANCH   3   8
ATOM      8  C   UNL     1      -0.006  -0.327  -2.527  0.00  0.00    -0.120 C 
BRANCH   8   9
ATOM      9  N   UNL     1       1.347   0.073  -2.923  0.00  0.00    +0.362 NA
ATOM     10  H   UNL     1       1.512   0.401  -3.821  0.00  0.00    -0.169 HD
ENDBRANCH   8   9
ENDBRANCH   3   8
TORSDOF 2
