REMARK  Name = ZINC21343314
REMARK  7 active torsions:
REMARK  status: ('A' for Active; 'I' for Inactive)
REMARK    1  A    between atoms: C_10  and  C_11
REMARK    2  A    between atoms: C_11  and  N_12
REMARK    3  A    between atoms: C_19  and  C_22
REMARK    4  A    between atoms: C_19  and  O_34
REMARK    5  A    between atoms: C_22  and  C_23
REMARK    6  A    between atoms: C_23  and  C_25
REMARK    7  A    between atoms: C_29  and  N_31
REMARK                            x       y       z     vdW  Elec       q    Type
REMARK                         _______ _______ _______ _____ _____    ______ ____
ROOT
ATOM      1  N   UNL     1      -6.023   4.770   2.015  0.00  0.00    -0.264 N 
ATOM      2  C   UNL     1      -6.860   3.796   1.468  0.00  0.00    +0.043 A 
ATOM      3  C   UNL     1      -8.069   3.273   1.923  0.00  0.00    +0.025 A 
ATOM      4  C   UNL     1      -8.721   2.300   1.195  0.00  0.00    +0.022 A 
ATOM      5  C   UNL     1      -8.181   1.835   0.008  0.00  0.00    +0.041 A 
ATOM      6  C   UNL     1      -6.980   2.350  -0.451  0.00  0.00    +0.028 A 
ATOM      7  C   UNL     1      -6.329   3.321   0.271  0.00  0.00    +0.016 A 
ATOM      8  C   UNL     1      -5.035   4.073   0.057  0.00  0.00    +0.176 C 
ATOM      9  C   UNL     1      -4.937   4.992   1.256  0.00  0.00    +0.257 C 
ATOM     10  O   UNL     1      -4.045   5.781   1.488  0.00  0.00    -0.272 OA
ATOM     11 CL   UNL     1      -9.008   0.611  -0.904  0.00  0.00    -0.084 Cl
ENDROOT
BRANCH   8  12
ATOM     12  O   UNL     1      -5.092   4.832  -1.152  0.00  0.00    -0.374 OA
ATOM     13  H   UNL     1      -4.229   5.441  -1.460  0.00  0.00    +0.211 HD
ENDBRANCH   8  12
BRANCH   1  14
ATOM     14  C   UNL     1      -6.298   5.469   3.273  0.00  0.00    +0.149 C 
BRANCH  14  24
ATOM     15  C   UNL     1      -1.864   4.778   5.736  0.00  0.00    +0.001 A 
ATOM     16  C   UNL     1      -2.278   5.567   4.665  0.00  0.00    +0.001 A 
ATOM     17  C   UNL     1      -3.565   5.532   4.224  0.00  0.00    +0.009 A 
ATOM     18  C   UNL     1      -4.493   4.687   4.856  0.00  0.00    -0.013 A 
ATOM     19  C   UNL     1      -4.074   3.888   5.949  0.00  0.00    -0.018 A 
ATOM     20  C   UNL     1      -2.737   3.956   6.379  0.00  0.00    +0.008 A 
ATOM     21  C   UNL     1      -5.000   3.039   6.578  0.00  0.00    +0.008 A 
ATOM     22  C   UNL     1      -6.286   2.999   6.134  0.00  0.00    +0.001 A 
ATOM     23  C   UNL     1      -6.700   3.789   5.063  0.00  0.00    +0.006 A 
ATOM     24  C   UNL     1      -5.830   4.623   4.430  0.00  0.00    -0.022 A 
ENDBRANCH  14  24
ENDBRANCH   1  14
BRANCH   8  25
ATOM     25  C   UNL     1      -3.851   3.104   0.026  0.00  0.00    +0.129 C 
BRANCH  25  26
ATOM     26  C   UNL     1      -2.564   3.886  -0.018  0.00  0.00    +0.167 C 
ATOM     27  O   UNL     1      -2.590   5.098  -0.024  0.00  0.00    -0.292 OA
BRANCH  26  28
ATOM     28  C   UNL     1      -1.274   3.178  -0.054  0.00  0.00    +0.020 A 
ATOM     29  C   UNL     1      -1.239   1.780  -0.054  0.00  0.00    +0.011 A 
ATOM     30  C   UNL     1      -0.027   1.124  -0.083  0.00  0.00    +0.003 A 
ATOM     31  C   UNL     1       1.154   1.846  -0.123  0.00  0.00    +0.033 A 
ATOM     32  C   UNL     1       1.127   3.229  -0.129  0.00  0.00    +0.127 A 
ATOM     33  C   UNL     1      -0.077   3.900  -0.095  0.00  0.00    +0.044 A 
BRANCH  32  34
ATOM     34  N   UNL     1       2.396   3.991  -0.173  0.00  0.00    +0.056 N 
ATOM     35  O   UNL     1       3.460   3.400  -0.204  0.00  0.00    -0.126 OA
ATOM     36  O   UNL     1       2.374   5.209  -0.179  0.00  0.00    -0.126 OA
ENDBRANCH  32  34
ENDBRANCH  26  28
ENDBRANCH  25  26
ENDBRANCH   8  25
TORSDOF 7
