REMARK  Name = ZINC38491718
REMARK  11 active torsions:
REMARK  status: ('A' for Active; 'I' for Inactive)
REMARK    1  A    between atoms: C_1  and  C_2
REMARK    2  A    between atoms: C_4  and  C_38
REMARK    3  A    between atoms: C_6  and  S_8
REMARK    4  A    between atoms: S_8  and  C_9
REMARK    5  A    between atoms: C_9  and  C_10
REMARK    6  A    between atoms: C_11  and  C_26
REMARK    7  A    between atoms: N_14  and  C_15
REMARK    8  A    between atoms: C_18  and  O_21
REMARK    9  A    between atoms: O_21  and  C_22
REMARK   10  A    between atoms: C_30  and  C_37
REMARK   11  A    between atoms: C_33  and  C_36
REMARK                            x       y       z     vdW  Elec       q    Type
REMARK                         _______ _______ _______ _____ _____    ______ ____
ROOT
ATOM      1  C   UNL     1       0.051  -2.005   5.383  0.00  0.00    +0.087 A 
ATOM      2  C   UNL     1      -1.032  -2.541   6.022  0.00  0.00    +0.171 A 
ATOM      3  N   UNL     1      -0.593  -3.279   7.056  0.00  0.00    -0.124 NA
ATOM      4  N   UNL     1       0.693  -3.238   7.102  0.00  0.00    -0.060 NA
ATOM      5  N   UNL     1       1.147  -2.436   6.044  0.00  0.00    -0.215 N 
ENDROOT
BRANCH   2   6
ATOM      6  C   UNL     1      -2.443  -2.342   5.643  0.00  0.00    +0.269 C 
ATOM      7  O   UNL     1      -2.719  -1.748   4.618  0.00  0.00    -0.268 OA
ATOM      8  N   UNL     1      -3.427  -2.817   6.431  0.00  0.00    -0.296 N 
ATOM      9  C   UNL     1      -3.119  -3.388   7.750  0.00  0.00    +0.111 C 
ATOM     10  C   UNL     1      -3.973  -2.679   8.806  0.00  0.00    +0.004 C 
ATOM     11  C   UNL     1      -5.449  -2.773   8.409  0.00  0.00    +0.009 C 
ATOM     12  C   UNL     1      -5.662  -2.072   7.065  0.00  0.00    +0.004 C 
ATOM     13  C   UNL     1      -4.828  -2.768   5.992  0.00  0.00    +0.111 C 
ATOM     14  C   UNL     1      -5.228  -0.610   7.177  0.00  0.00    +0.009 C 
ATOM     15  C   UNL     1      -3.766  -3.351  10.165  0.00  0.00    +0.009 C 
ENDBRANCH   2   6
BRANCH   5  16
ATOM     16  C   UNL     1       2.482  -2.138   5.734  0.00  0.00    +0.068 A 
ATOM     17  C   UNL     1       2.872  -1.992   4.410  0.00  0.00    +0.031 A 
ATOM     18  C   UNL     1       4.186  -1.698   4.105  0.00  0.00    +0.048 A 
ATOM     19  C   UNL     1       5.117  -1.549   5.122  0.00  0.00    +0.130 A 
ATOM     20  C   UNL     1       4.729  -1.695   6.446  0.00  0.00    +0.048 A 
ATOM     21  C   UNL     1       3.414  -1.983   6.752  0.00  0.00    +0.031 A 
BRANCH  19  22
ATOM     22  O   UNL     1       6.411  -1.260   4.822  0.00  0.00    -0.406 OA
BRANCH  22  23
ATOM     23  C   UNL     1       7.316  -1.121   5.918  0.00  0.00    +0.575 C 
ATOM     24  F   UNL     1       7.357  -2.316   6.645  0.00  0.00    -0.133 F 
ATOM     25  F   UNL     1       8.595  -0.827   5.433  0.00  0.00    -0.133 F 
ATOM     26  F   UNL     1       6.883  -0.083   6.751  0.00  0.00    -0.133 F 
ENDBRANCH  22  23
ENDBRANCH  19  22
ENDBRANCH   5  16
BRANCH   1  27
ATOM     27  C   UNL     1       0.027  -1.111   4.170  0.00  0.00    +0.135 C 
BRANCH  27  28
ATOM     28  S   UNL     1       0.088  -2.127   2.669  0.00  0.00    -0.080 S 
BRANCH  28  34
ATOM     29  C   UNL     1      -0.102   2.715   1.024  0.00  0.00    +0.066 C 
ATOM     30  C   UNL     1      -0.034   1.248   0.686  0.00  0.00    +0.043 A 
ATOM     31  C   UNL     1      -0.000   0.835  -0.637  0.00  0.00    +0.046 A 
ATOM     32  C   UNL     1       0.062  -0.524  -0.905  0.00  0.00    +0.043 A 
ATOM     33  N   UNL     1       0.087  -1.380   0.103  0.00  0.00    -0.227 NA
ATOM     34  C   UNL     1       0.053  -0.952   1.357  0.00  0.00    +0.189 A 
ATOM     35  N   UNL     1      -0.001   0.341   1.647  0.00  0.00    -0.227 NA
ATOM     36  C   UNL     1       0.100  -1.020  -2.327  0.00  0.00    +0.066 C 
ENDBRANCH  28  34
ENDBRANCH  27  28
ENDBRANCH   1  27
TORSDOF 7
