REMARK  Name = ZINC65985542
REMARK  4 active torsions:
REMARK  status: ('A' for Active; 'I' for Inactive)
REMARK    1  A    between atoms: C_6  and  C_7
REMARK    2  A    between atoms: C_7  and  N_8
REMARK    3  A    between atoms: C_14  and  C_17
REMARK    4  A    between atoms: N_19  and  C_20
REMARK                            x       y       z     vdW  Elec       q    Type
REMARK                         _______ _______ _______ _____ _____    ______ ____
ROOT
ATOM      1  N   UNL     1      -1.726  -1.016  -1.368  0.00  0.00    -0.295 N 
ATOM      2  C   UNL     1      -2.867  -1.693  -1.607  0.00  0.00    +0.302 C 
ATOM      3  O   UNL     1      -3.489  -2.181  -0.684  0.00  0.00    -0.253 OA
ATOM      4  N   UNL     1      -3.318  -1.829  -2.870  0.00  0.00    -0.286 N 
ATOM      5  C   UNL     1      -2.520  -1.347  -4.006  0.00  0.00    +0.110 C 
ATOM      6  C   UNL     1      -3.386  -0.413  -4.856  0.00  0.00    +0.032 C 
ATOM      7  C   UNL     1      -4.673  -1.139  -5.255  0.00  0.00    +0.078 C 
ATOM      8  C   UNL     1      -5.459  -1.516  -3.997  0.00  0.00    +0.032 C 
ATOM      9  C   UNL     1      -4.614  -2.468  -3.138  0.00  0.00    +0.110 C 
ATOM     10  H   UNL     1      -1.192  -0.690  -2.109  0.00  0.00    +0.151 HD
ENDROOT
BRANCH   7  11
ATOM     11  C   UNL     1      -5.513  -0.234  -6.119  0.00  0.00    +0.216 C 
ATOM     12  O   UNL     1      -5.121   0.881  -6.390  0.00  0.00    -0.276 OA
ATOM     13  N   UNL     1      -6.699  -0.665  -6.592  0.00  0.00    -0.312 N 
ATOM     14  H   UNL     1      -7.013  -1.557  -6.376  0.00  0.00    +0.149 HD
BRANCH  13  15
ATOM     15  C   UNL     1      -7.515   0.215  -7.433  0.00  0.00    +0.073 C 
ATOM     16  C   UNL     1      -8.366   1.125  -6.544  0.00  0.00    +0.022 C 
ATOM     17  C   UNL     1      -9.218   2.043  -7.422  0.00  0.00    +0.002 C 
ATOM     18  C   UNL     1     -10.133   1.196  -8.308  0.00  0.00    +0.000 C 
ATOM     19  C   UNL     1      -9.283   0.286  -9.197  0.00  0.00    +0.002 C 
ATOM     20  C   UNL     1      -8.431  -0.632  -8.319  0.00  0.00    +0.022 C 
ENDBRANCH  13  15
ENDBRANCH   7  11
BRANCH   1  21
ATOM     21  C   UNL     1      -1.294  -0.773   0.010  0.00  0.00    +0.141 C 
BRANCH  21  27
ATOM     22  C   UNL     1      -0.019   1.381   0.009  0.00  0.00    +0.008 A 
ATOM     23  C   UNL     1       1.167   2.089   0.001  0.00  0.00    +0.038 A 
ATOM     24  C   UNL     1       2.376   1.414  -0.013  0.00  0.00    +0.123 A 
ATOM     25  C   UNL     1       2.394   0.030  -0.019  0.00  0.00    +0.038 A 
ATOM     26  C   UNL     1       1.206  -0.677  -0.012  0.00  0.00    +0.008 A 
ATOM     27  C   UNL     1       0.000  -0.001   0.002  0.00  0.00    -0.030 A 
ATOM     28  F   UNL     1       3.537   2.106  -0.020  0.00  0.00    -0.205 F 
ENDBRANCH  21  27
ENDBRANCH   1  21
TORSDOF 4
