REMARK  Name = ZINC28057195
REMARK  2 active torsions:
REMARK  status: ('A' for Active; 'I' for Inactive)
REMARK    1  A    between atoms: C_5  and  C_7
REMARK    2  A    between atoms: C_18  and  C_20
REMARK                            x       y       z     vdW  Elec       q    Type
REMARK                         _______ _______ _______ _____ _____    ______ ____
ROOT
ATOM      1  C   UNL     1      -2.415  -2.800  -0.306  0.00  0.00    +0.177 C 
ATOM      2  C   UNL     1      -1.139  -1.995  -0.312  0.00  0.00    +0.026 C 
ATOM      3  C   UNL     1      -1.104  -0.709   0.043  0.00  0.00    +0.050 C 
ATOM      4  C   UNL     1       0.202  -0.009   0.029  0.00  0.00    +0.038 A 
ATOM      5  C   UNL     1       0.284   1.378   0.050  0.00  0.00    +0.013 A 
ATOM      6  C   UNL     1       1.524   1.988   0.038  0.00  0.00    +0.001 A 
ATOM      7  C   UNL     1       2.678   1.224   0.004  0.00  0.00    +0.004 A 
ATOM      8  C   UNL     1       2.605  -0.158  -0.017  0.00  0.00    +0.046 A 
ATOM      9  C   UNL     1       1.371  -0.780  -0.005  0.00  0.00    +0.131 A 
ATOM     10  O   UNL     1       1.257  -2.133  -0.027  0.00  0.00    -0.479 OA
ATOM     11  C   UNL     1       0.143  -2.679  -0.731  0.00  0.00    +0.234 C 
ATOM     12  N   UNL     1      -2.255  -0.006   0.418  0.00  0.00    -0.282 N 
ATOM     13  C   UNL     1      -3.478  -0.605   0.165  0.00  0.00    +0.240 A 
ATOM     14  N   UNL     1      -3.565  -1.916  -0.183  0.00  0.00    -0.201 N 
ATOM     15  N   UNL     1      -4.924  -2.162  -0.368  0.00  0.00    -0.042 NA
ATOM     16  N   UNL     1      -5.536  -1.047  -0.130  0.00  0.00    -0.021 NA
ATOM     17  N   UNL     1      -4.689  -0.128   0.185  0.00  0.00    -0.092 NA
ATOM     18  H   UNL     1      -2.165   0.982   0.894  0.00  0.00    +0.155 HD
ENDROOT
BRANCH   1  23
ATOM     19  C   UNL     1      -2.280  -4.158   3.215  0.00  0.00    +0.001 A 
ATOM     20  C   UNL     1      -2.361  -5.520   2.990  0.00  0.00    +0.003 A 
ATOM     21  C   UNL     1      -2.460  -6.003   1.700  0.00  0.00    +0.039 A 
ATOM     22  C   UNL     1      -2.482  -5.123   0.631  0.00  0.00    +0.129 A 
ATOM     23  C   UNL     1      -2.396  -3.760   0.856  0.00  0.00    +0.017 A 
ATOM     24  C   UNL     1      -2.297  -3.278   2.148  0.00  0.00    +0.009 A 
ATOM     25  F   UNL     1      -2.584  -5.594  -0.631  0.00  0.00    -0.205 F 
ENDBRANCH   1  23
BRANCH  11  26
ATOM     26  C   UNL     1       0.347  -2.487  -2.212  0.00  0.00    -0.002 A 
ATOM     27  C   UNL     1       0.775  -1.265  -2.697  0.00  0.00    +0.007 A 
ATOM     28  C   UNL     1       0.968  -1.089  -4.054  0.00  0.00    +0.002 A 
ATOM     29  C   UNL     1       0.722  -2.132  -4.928  0.00  0.00    +0.020 A 
ATOM     30  C   UNL     1       0.288  -3.353  -4.444  0.00  0.00    +0.041 A 
ATOM     31  C   UNL     1       0.101  -3.530  -3.084  0.00  0.00    +0.027 A 
ATOM     32 CL   UNL     1      -0.021  -4.662  -5.541  0.00  0.00    -0.084 Cl
ENDBRANCH  11  26
TORSDOF 2
