REMARK  Name = ZINC12196365
REMARK  6 active torsions:
REMARK  status: ('A' for Active; 'I' for Inactive)
REMARK    1  A    between atoms: C_1  and  C_2
REMARK    2  A    between atoms: C_4  and  C_10
REMARK    3  A    between atoms: C_7  and  O_8
REMARK    4  A    between atoms: O_8  and  C_9
REMARK    5  A    between atoms: C_24  and  C_25
REMARK    6  A    between atoms: C_24  and  N_61
REMARK                            x       y       z     vdW  Elec       q    Type
REMARK                         _______ _______ _______ _____ _____    ______ ____
ROOT
ATOM      1  C   UNL     1       3.733  -3.434  -0.059  0.00  0.00    +0.011 C 
ATOM      2  C   UNL     1       2.957  -2.137  -0.039  0.00  0.00    +0.011 A 
ATOM      3  C   UNL     1       1.609  -2.088  -0.025  0.00  0.00    -0.022 A 
ATOM      4  C   UNL     1       1.222  -0.684  -0.013  0.00  0.00    +0.003 A 
ATOM      5  C   UNL     1       0.002  -0.004   0.002  0.00  0.00    +0.010 A 
ATOM      6  C   UNL     1      -0.016   1.362   0.009  0.00  0.00    +0.001 A 
ATOM      7  C   UNL     1       1.169   2.083   0.002  0.00  0.00    +0.002 A 
ATOM      8  C   UNL     1       2.385   1.436  -0.013  0.00  0.00    +0.026 A 
ATOM      9  C   UNL     1       2.428   0.045  -0.021  0.00  0.00    +0.047 A 
ATOM     10  N   UNL     1       3.460  -0.869  -0.036  0.00  0.00    -0.359 N 
ATOM     11  H   UNL     1       4.403  -0.644  -0.043  0.00  0.00    +0.166 HD
ATOM     12  C   UNL     1       0.727  -3.311  -0.020  0.00  0.00    +0.019 C 
ATOM     13  C   UNL     1       1.597  -4.519   0.355  0.00  0.00    -0.072 C 
ATOM     14  N   UNL     1       2.811  -4.512  -0.492  0.00  0.00    +0.392 N 
ATOM     15  H   UNL     1       2.535  -4.341  -1.466  0.00  0.00    -0.080 HD
ENDROOT
BRANCH   1  19
ATOM     16  C   UNL     1       8.586  -2.692  -1.024  0.00  0.00    +0.047 C 
ATOM     17  C   UNL     1       7.188  -2.978  -1.509  0.00  0.00    -0.009 A 
ATOM     18  C   UNL     1       6.147  -3.066  -0.605  0.00  0.00    +0.009 A 
ATOM     19  C   UNL     1       4.865  -3.332  -1.048  0.00  0.00    -0.055 A 
ATOM     20  C   UNL     1       4.620  -3.501  -2.399  0.00  0.00    +0.006 A 
ATOM     21  C   UNL     1       5.656  -3.408  -3.307  0.00  0.00    +0.046 A 
ATOM     22  C   UNL     1       6.944  -3.146  -2.864  0.00  0.00    +0.123 A 
BRANCH  22  23
ATOM     23  O   UNL     1       7.965  -3.054  -3.756  0.00  0.00    -0.495 OA
ATOM     24  C   UNL     1       7.641  -3.238  -5.135  0.00  0.00    +0.277 C 
ENDBRANCH  22  23
ENDBRANCH   1  19
BRANCH  14  25
ATOM     25  C   UNL     1       3.491  -5.820  -0.408  0.00  0.00    -0.023 C 
BRANCH  25  26
ATOM     26  C   UNL     1       2.616  -6.863  -1.054  0.00  0.00    +0.010 A 
ATOM     27  C   UNL     1       2.687  -7.271  -2.336  0.00  0.00    +0.021 A 
ATOM     28  C   UNL     1       1.695  -8.256  -2.523  0.00  0.00    +0.020 A 
ATOM     29  C   UNL     1       1.049  -8.409  -1.351  0.00  0.00    +0.094 A 
ATOM     30  N   UNL     1       1.609  -7.556  -0.441  0.00  0.00    -0.291 N 
ATOM     31  C   UNL     1       1.218  -7.416   0.890  0.00  0.00    +0.235 A 
ATOM     32  N   UNL     1       1.856  -6.551   1.662  0.00  0.00    -0.220 NA
ATOM     33  C   UNL     1       1.508  -6.389   2.928  0.00  0.00    +0.116 A 
ATOM     34  C   UNL     1       0.469  -7.147   3.445  0.00  0.00    +0.039 A 
ATOM     35  C   UNL     1      -0.173  -8.047   2.609  0.00  0.00    +0.116 A 
ATOM     36  N   UNL     1       0.223  -8.155   1.352  0.00  0.00    -0.220 NA
ENDBRANCH  25  26
ENDBRANCH  14  25
TORSDOF 4
