REMARK  Name = ZINC23545491
REMARK  7 active torsions:
REMARK  status: ('A' for Active; 'I' for Inactive)
REMARK    1  A    between atoms: C_1  and  C_2
REMARK    2  A    between atoms: C_2  and  C_4
REMARK    3  A    between atoms: C_2  and  S_18
REMARK    4  A    between atoms: C_4  and  C_6
REMARK    5  A    between atoms: C_6  and  C_16
REMARK    6  A    between atoms: S_18  and  C_19
REMARK    7  A    between atoms: C_22  and  C_24
REMARK                            x       y       z     vdW  Elec       q    Type
REMARK                         _______ _______ _______ _____ _____    ______ ____
ROOT
ATOM      1  C   UNL     1      -4.470  -4.504  -1.418  0.00  0.00    +0.028 C 
ATOM      2  C   UNL     1      -4.203  -4.052   0.019  0.00  0.00    +0.124 C 
ENDROOT
BRANCH   2   3
ATOM      3  C   UNL     1      -3.181  -2.944   0.016  0.00  0.00    +0.189 C 
ATOM      4  O   UNL     1      -3.543  -1.784   0.026  0.00  0.00    -0.290 OA
BRANCH   3   5
ATOM      5  C   UNL     1      -1.811  -3.253   0.001  0.00  0.00    +0.123 C 
ATOM      6  C   UNL     1      -0.857  -2.218  -0.003  0.00  0.00    +0.091 C 
ATOM      7  N   UNL     1      -1.069  -0.876   0.007  0.00  0.00    -0.307 N 
ATOM      8  C   UNL     1       0.002  -0.004   0.002  0.00  0.00    +0.046 A 
ATOM      9  C   UNL     1      -0.017   1.400   0.010  0.00  0.00    +0.024 A 
ATOM     10  C   UNL     1       1.155   2.119   0.002  0.00  0.00    +0.002 A 
ATOM     11  C   UNL     1       2.386   1.485  -0.013  0.00  0.00    +0.001 A 
ATOM     12  C   UNL     1       2.434   0.102  -0.021  0.00  0.00    +0.017 A 
ATOM     13  C   UNL     1       1.263  -0.618  -0.013  0.00  0.00    +0.035 A 
ATOM     14  S   UNL     1       0.872  -2.349  -0.019  0.00  0.00    -0.071 S 
ATOM     15  H   UNL     1      -2.096  -0.482   0.019  0.00  0.00    +0.153 HD
BRANCH   5  16
ATOM     16  C   UNL     1      -1.385  -4.620  -0.012  0.00  0.00    +0.105 C 
ATOM     17  N   UNL     1      -1.047  -5.704  -0.021  0.00  0.00    -0.191 NA
ENDBRANCH   5  16
ENDBRANCH   3   5
ENDBRANCH   2   3
BRANCH   2  18
ATOM     18  S   UNL     1      -5.742  -3.452   0.759  0.00  0.00    -0.054 S 
BRANCH  18  19
ATOM     19  C   UNL     1      -6.677  -4.945   0.774  0.00  0.00    +0.278 A 
ATOM     20  N   UNL     1      -6.277  -6.117   0.339  0.00  0.00    -0.101 NA
ATOM     21  N   UNL     1      -7.215  -6.981   0.509  0.00  0.00    -0.106 NA
ATOM     22  C   UNL     1      -8.254  -6.394   1.051  0.00  0.00    +0.249 A 
ATOM     23  O   UNL     1      -7.936  -5.093   1.230  0.00  0.00    -0.411 OA
BRANCH  22  24
ATOM     24  C   UNL     1      -9.537  -7.036   1.401  0.00  0.00    +0.042 A 
ATOM     25  C   UNL     1     -10.563  -6.284   1.977  0.00  0.00    +0.017 A 
ATOM     26  C   UNL     1     -11.760  -6.886   2.302  0.00  0.00    +0.050 A 
ATOM     27  C   UNL     1     -11.951  -8.238   2.060  0.00  0.00    +0.166 A 
ATOM     28  C   UNL     1     -10.931  -8.995   1.485  0.00  0.00    +0.167 A 
ATOM     29  C   UNL     1      -9.730  -8.397   1.152  0.00  0.00    +0.062 A 
ATOM     30  O   UNL     1     -11.365 -10.283   1.353  0.00  0.00    -0.453 OA
ATOM     31  C   UNL     1     -12.799 -10.219   1.472  0.00  0.00    +0.466 C 
ATOM     32  O   UNL     1     -13.023  -9.053   2.286  0.00  0.00    -0.453 OA
ENDBRANCH  22  24
ENDBRANCH  18  19
ENDBRANCH   2  18
TORSDOF 6
