REMARK  Name = ZINC59888964
REMARK  14 active torsions:
REMARK  status: ('A' for Active; 'I' for Inactive)
REMARK    1  A    between atoms: C_1  and  C_2
REMARK    2  A    between atoms: C_2  and  C_3
REMARK    3  A    between atoms: C_3  and  C_30
REMARK    4  A    between atoms: N_4  and  N_5
REMARK    5  A    between atoms: C_8  and  S_11
REMARK    6  A    between atoms: S_11  and  C_12
REMARK    7  A    between atoms: C_12  and  C_13
REMARK    8  A    between atoms: N_15  and  C_16
REMARK    9  A    between atoms: C_19  and  S_22
REMARK   10  A    between atoms: S_22  and  N_25
REMARK   11  A    between atoms: N_25  and  C_26
REMARK   12  A    between atoms: C_26  and  C_27
REMARK   13  A    between atoms: C_26  and  C_28
REMARK   14  A    between atoms: C_26  and  C_29
REMARK                            x       y       z     vdW  Elec       q    Type
REMARK                         _______ _______ _______ _____ _____    ______ ____
ROOT
ATOM      1  C   UNL     1       7.924  -6.752   1.144  0.00  0.00    +0.227 C 
ATOM      2  O   UNL     1       8.060  -7.143   2.284  0.00  0.00    -0.275 OA
ATOM      3  N   UNL     1       9.004  -6.583   0.356  0.00  0.00    -0.285 N 
ATOM      4  H   UNL     1       8.890  -6.337  -0.576  0.00  0.00    +0.155 HD
ENDROOT
BRANCH   3   5
ATOM      5  C   UNL     1      10.288  -6.764   0.880  0.00  0.00    +0.034 A 
ATOM      6  C   UNL     1      11.335  -5.959   0.450  0.00  0.00    +0.025 A 
ATOM      7  C   UNL     1      12.602  -6.139   0.970  0.00  0.00    +0.030 A 
ATOM      8  C   UNL     1      12.828  -7.120   1.918  0.00  0.00    +0.105 A 
ATOM      9  C   UNL     1      11.788  -7.923   2.349  0.00  0.00    +0.030 A 
ATOM     10  C   UNL     1      10.518  -7.744   1.837  0.00  0.00    +0.025 A 
BRANCH   8  11
ATOM     11  S   UNL     1      14.446  -7.347   2.579  0.00  0.00    +0.059 S 
ATOM     12  O   UNL     1      14.418  -8.563   3.313  0.00  0.00    -0.153 OA
ATOM     13  O   UNL     1      15.356  -7.123   1.510  0.00  0.00    -0.153 OA
BRANCH  11  14
ATOM     14  N   UNL     1      14.700  -6.135   3.678  0.00  0.00    -0.185 NA
ATOM     15  H   UNL     1      15.291  -5.398   3.459  0.00  0.00    +0.149 HD
BRANCH  14  16
ATOM     16  C   UNL     1      14.032  -6.176   4.981  0.00  0.00    +0.032 C 
ATOM     17  C   UNL     1      14.579  -7.349   5.798  0.00  0.00    +0.029 C 
ATOM     18  C   UNL     1      14.293  -4.868   5.730  0.00  0.00    +0.029 C 
ATOM     19  C   UNL     1      12.527  -6.356   4.777  0.00  0.00    +0.029 C 
ENDBRANCH  14  16
ENDBRANCH  11  14
ENDBRANCH   8  11
ENDBRANCH   3   5
BRANCH   1  20
ATOM     20  C   UNL     1       6.547  -6.454   0.610  0.00  0.00    +0.173 C 
BRANCH  20  21
ATOM     21  S   UNL     1       5.314  -6.776   1.901  0.00  0.00    -0.075 S 
BRANCH  21  25
ATOM     22  N   UNL     1       0.284  -6.069   1.097  0.00  0.00    -0.205 N 
ATOM     23  C   UNL     1       1.645  -6.107   0.853  0.00  0.00    +0.232 A 
ATOM     24  N   UNL     1       2.575  -6.473   1.709  0.00  0.00    -0.186 NA
ATOM     25  C   UNL     1       3.778  -6.386   1.131  0.00  0.00    +0.211 A 
ATOM     26  N   UNL     1       3.629  -5.962  -0.101  0.00  0.00    -0.144 NA
ATOM     27  N   UNL     1       2.252  -5.779  -0.307  0.00  0.00    -0.245 N 
ATOM     28  H   UNL     1      -0.327  -5.787   0.398  0.00  0.00    +0.177 HD
ATOM     29  H   UNL     1       1.823  -5.475  -1.122  0.00  0.00    +0.192 HD
BRANCH  22  31
ATOM     30  C   UNL     1      -1.472  -6.403   2.580  0.00  0.00    +0.034 C 
ATOM     31  N   UNL     1      -0.213  -6.438   2.354  0.00  0.00    -0.189 NA
ATOM     32  C   UNL     1      -2.421  -5.965   1.494  0.00  0.00    +0.062 C 
BRANCH  30  34
ATOM     33  C   UNL     1      -2.648  -5.584   4.604  0.00  0.00    +0.010 C 
ATOM     34  C   UNL     1      -2.006  -6.800   3.932  0.00  0.00    +0.049 C 
ENDBRANCH  30  34
ENDBRANCH  22  31
ENDBRANCH  21  25
ENDBRANCH  20  21
ENDBRANCH   1  20
TORSDOF 9
