REMARK  Name = ZINC12403550
REMARK  11 active torsions:
REMARK  status: ('A' for Active; 'I' for Inactive)
REMARK    1  A    between atoms: C_1  and  C_2
REMARK    2  A    between atoms: C_2  and  C_3
REMARK    3  A    between atoms: C_2  and  C_4
REMARK    4  A    between atoms: C_2  and  C_5
REMARK    5  A    between atoms: C_8  and  O_12
REMARK    6  A    between atoms: O_12  and  C_13
REMARK    7  A    between atoms: C_13  and  C_14
REMARK    8  A    between atoms: N_16  and  N_17
REMARK    9  A    between atoms: N_17  and  C_18
REMARK   10  A    between atoms: C_18  and  N_20
REMARK   11  A    between atoms: C_21  and  C_23
REMARK                            x       y       z     vdW  Elec       q    Type
REMARK                         _______ _______ _______ _____ _____    ______ ____
ROOT
ATOM      1  C   UNL     1       4.617   4.023  -0.020  0.00  0.00    +0.267 C 
ATOM      2  O   UNL     1       5.675   3.431  -0.034  0.00  0.00    -0.271 OA
ATOM      3  N   UNL     1       3.459   3.333  -0.013  0.00  0.00    -0.232 N 
ATOM      4  H   UNL     1       2.612   3.807  -0.002  0.00  0.00    +0.173 HD
ENDROOT
BRANCH   3   5
ATOM      5  N   UNL     1       3.478   1.933  -0.021  0.00  0.00    -0.245 N 
ATOM      6  H   UNL     1       4.324   1.459  -0.031  0.00  0.00    +0.172 HD
BRANCH   5   7
ATOM      7  C   UNL     1       2.320   1.243  -0.013  0.00  0.00    +0.153 C 
ATOM      8  S   UNL     1       2.343  -0.469  -0.023  0.00  0.00    -0.017 S 
BRANCH   7   9
ATOM      9  N   UNL     1       1.143   1.901   0.001  0.00  0.00    -0.263 N 
ATOM     10  C   UNL     1      -0.014   1.211   0.009  0.00  0.00    +0.250 C 
ATOM     11  O   UNL     1       0.002  -0.004   0.002  0.00  0.00    -0.270 OA
ATOM     12  H   UNL     1       1.130   2.871   0.007  0.00  0.00    +0.157 HD
BRANCH  10  13
ATOM     13  C   UNL     1      -1.303   1.932   0.019  0.00  0.00    +0.037 A 
ATOM     14  C   UNL     1      -1.325   3.329   0.032  0.00  0.00    +0.016 A 
ATOM     15  C   UNL     1      -2.530   3.996   0.035  0.00  0.00    +0.039 A 
ATOM     16  C   UNL     1      -3.720   3.284   0.037  0.00  0.00    +0.123 A 
ATOM     17  C   UNL     1      -3.704   1.898   0.030  0.00  0.00    +0.039 A 
ATOM     18  C   UNL     1      -2.505   1.220   0.021  0.00  0.00    +0.016 A 
ATOM     19  F   UNL     1      -4.899   3.944   0.047  0.00  0.00    -0.205 F 
ENDBRANCH  10  13
ENDBRANCH   7   9
ENDBRANCH   5   7
ENDBRANCH   3   5
BRANCH   1  20
ATOM     20  C   UNL     1       4.596   5.530  -0.012  0.00  0.00    +0.326 C 
BRANCH  20  21
ATOM     21  O   UNL     1       5.937   6.025  -0.022  0.00  0.00    -0.482 OA
BRANCH  21  25
ATOM     22  C   UNL     1       6.422  10.122  -0.004  0.00  0.00    -0.041 A 
ATOM     23  C   UNL     1       5.151   9.577   0.005  0.00  0.00    +0.008 A 
ATOM     24  C   UNL     1       4.986   8.206  -0.002  0.00  0.00    +0.047 A 
ATOM     25  C   UNL     1       6.096   7.374  -0.017  0.00  0.00    +0.135 A 
ATOM     26  C   UNL     1       7.371   7.924  -0.020  0.00  0.00    +0.060 A 
ATOM     27  C   UNL     1       7.530   9.297  -0.018  0.00  0.00    +0.023 A 
ATOM     28 BR   UNL     1       8.888   6.795  -0.033  0.00  0.00    -0.047 Br
BRANCH  22  30
ATOM     29  C   UNL     1       5.953  12.202   1.263  0.00  0.00    +0.015 C 
ATOM     30  C   UNL     1       6.598  11.619   0.004  0.00  0.00    -0.013 C 
ATOM     31  C   UNL     1       8.090  11.956  -0.008  0.00  0.00    +0.015 C 
ATOM     32  C   UNL     1       5.930  12.217  -1.236  0.00  0.00    +0.015 C 
ENDBRANCH  22  30
ENDBRANCH  21  25
ENDBRANCH  20  21
ENDBRANCH   1  20
TORSDOF 8
