REMARK  Name = ZINC12389296
REMARK  5 active torsions:
REMARK  status: ('A' for Active; 'I' for Inactive)
REMARK    1  A    between atoms: C_1  and  O_2
REMARK    2  A    between atoms: O_2  and  C_3
REMARK    3  A    between atoms: C_6  and  C_9
REMARK    4  A    between atoms: C_14  and  C_23
REMARK    5  A    between atoms: C_26  and  O_29
REMARK                            x       y       z     vdW  Elec       q    Type
REMARK                         _______ _______ _______ _____ _____    ______ ____
ROOT
ATOM      1  C   UNL     1       4.894  -2.213  -3.911  0.00  0.00    +0.032 C 
ATOM      2  C   UNL     1       5.223  -0.737  -3.693  0.00  0.00    +0.059 C 
ATOM      3  C   UNL     1       5.067  -0.389  -2.221  0.00  0.00    +0.019 C 
ATOM      4  C   UNL     1       4.102  -0.950  -1.480  0.00  0.00    +0.037 C 
ATOM      5  C   UNL     1       3.711  -0.707  -0.037  0.00  0.00    +0.137 C 
ATOM      6  N   UNL     1       4.668   0.051   0.749  0.00  0.00    -0.313 N 
ATOM      7  C   UNL     1       5.015   1.339   0.343  0.00  0.00    +0.205 A 
ATOM      8  C   UNL     1       5.624   1.591  -0.956  0.00  0.00    +0.208 A 
ATOM      9  N   UNL     1       5.782   2.866  -1.106  0.00  0.00    -0.032 NA
ATOM     10  O   UNL     1       5.329   3.491   0.087  0.00  0.00    -0.239 OA
ATOM     11  N   UNL     1       4.872   2.469   0.962  0.00  0.00    -0.032 NA
ATOM     12  N   UNL     1       5.975   0.526  -1.774  0.00  0.00    -0.297 N 
ATOM     13  C   UNL     1       3.275  -1.946  -2.073  0.00  0.00    +0.163 C 
ATOM     14  O   UNL     1       2.390  -2.434  -1.398  0.00  0.00    -0.292 OA
ATOM     15  C   UNL     1       3.438  -2.422  -3.480  0.00  0.00    +0.088 C 
ATOM     16  H   UNL     1       5.061  -0.334   1.548  0.00  0.00    +0.149 HD
ATOM     17  H   UNL     1       6.903   0.429  -2.039  0.00  0.00    +0.153 HD
ENDROOT
BRANCH   1  21
ATOM     18  C   UNL     1       5.348  -3.216  -8.040  0.00  0.00    +0.120 A 
ATOM     19  C   UNL     1       6.076  -3.898  -7.075  0.00  0.00    +0.046 A 
ATOM     20  C   UNL     1       5.928  -3.571  -5.741  0.00  0.00    +0.007 A 
ATOM     21  C   UNL     1       5.054  -2.567  -5.367  0.00  0.00    -0.043 A 
ATOM     22  C   UNL     1       4.323  -1.890  -6.326  0.00  0.00    +0.007 A 
ATOM     23  C   UNL     1       4.472  -2.209  -7.662  0.00  0.00    +0.046 A 
BRANCH  18  25
ATOM     24  C   UNL     1       4.711  -2.792 -10.291  0.00  0.00    +0.277 C 
ATOM     25  O   UNL     1       5.493  -3.535  -9.353  0.00  0.00    -0.495 OA
ENDBRANCH  18  25
ENDBRANCH   1  21
BRANCH   5  26
ATOM     26  C   UNL     1       2.396   0.030  -0.021  0.00  0.00    -0.022 A 
ATOM     27  C   UNL     1       2.328   1.330  -0.488  0.00  0.00    +0.009 A 
ATOM     28  C   UNL     1       1.124   2.007  -0.475  0.00  0.00    +0.046 A 
ATOM     29  C   UNL     1      -0.017   1.383   0.008  0.00  0.00    +0.117 A 
ATOM     30  C   UNL     1       0.054   0.079   0.476  0.00  0.00    +0.046 A 
ATOM     31  C   UNL     1       1.260  -0.594   0.461  0.00  0.00    +0.009 A 
BRANCH  29  32
ATOM     32  O   UNL     1      -1.201   2.049   0.027  0.00  0.00    -0.507 OA
ATOM     33  H   UNL     1      -1.724   1.945  -0.779  0.00  0.00    +0.292 HD
ENDBRANCH  29  32
ENDBRANCH   5  26
TORSDOF 4
