REMARK  Name = ZINC39324854
REMARK  12 active torsions:
REMARK  status: ('A' for Active; 'I' for Inactive)
REMARK    1  A    between atoms: C_1  and  C_2
REMARK    2  A    between atoms: C_2  and  C_3
REMARK    3  A    between atoms: C_10  and  C_15
REMARK    4  A    between atoms: C_15  and  N_16
REMARK    5  A    between atoms: N_16  and  C_17
REMARK    6  A    between atoms: N_16  and  S_26
REMARK    7  A    between atoms: C_17  and  C_18
REMARK    8  A    between atoms: C_21  and  O_24
REMARK    9  A    between atoms: O_24  and  C_25
REMARK   10  A    between atoms: S_26  and  C_29
REMARK   11  A    between atoms: C_33  and  C_35
REMARK   12  A    between atoms: C_35  and  C_37
REMARK                            x       y       z     vdW  Elec       q    Type
REMARK                         _______ _______ _______ _____ _____    ______ ____
ROOT
ATOM      1  N   UNL     1       6.651  -1.495  -5.117  0.00  0.00    -0.171 NA
ENDROOT
BRANCH   1   2
ATOM      2  S   UNL     1       7.950  -2.386  -4.608  0.00  0.00    +0.061 S 
ATOM      3  O   UNL     1       8.919  -2.322  -5.646  0.00  0.00    -0.153 OA
ATOM      4  O   UNL     1       8.231  -1.972  -3.278  0.00  0.00    -0.153 OA
BRANCH   2   5
ATOM      5  C   UNL     1       7.426  -4.066  -4.512  0.00  0.00    +0.106 A 
ATOM      6  C   UNL     1       6.883  -4.553  -3.336  0.00  0.00    +0.028 A 
ATOM      7  C   UNL     1       6.468  -5.871  -3.251  0.00  0.00    +0.003 A 
ATOM      8  C   UNL     1       6.592  -6.708  -4.339  0.00  0.00    +0.011 A 
ATOM      9  C   UNL     1       7.139  -6.223  -5.531  0.00  0.00    +0.019 A 
ATOM     10  C   UNL     1       7.551  -4.889  -5.611  0.00  0.00    +0.040 A 
BRANCH   9  11
ATOM     11  C   UNL     1       7.276  -7.111  -6.697  0.00  0.00    +0.160 C 
ATOM     12  O   UNL     1       7.750  -6.687  -7.729  0.00  0.00    -0.292 OA
ATOM     13  C   UNL     1       6.825  -8.546  -6.608  0.00  0.00    +0.091 C 
ENDBRANCH   9  11
ENDBRANCH   2   5
ENDBRANCH   1   2
BRANCH   1  14
ATOM     14  C   UNL     1       5.803  -0.811  -4.138  0.00  0.00    +0.126 C 
BRANCH  14  22
ATOM     15  C   UNL     1       0.707  -0.240  -1.353  0.00  0.00    -0.047 A 
ATOM     16  C   UNL     1      -0.008  -0.666  -2.473  0.00  0.00    +0.005 A 
ATOM     17  C   UNL     1       0.590  -1.241  -3.549  0.00  0.00    +0.024 A 
ATOM     18  C   UNL     1       1.984  -1.431  -3.575  0.00  0.00    +0.040 A 
ATOM     19  N   UNL     1       2.560  -1.995  -4.636  0.00  0.00    -0.284 N 
ATOM     20  C   UNL     1       3.863  -2.204  -4.725  0.00  0.00    +0.225 C 
ATOM     21  O   UNL     1       4.332  -2.723  -5.720  0.00  0.00    -0.275 OA
ATOM     22  C   UNL     1       4.768  -1.793  -3.585  0.00  0.00    +0.114 C 
ATOM     23  C   UNL     1       4.117  -1.150  -2.376  0.00  0.00    -0.003 C 
ATOM     24  C   UNL     1       2.764  -0.990  -2.405  0.00  0.00    -0.007 A 
ATOM     25  C   UNL     1       2.056  -0.374  -1.282  0.00  0.00    +0.013 A 
ATOM     26  H   UNL     1       1.997  -2.266  -5.378  0.00  0.00    +0.155 HD
BRANCH  15  28
ATOM     27  C   UNL     1      -0.123   1.901  -0.416  0.00  0.00    +0.009 C 
ATOM     28  C   UNL     1      -0.034   0.389  -0.201  0.00  0.00    +0.032 C 
ENDBRANCH  15  28
ENDBRANCH  14  22
ENDBRANCH   1  14
BRANCH   1  29
ATOM     29  C   UNL     1       6.349  -1.391  -6.547  0.00  0.00    +0.144 C 
BRANCH  29  30
ATOM     30  C   UNL     1       7.000  -0.154  -7.109  0.00  0.00    -0.031 A 
ATOM     31  C   UNL     1       6.316   1.047  -7.108  0.00  0.00    +0.008 A 
ATOM     32  C   UNL     1       6.910   2.183  -7.623  0.00  0.00    +0.046 A 
ATOM     33  C   UNL     1       8.195   2.117  -8.142  0.00  0.00    +0.120 A 
ATOM     34  C   UNL     1       8.880   0.911  -8.142  0.00  0.00    +0.046 A 
ATOM     35  C   UNL     1       8.283  -0.221  -7.621  0.00  0.00    +0.008 A 
BRANCH  33  36
ATOM     36  O   UNL     1       8.782   3.233  -8.649  0.00  0.00    -0.495 OA
ATOM     37  C   UNL     1      10.106   3.091  -9.167  0.00  0.00    +0.277 C 
ENDBRANCH  33  36
ENDBRANCH  29  30
ENDBRANCH   1  29
TORSDOF 9
