REMARK  Name = ZINC39676181
REMARK  7 active torsions:
REMARK  status: ('A' for Active; 'I' for Inactive)
REMARK    1  A    between atoms: C_1  and  C_2
REMARK    2  A    between atoms: C_2  and  O_4
REMARK    3  A    between atoms: O_4  and  C_5
REMARK    4  A    between atoms: C_10  and  C_11
REMARK    5  A    between atoms: C_15  and  C_24
REMARK    6  A    between atoms: N_26  and  C_27
REMARK    7  A    between atoms: C_27  and  C_28
REMARK                            x       y       z     vdW  Elec       q    Type
REMARK                         _______ _______ _______ _____ _____    ______ ____
ROOT
ATOM      1  C   UNL     1       0.138  -2.181  -3.483  0.00  0.00    +0.250 C 
ATOM      2  O   UNL     1       0.206  -0.972  -3.583  0.00  0.00    -0.270 OA
ATOM      3  N   UNL     1       0.110  -2.949  -4.590  0.00  0.00    -0.296 N 
ATOM      4  C   UNL     1       0.092  -4.429  -4.670  0.00  0.00    +0.121 C 
ATOM      5  C   UNL     1      -0.879  -4.745  -5.829  0.00  0.00    +0.100 C 
ATOM      6  C   UNL     1      -0.873  -3.479  -6.702  0.00  0.00    -0.004 C 
ATOM      7  C   UNL     1       0.085  -2.504  -6.004  0.00  0.00    +0.115 C 
ATOM      8  C   UNL     1      -2.273  -2.877  -6.769  0.00  0.00    -0.010 C 
ATOM      9  C   UNL     1      -2.254  -1.653  -7.689  0.00  0.00    -0.082 C 
ATOM     10  N   UNL     1      -1.807  -2.052  -9.028  0.00  0.00    +0.379 N 
ATOM     11  C   UNL     1      -0.425  -2.544  -8.970  0.00  0.00    -0.082 C 
ATOM     12  C   UNL     1      -0.367  -3.806  -8.104  0.00  0.00    -0.010 C 
ATOM     13  H   UNL     1      -2.408  -2.782  -9.378  0.00  0.00    -0.086 HD
ATOM     14  H   UNL     1      -1.853  -1.256  -9.648  0.00  0.00    -0.086 HD
ENDROOT
BRANCH   1  20
ATOM     15  C   UNL     1      -0.608  -2.186  -1.103  0.00  0.00    +0.144 A 
ATOM     16  C   UNL     1      -0.656  -2.788   0.145  0.00  0.00    +0.047 A 
ATOM     17  C   UNL     1      -0.017  -3.993   0.358  0.00  0.00    +0.004 A 
ATOM     18  C   UNL     1       0.675  -4.610  -0.672  0.00  0.00    +0.001 A 
ATOM     19  C   UNL     1       0.732  -4.026  -1.919  0.00  0.00    +0.017 A 
ATOM     20  C   UNL     1       0.086  -2.809  -2.148  0.00  0.00    +0.079 A 
BRANCH  15  21
ATOM     21  O   UNL     1      -1.236  -1.001  -1.313  0.00  0.00    -0.425 OA
BRANCH  21  23
ATOM     22  C   UNL     1      -3.279   0.255  -1.902  0.00  0.00    +0.136 C 
ATOM     23  C   UNL     1      -2.502  -1.028  -1.761  0.00  0.00    +0.309 C 
ATOM     24  O   UNL     1      -3.017  -2.082  -2.052  0.00  0.00    -0.251 OA
ENDBRANCH  21  23
ENDBRANCH  15  21
ENDBRANCH   1  20
BRANCH   5  25
ATOM     25  C   UNL     1      -2.263  -5.012  -5.297  0.00  0.00    +0.219 C 
ATOM     26  O   UNL     1      -2.667  -4.407  -4.327  0.00  0.00    -0.275 OA
ATOM     27  N   UNL     1      -3.052  -5.924  -5.899  0.00  0.00    -0.308 N 
ATOM     28  H   UNL     1      -2.729  -6.408  -6.675  0.00  0.00    +0.149 HD
BRANCH  27  29
ATOM     29  C   UNL     1      -4.398  -6.183  -5.382  0.00  0.00    +0.178 C 
BRANCH  29  30
ATOM     30  C   UNL     1      -5.067  -7.237  -6.227  0.00  0.00    +0.128 A 
ATOM     31  N   UNL     1      -6.332  -7.613  -5.907  0.00  0.00    -0.309 N 
ATOM     32  H   UNL     1      -6.778  -7.202  -5.149  0.00  0.00    +0.170 HD
ATOM     33  C   UNL     1      -6.977  -8.554  -6.634  0.00  0.00    +0.259 A 
ATOM     34  O   UNL     1      -8.111  -8.900  -6.359  0.00  0.00    -0.267 OA
ATOM     35  C   UNL     1      -6.253  -9.143  -7.771  0.00  0.00    +0.065 A 
ATOM     36  C   UNL     1      -6.827 -10.120  -8.583  0.00  0.00    +0.015 A 
ATOM     37  C   UNL     1      -6.103 -10.638  -9.635  0.00  0.00    +0.001 A 
ATOM     38  C   UNL     1      -4.812 -10.195  -9.890  0.00  0.00    +0.002 A 
ATOM     39  C   UNL     1      -4.228  -9.232  -9.100  0.00  0.00    +0.028 A 
ATOM     40  C   UNL     1      -4.941  -8.691  -8.028  0.00  0.00    +0.078 A 
ATOM     41  N   UNL     1      -4.405  -7.735  -7.227  0.00  0.00    -0.232 NA
ENDBRANCH  29  30
ENDBRANCH  27  29
ENDBRANCH   5  25
TORSDOF 6
