REMARK  Name = ZINC12883164
REMARK  6 active torsions:
REMARK  status: ('A' for Active; 'I' for Inactive)
REMARK    1  A    between atoms: C_1  and  C_2
REMARK    2  A    between atoms: C_13  and  C_15
REMARK    3  A    between atoms: C_15  and  C_17
REMARK    4  A    between atoms: C_15  and  O_18
REMARK    5  A    between atoms: N_21  and  C_24
REMARK    6  A    between atoms: C_24  and  C_25
REMARK                            x       y       z     vdW  Elec       q    Type
REMARK                         _______ _______ _______ _____ _____    ______ ____
ROOT
ATOM      1  C   UNL     1      -0.372  -7.506   8.116  0.00  0.00    +0.044 C 
ATOM      2  C   UNL     1      -0.392  -7.794   6.636  0.00  0.00    -0.050 A 
ATOM      3  C   UNL     1      -1.369  -8.615   6.103  0.00  0.00    +0.005 A 
ATOM      4  C   UNL     1      -1.392  -8.883   4.750  0.00  0.00    +0.024 A 
ATOM      5  C   UNL     1      -0.431  -8.326   3.909  0.00  0.00    +0.036 A 
ATOM      6  C   UNL     1       0.547  -7.501   4.457  0.00  0.00    -0.027 A 
ATOM      7  C   UNL     1       0.567  -7.237   5.808  0.00  0.00    +0.008 A 
ATOM      8  C   UNL     1       1.413  -7.072   3.306  0.00  0.00    +0.050 C 
ATOM      9  C   UNL     1       1.437  -5.546   3.155  0.00  0.00    +0.088 C 
ATOM     10  C   UNL     1       2.884  -5.222   2.690  0.00  0.00    +0.075 C 
ATOM     11  C   UNL     1       3.585  -6.594   2.590  0.00  0.00    -0.028 C 
ATOM     12  C   UNL     1       2.687  -4.669   1.297  0.00  0.00    +0.224 C 
ATOM     13  O   UNL     1       3.572  -4.287   0.562  0.00  0.00    -0.275 OA
ATOM     14  N   UNL     1       1.382  -4.663   1.003  0.00  0.00    -0.237 N 
ATOM     15  C   UNL     1       0.590  -5.136   1.972  0.00  0.00    +0.225 C 
ATOM     16  O   UNL     1      -0.617  -5.222   1.912  0.00  0.00    -0.275 OA
ATOM     17  C   UNL     1       0.813  -7.735   2.096  0.00  0.00    +0.211 C 
ATOM     18  O   UNL     1       1.207  -7.648   0.952  0.00  0.00    -0.277 OA
ATOM     19  N   UNL     1      -0.247  -8.444   2.530  0.00  0.00    -0.286 N 
ATOM     20  H   UNL     1      -0.817  -8.975   1.952  0.00  0.00    +0.155 HD
ATOM     21  N   UNL     1       2.803  -7.456   3.480  0.00  0.00    +0.396 N 
ATOM     22  H   UNL     1       2.933  -8.442   3.224  0.00  0.00    -0.083 HD
ATOM     23  H   UNL     1       3.091  -7.314   4.455  0.00  0.00    -0.083 HD
ENDROOT
BRANCH  11  24
ATOM     24  C   UNL     1       5.039  -6.485   3.054  0.00  0.00    +0.098 C 
ATOM     25  C   UNL     1       5.690  -7.869   3.020  0.00  0.00    +0.036 C 
BRANCH  24  26
ATOM     26  O   UNL     1       5.751  -5.602   2.185  0.00  0.00    -0.394 OA
ATOM     27  H   UNL     1       6.682  -5.485   2.420  0.00  0.00    +0.210 HD
ENDBRANCH  24  26
ENDBRANCH  11  24
BRANCH  14  28
ATOM     28  C   UNL     1       0.862  -4.184  -0.280  0.00  0.00    +0.151 C 
BRANCH  28  29
ATOM     29  C   UNL     1       0.561  -2.711  -0.182  0.00  0.00    -0.026 A 
ATOM     30  C   UNL     1      -0.692  -2.288   0.221  0.00  0.00    +0.009 A 
ATOM     31  C   UNL     1      -0.973  -0.938   0.314  0.00  0.00    +0.050 A 
ATOM     32  C   UNL     1       0.002  -0.004   0.002  0.00  0.00    +0.166 A 
ATOM     33  C   UNL     1       1.264  -0.430  -0.404  0.00  0.00    +0.167 A 
ATOM     34  C   UNL     1       1.538  -1.785  -0.495  0.00  0.00    +0.054 A 
ATOM     35  O   UNL     1       2.037   0.668  -0.651  0.00  0.00    -0.453 OA
ATOM     36  C   UNL     1       1.366   1.764  -0.002  0.00  0.00    +0.466 C 
ATOM     37  O   UNL     1      -0.016   1.361   0.009  0.00  0.00    -0.453 OA
ENDBRANCH  28  29
ENDBRANCH  14  28
TORSDOF 4
