REMARK  Name = ZINC39467417
REMARK  4 active torsions:
REMARK  status: ('A' for Active; 'I' for Inactive)
REMARK    1  A    between atoms: C_4  and  C_7
REMARK    2  A    between atoms: C_7  and  C_8
REMARK    3  A    between atoms: P_24  and  C_27
REMARK    4  A    between atoms: C_32  and  O_33
REMARK                            x       y       z     vdW  Elec       q    Type
REMARK                         _______ _______ _______ _____ _____    ______ ____
ROOT
ATOM      1  C   UNL     1       4.120  -1.075   1.366  0.00  0.00    -0.033 C 
ATOM      2  C   UNL     1       3.859  -2.293   1.842  0.00  0.00    -0.020 C 
ATOM      3  C   UNL     1       4.292  -2.630   3.242  0.00  0.00    +0.005 C 
ATOM      4  C   UNL     1       4.438  -4.134   3.440  0.00  0.00    -0.046 C 
ATOM      5  N   UNL     1       4.820  -4.417   4.835  0.00  0.00    +0.398 N 
ATOM      6  C   UNL     1       6.092  -3.785   5.180  0.00  0.00    -0.020 C 
ATOM      7  C   UNL     1       6.035  -2.267   4.958  0.00  0.00    -0.003 C 
ATOM      8  C   UNL     1       5.658  -1.984   3.507  0.00  0.00    +0.017 C 
ATOM      9  C   UNL     1       5.555  -0.507   3.243  0.00  0.00    -0.008 C 
ATOM     10  C   UNL     1       4.815  -0.091   2.215  0.00  0.00    +0.017 C 
ATOM     11 BR   UNL     1       4.653   1.758   1.854  0.00  0.00    -0.050 Br
ATOM     12  C   UNL     1       6.440  -3.996   6.660  0.00  0.00    +0.157 C 
ATOM     13  O   UNL     1       6.586  -5.404   6.919  0.00  0.00    -0.316 OA
ATOM     14  P   UNL     1       5.396  -6.394   6.415  0.00  0.00    +0.291 P 
ATOM     15  O   UNL     1       4.271  -6.373   7.376  0.00  0.00    -0.269 OA
ATOM     16  N   UNL     1       4.921  -5.789   4.937  0.00  0.00    -0.288 NA
ATOM     17  H   UNL     1       4.709  -6.365   4.186  0.00  0.00    +0.111 HD
ATOM     18  H   UNL     1       4.097  -4.086   5.456  0.00  0.00    -0.055 HD
ENDROOT
BRANCH  14  19
ATOM     19  C   UNL     1       6.024  -8.084   6.221  0.00  0.00    +0.091 A 
ATOM     20  C   UNL     1       6.554  -8.491   5.012  0.00  0.00    +0.018 A 
ATOM     21  C   UNL     1       7.032  -9.779   4.863  0.00  0.00    +0.001 A 
ATOM     22  C   UNL     1       6.983 -10.664   5.924  0.00  0.00    +0.004 A 
ATOM     23  C   UNL     1       6.455 -10.263   7.136  0.00  0.00    +0.046 A 
ATOM     24  C   UNL     1       5.979  -8.968   7.289  0.00  0.00    +0.131 A 
BRANCH  24  25
ATOM     25  O   UNL     1       5.464  -8.569   8.482  0.00  0.00    -0.506 OA
ATOM     26  H   UNL     1       4.513  -8.722   8.571  0.00  0.00    +0.292 HD
ENDBRANCH  24  25
ENDBRANCH  14  19
BRANCH   1  27
ATOM     27  C   UNL     1       3.711  -0.707  -0.038  0.00  0.00    +0.071 C 
BRANCH  27  31
ATOM     28  C   UNL     1       6.988  -1.369  -2.697  0.00  0.00    +0.000 A 
ATOM     29  C   UNL     1       6.146  -2.414  -2.364  0.00  0.00    +0.000 A 
ATOM     30  C   UNL     1       5.085  -2.200  -1.503  0.00  0.00    +0.004 A 
ATOM     31  C   UNL     1       4.868  -0.941  -0.975  0.00  0.00    -0.043 A 
ATOM     32  C   UNL     1       5.710   0.103  -1.307  0.00  0.00    +0.004 A 
ATOM     33  C   UNL     1       6.770  -0.111  -2.169  0.00  0.00    +0.000 A 
ENDBRANCH  27  31
ENDBRANCH   1  27
TORSDOF 4
