REMARK  Name = ZINC39684134
REMARK  7 active torsions:
REMARK  status: ('A' for Active; 'I' for Inactive)
REMARK    1  A    between atoms: C_1  and  C_2
REMARK    2  A    between atoms: C_7  and  C_11
REMARK    3  A    between atoms: C_11  and  C_12
REMARK    4  A    between atoms: C_12  and  N_13
REMARK    5  A    between atoms: C_14  and  C_16
REMARK    6  A    between atoms: C_27  and  C_29
REMARK    7  A    between atoms: C_29  and  C_35
REMARK                            x       y       z     vdW  Elec       q    Type
REMARK                         _______ _______ _______ _____ _____    ______ ____
ROOT
ATOM      1  C   UNL     1      -9.028   2.168  -6.434  0.00  0.00    +0.100 C 
ATOM      2  C   UNL     1      -8.239   3.173  -7.304  0.00  0.00    +0.121 C 
ATOM      3  N   UNL     1      -7.892   2.415  -8.529  0.00  0.00    -0.300 N 
ATOM      4  C   UNL     1      -9.099   1.604  -8.816  0.00  0.00    +0.115 C 
ATOM      5  C   UNL     1      -9.593   1.142  -7.431  0.00  0.00    -0.004 C 
ATOM      6  C   UNL     1     -11.118   1.147  -7.386  0.00  0.00    -0.010 C 
ATOM      7  C   UNL     1     -11.656   0.078  -8.342  0.00  0.00    -0.082 C 
ATOM      8  N   UNL     1     -11.139  -1.238  -7.949  0.00  0.00    +0.379 N 
ATOM      9  C   UNL     1      -9.678  -1.263  -8.085  0.00  0.00    -0.082 C 
ATOM     10  C   UNL     1      -9.056  -0.251  -7.117  0.00  0.00    -0.010 C 
ATOM     11  C   UNL     1      -6.739   2.455  -9.226  0.00  0.00    +0.222 C 
ATOM     12  O   UNL     1      -5.806   3.116  -8.818  0.00  0.00    -0.275 OA
ATOM     13  H   UNL     1     -11.390  -1.423  -6.989  0.00  0.00    -0.086 HD
ATOM     14  H   UNL     1     -11.543  -1.947  -8.542  0.00  0.00    -0.086 HD
ENDROOT
BRANCH  11  15
ATOM     15  C   UNL     1      -6.607   1.680 -10.511  0.00  0.00    +0.044 C 
ATOM     16  C   UNL     1      -6.652   0.181 -10.209  0.00  0.00    +0.016 C 
ATOM     17  C   UNL     1      -5.499  -0.185  -9.272  0.00  0.00    +0.001 C 
ATOM     18  C   UNL     1      -4.168   0.160  -9.943  0.00  0.00    +0.000 C 
ATOM     19  C   UNL     1      -4.123   1.659 -10.245  0.00  0.00    +0.001 C 
ATOM     20  C   UNL     1      -5.276   2.025 -11.182  0.00  0.00    +0.016 C 
ATOM     21  C   UNL     1      -7.760   2.046 -11.448  0.00  0.00    +0.021 C 
ENDBRANCH  11  15
BRANCH   1  23
ATOM     22  N   UNL     1      -8.587   1.065  -4.264  0.00  0.00    -0.315 N 
ATOM     23  C   UNL     1      -8.108   1.491  -5.450  0.00  0.00    +0.218 C 
ATOM     24  O   UNL     1      -6.938   1.331  -5.725  0.00  0.00    -0.275 OA
ATOM     25  H   UNL     1      -9.523   1.193  -4.045  0.00  0.00    +0.149 HD
BRANCH  22  26
ATOM     26  C   UNL     1      -7.694   0.407  -3.308  0.00  0.00    +0.109 C 
BRANCH  26  27
ATOM     27  C   UNL     1      -8.482   0.025  -2.053  0.00  0.00    +0.056 C 
BRANCH  27  34
ATOM     28  C   UNL     1      -4.411  -1.787   2.359  0.00  0.00    +0.046 C 
ATOM     29  C   UNL     1      -5.132  -0.697   1.609  0.00  0.00    -0.027 A 
ATOM     30  C   UNL     1      -4.900   0.625   1.919  0.00  0.00    +0.005 A 
ATOM     31  C   UNL     1      -5.558   1.639   1.237  0.00  0.00    +0.001 A 
ATOM     32  C   UNL     1      -6.448   1.342   0.243  0.00  0.00    +0.010 A 
ATOM     33  C   UNL     1      -6.698   0.009  -0.088  0.00  0.00    +0.003 A 
ATOM     34  C   UNL     1      -7.563  -0.651  -1.069  0.00  0.00    -0.021 A 
ATOM     35  C   UNL     1      -7.381  -1.974  -0.925  0.00  0.00    +0.087 A 
ATOM     36  N   UNL     1      -6.471  -2.214   0.068  0.00  0.00    -0.360 N 
ATOM     37  C   UNL     1      -6.029  -1.022   0.597  0.00  0.00    +0.050 A 
ATOM     38  H   UNL     1      -6.178  -3.093   0.355  0.00  0.00    +0.165 HD
ENDBRANCH  27  34
ENDBRANCH  26  27
ENDBRANCH  22  26
ENDBRANCH   1  23
TORSDOF 5
