REMARK  Name = ZINC18589973
REMARK  10 active torsions:
REMARK  status: ('A' for Active; 'I' for Inactive)
REMARK    1  A    between atoms: C_1  and  C_2
REMARK    2  A    between atoms: C_2  and  O_3
REMARK    3  A    between atoms: O_3  and  C_4
REMARK    4  A    between atoms: C_9  and  C_10
REMARK    5  A    between atoms: C_13  and  S_15
REMARK    6  A    between atoms: S_15  and  C_16
REMARK    7  A    between atoms: C_16  and  C_18
REMARK    8  A    between atoms: C_16  and  C_19
REMARK    9  A    between atoms: C_31  and  C_32
REMARK   10  A    between atoms: C_31  and  C_33
REMARK                            x       y       z     vdW  Elec       q    Type
REMARK                         _______ _______ _______ _____ _____    ______ ____
ROOT
ATOM      1  C   UNL     1       1.251  -0.736   3.604  0.00  0.00    +0.139 C 
ATOM      2  C   UNL     1       0.276  -1.807   4.098  0.00  0.00    +0.029 C 
ENDROOT
BRANCH   1   3
ATOM      3  C   UNL     1       0.619   0.038   2.477  0.00  0.00    +0.234 C 
ATOM      4  O   UNL     1       0.612  -0.421   1.355  0.00  0.00    -0.274 OA
ATOM      5  N   UNL     1       0.060   1.242   2.716  0.00  0.00    -0.255 N 
ATOM      6  C   UNL     1       0.061   1.798   4.005  0.00  0.00    +0.059 A 
ATOM      7  C   UNL     1       0.051   0.993   5.130  0.00  0.00    +0.025 A 
ATOM      8  C   UNL     1       0.049   1.571   6.387  0.00  0.00    +0.002 A 
ATOM      9  C   UNL     1       0.056   2.948   6.519  0.00  0.00    +0.002 A 
ATOM     10  C   UNL     1       0.068   3.757   5.399  0.00  0.00    +0.025 A 
ATOM     11  C   UNL     1       0.072   3.187   4.136  0.00  0.00    +0.055 A 
ATOM     12  N   UNL     1       0.089   3.988   2.989  0.00  0.00    -0.282 N 
ATOM     13  C   UNL     1      -0.184   3.465   1.779  0.00  0.00    +0.241 C 
ATOM     14  O   UNL     1      -0.121   4.168   0.793  0.00  0.00    -0.273 OA
ATOM     15  C   UNL     1      -0.569   2.014   1.635  0.00  0.00    +0.113 C 
ATOM     16  C   UNL     1      -0.086   1.489   0.282  0.00  0.00    +0.042 C 
ATOM     17  C   UNL     1      -2.090   1.875   1.725  0.00  0.00    +0.042 C 
ATOM     18  H   UNL     1       0.301   4.932   3.066  0.00  0.00    +0.155 HD
ENDBRANCH   1   3
BRANCH   1  19
ATOM     19  S   UNL     1       2.769  -1.527   3.016  0.00  0.00    -0.053 S 
BRANCH  19  23
ATOM     20  C   UNL     1       4.552  -3.254   5.998  0.00  0.00    +0.253 A 
ATOM     21  N   UNL     1       3.494  -2.739   6.578  0.00  0.00    -0.106 NA
ATOM     22  N   UNL     1       2.785  -2.119   5.702  0.00  0.00    -0.101 NA
ATOM     23  C   UNL     1       3.362  -2.213   4.526  0.00  0.00    +0.278 A 
ATOM     24  O   UNL     1       4.488  -2.936   4.686  0.00  0.00    -0.411 OA
BRANCH  20  30
ATOM     25  C   UNL     1       5.549  -4.300   8.031  0.00  0.00    +0.133 A 
ATOM     26  C   UNL     1       6.550  -5.039   8.639  0.00  0.00    +0.046 A 
ATOM     27  C   UNL     1       7.609  -5.519   7.891  0.00  0.00    +0.004 A 
ATOM     28  C   UNL     1       7.677  -5.265   6.532  0.00  0.00    +0.001 A 
ATOM     29  C   UNL     1       6.685  -4.535   5.911  0.00  0.00    +0.017 A 
ATOM     30  C   UNL     1       5.614  -4.040   6.656  0.00  0.00    +0.080 A 
BRANCH  25  31
ATOM     31  O   UNL     1       4.508  -3.828   8.765  0.00  0.00    -0.491 OA
BRANCH  31  33
ATOM     32  C   UNL     1       3.268  -3.521  10.817  0.00  0.00    +0.048 C 
ATOM     33  C   UNL     1       4.509  -4.131  10.162  0.00  0.00    +0.226 C 
ENDBRANCH  31  33
ENDBRANCH  25  31
ENDBRANCH  20  30
ENDBRANCH  19  23
ENDBRANCH   1  19
TORSDOF 6
