REMARK  Name = ZINC39729577
REMARK  9 active torsions:
REMARK  status: ('A' for Active; 'I' for Inactive)
REMARK    1  A    between atoms: C_1  and  C_2
REMARK    2  A    between atoms: C_2  and  C_10
REMARK    3  A    between atoms: C_3  and  C_4
REMARK    4  A    between atoms: N_11  and  N_12
REMARK    5  A    between atoms: N_14  and  C_30
REMARK    6  A    between atoms: C_17  and  C_20
REMARK    7  A    between atoms: C_20  and  C_21
REMARK    8  A    between atoms: N_23  and  C_24
REMARK    9  A    between atoms: C_33  and  O_36
REMARK                            x       y       z     vdW  Elec       q    Type
REMARK                         _______ _______ _______ _____ _____    ______ ____
ROOT
ATOM      1  N   UNL     1       0.291  -0.927  -3.663  0.00  0.00    -0.126 NA
ATOM      2  C   UNL     1       0.246  -0.302  -4.824  0.00  0.00    +0.190 C 
ATOM      3  N   UNL     1       0.582   1.007  -5.100  0.00  0.00    -0.217 N 
ATOM      4  C   UNL     1       0.491   1.521  -6.315  0.00  0.00    +0.239 C 
ATOM      5  O   UNL     1       0.788   2.673  -6.550  0.00  0.00    -0.274 OA
ATOM      6  C   UNL     1      -0.008   0.578  -7.398  0.00  0.00    +0.149 C 
ATOM      7  S   UNL     1      -0.259  -0.954  -6.409  0.00  0.00    -0.075 S 
ENDROOT
BRANCH   3   8
ATOM      8  C   UNL     1       1.036   1.823  -4.054  0.00  0.00    +0.043 A 
ATOM      9  C   UNL     1       2.356   2.252  -4.031  0.00  0.00    +0.027 A 
ATOM     10  C   UNL     1       2.803   3.055  -3.000  0.00  0.00    +0.047 A 
ATOM     11  C   UNL     1       1.932   3.434  -1.988  0.00  0.00    +0.117 A 
ATOM     12  C   UNL     1       0.613   3.005  -2.011  0.00  0.00    +0.047 A 
ATOM     13  C   UNL     1       0.164   2.206  -3.044  0.00  0.00    +0.027 A 
BRANCH  11  14
ATOM     14  O   UNL     1       2.372   4.225  -0.974  0.00  0.00    -0.507 OA
ATOM     15  H   UNL     1       2.275   5.172  -1.143  0.00  0.00    +0.292 HD
ENDBRANCH  11  14
ENDBRANCH   3   8
BRANCH   1  17
ATOM     16  C   UNL     1       0.874  -0.971  -1.488  0.00  0.00    +0.138 C 
ATOM     17  N   UNL     1       0.801  -0.339  -2.634  0.00  0.00    -0.155 NA
BRANCH  16  19
ATOM     18  C   UNL     1       2.243   0.946  -0.570  0.00  0.00    +0.045 C 
ATOM     19  C   UNL     1       1.546  -0.379  -0.397  0.00  0.00    -0.030 C 
ATOM     20  C   UNL     1       1.563  -0.999   0.804  0.00  0.00    +0.012 C 
BRANCH  20  21
ATOM     21  C   UNL     1       2.124  -0.314   1.979  0.00  0.00    -0.025 A 
ATOM     22  C   UNL     1       1.999   1.074   2.109  0.00  0.00    +0.008 A 
ATOM     23  C   UNL     1       2.527   1.709   3.213  0.00  0.00    +0.001 A 
ATOM     24  C   UNL     1       3.180   0.977   4.190  0.00  0.00    +0.000 A 
ATOM     25  C   UNL     1       3.308  -0.395   4.068  0.00  0.00    +0.001 A 
ATOM     26  C   UNL     1       2.780  -1.046   2.974  0.00  0.00    +0.008 A 
ENDBRANCH  20  21
ENDBRANCH  16  19
ENDBRANCH   1  17
BRANCH   6  27
ATOM     27  C   UNL     1      -1.322   1.076  -8.004  0.00  0.00    +0.120 C 
BRANCH  27  28
ATOM     28  C   UNL     1      -1.716   0.182  -9.151  0.00  0.00    +0.219 C 
ATOM     29  O   UNL     1      -1.015  -0.760  -9.454  0.00  0.00    -0.275 OA
ATOM     30  N   UNL     1      -2.847   0.430  -9.841  0.00  0.00    -0.285 N 
ATOM     31  H   UNL     1      -3.370   1.224  -9.646  0.00  0.00    +0.155 HD
BRANCH  30  32
ATOM     32  C   UNL     1      -3.268  -0.458 -10.837  0.00  0.00    +0.033 A 
ATOM     33  C   UNL     1      -3.916   0.022 -11.968  0.00  0.00    +0.023 A 
ATOM     34  C   UNL     1      -4.330  -0.856 -12.950  0.00  0.00    +0.002 A 
ATOM     35  C   UNL     1      -4.099  -2.212 -12.808  0.00  0.00    +0.000 A 
ATOM     36  C   UNL     1      -3.455  -2.693 -11.684  0.00  0.00    +0.002 A 
ATOM     37  C   UNL     1      -3.033  -1.819 -10.701  0.00  0.00    +0.023 A 
ENDBRANCH  30  32
ENDBRANCH  27  28
ENDBRANCH   6  27
TORSDOF 8
