REMARK  Name = ZINC49541780
REMARK  3 active torsions:
REMARK  status: ('A' for Active; 'I' for Inactive)
REMARK    1  A    between atoms: C_3  and  S_9
REMARK    2  A    between atoms: C_4  and  N_8
REMARK    3  A    between atoms: S_9  and  N_12
REMARK                            x       y       z     vdW  Elec       q    Type
REMARK                         _______ _______ _______ _____ _____    ______ ____
ROOT
ATOM      1  S   UNL     1       3.888   2.327  -0.024  0.00  0.00    +0.103 S 
ATOM      2  O   UNL     1       4.687   1.774  -1.061  0.00  0.00    -0.146 OA
ATOM      3  O   UNL     1       3.536   3.704   0.013  0.00  0.00    -0.146 OA
ENDROOT
BRANCH   1   4
ATOM      4  N   UNL     1       4.666   1.999   1.400  0.00  0.00    -0.103 NA
ATOM      5  C   UNL     1       5.828   2.550   1.654  0.00  0.00    +0.192 A 
ATOM      6  N   UNL     1       6.563   3.420   0.892  0.00  0.00    -0.336 N 
ATOM      7  C   UNL     1       7.784   3.886   1.362  0.00  0.00    +0.028 A 
ATOM      8  C   UNL     1       8.188   3.451   2.555  0.00  0.00    +0.012 A 
ATOM      9  S   UNL     1       6.874   2.376   3.090  0.00  0.00    -0.053 S 
ATOM     10  C   UNL     1       9.522   4.015   2.955  0.00  0.00    +0.044 C 
ATOM     11  C   UNL     1      10.122   4.556   1.639  0.00  0.00    +0.011 C 
ATOM     12  C   UNL     1       8.851   4.840   0.815  0.00  0.00    +0.054 C 
ATOM     13  H   UNL     1       6.232   3.709   0.027  0.00  0.00    +0.168 HD
ENDBRANCH   1   4
BRANCH   1  16
ATOM     14  C   UNL     1      -0.017   1.379   0.010  0.00  0.00    +0.017 A 
ATOM     15  C   UNL     1       1.170   2.090   0.002  0.00  0.00    +0.032 A 
ATOM     16  C   UNL     1       2.377   1.421  -0.013  0.00  0.00    +0.133 A 
ATOM     17  C   UNL     1       2.400   0.031  -0.021  0.00  0.00    +0.053 A 
ATOM     18  C   UNL     1       1.208  -0.680  -0.013  0.00  0.00    +0.040 A 
ATOM     19  C   UNL     1       0.002  -0.004   0.002  0.00  0.00    +0.020 A 
ATOM     20 BR   UNL     1      -1.623  -0.971   0.013  0.00  0.00    -0.050 Br
BRANCH  17  21
ATOM     21  N   UNL     1       3.620  -0.648  -0.037  0.00  0.00    -0.356 N 
ATOM     22  H   UNL     1       4.453  -0.150  -0.043  0.00  0.00    +0.142 HD
ATOM     23  H   UNL     1       3.635  -1.618  -0.043  0.00  0.00    +0.142 HD
ENDBRANCH  17  21
ENDBRANCH   1  16
TORSDOF 3
