REMARK  Name = ZINC34091509
REMARK  3 active torsions:
REMARK  status: ('A' for Active; 'I' for Inactive)
REMARK    1  A    between atoms: C_1  and  C_2
REMARK    2  A    between atoms: C_2  and  C_3
REMARK    3  A    between atoms: C_2  and  C_4
REMARK                            x       y       z     vdW  Elec       q    Type
REMARK                         _______ _______ _______ _____ _____    ______ ____
ROOT
ATOM      1  C   UNL     1      -1.412  -0.526   0.013  0.00  0.00    +0.005 A 
ATOM      2  C   UNL     1      -2.273  -0.219   1.053  0.00  0.00    +0.027 A 
ATOM      3  C   UNL     1      -3.564  -0.715   1.030  0.00  0.00    +0.111 A 
ATOM      4  N   UNL     1      -3.979  -1.472   0.034  0.00  0.00    -0.259 NA
ATOM      5  C   UNL     1      -3.191  -1.788  -0.975  0.00  0.00    +0.161 A 
ATOM      6  C   UNL     1      -1.885  -1.323  -1.025  0.00  0.00    +0.200 A 
ATOM      7  O   UNL     1      -1.078  -1.645  -2.070  0.00  0.00    -0.286 OA
ENDROOT
BRANCH   1   9
ATOM      8  C   UNL     1      -0.019   1.526   0.010  0.00  0.00    +0.012 C 
ATOM      9  C   UNL     1       0.002  -0.004   0.002  0.00  0.00    +0.017 C 
ATOM     10  C   UNL     1       0.742  -0.511   1.242  0.00  0.00    +0.012 C 
ENDBRANCH   1   9
TORSDOF 1
