REMARK  Name = ZINC42289139
REMARK  6 active torsions:
REMARK  status: ('A' for Active; 'I' for Inactive)
REMARK    1  A    between atoms: C_1  and  C_2
REMARK    2  A    between atoms: C_2  and  C_3
REMARK    3  A    between atoms: C_3  and  C_4
REMARK    4  A    between atoms: N_6  and  C_7
REMARK    5  A    between atoms: C_7  and  C_15
REMARK    6  A    between atoms: C_12  and  C_14
REMARK                            x       y       z     vdW  Elec       q    Type
REMARK                         _______ _______ _______ _____ _____    ______ ____
ROOT
ATOM      1  C   UNL     1       1.341  -4.130  -2.293  0.00  0.00    +0.138 C 
ATOM      2  C   UNL     1       2.082  -4.636  -1.054  0.00  0.00    +0.038 C 
ATOM      3  C   UNL     1       3.517  -4.107  -1.065  0.00  0.00    +0.003 C 
ATOM      4  C   UNL     1       4.233  -4.600  -2.323  0.00  0.00    +0.000 C 
ATOM      5  C   UNL     1       3.493  -4.093  -3.563  0.00  0.00    +0.006 C 
ATOM      6  C   UNL     1       2.058  -4.623  -3.552  0.00  0.00    +0.020 C 
ATOM      7  C   UNL     1       1.318  -4.116  -4.792  0.00  0.00    +0.010 C 
ENDROOT
BRANCH   1  10
ATOM      8  C   UNL     1       0.739  -2.004  -1.265  0.00  0.00    +0.214 C 
ATOM      9  O   UNL     1       0.231  -2.623  -0.354  0.00  0.00    -0.276 OA
ATOM     10  N   UNL     1       1.322  -2.665  -2.285  0.00  0.00    -0.300 N 
ATOM     11  H   UNL     1       1.728  -2.170  -3.014  0.00  0.00    +0.150 HD
BRANCH   8  12
ATOM     12  C   UNL     1       0.718  -0.497  -1.257  0.00  0.00    +0.095 C 
BRANCH  12  14
ATOM     13  C   UNL     1      -0.019   1.526   0.010  0.00  0.00    +0.004 C 
ATOM     14  C   UNL     1       0.002  -0.004   0.002  0.00  0.00    +0.006 C 
ENDBRANCH  12  14
ENDBRANCH   8  12
ENDBRANCH   1  10
BRANCH   1  15
ATOM     15  C   UNL     1      -0.072  -4.651  -2.282  0.00  0.00    +0.379 C 
ATOM     16  O   UNL     1      -1.010  -3.872  -2.269  0.00  0.00    -0.244 OA
ATOM     17  O   UNL     1      -0.279  -5.853  -2.287  0.00  0.00    -0.244 OA
ENDBRANCH   1  15
TORSDOF 4
