REMARK  Name = ZINC10002008
REMARK  11 active torsions:
REMARK  status: ('A' for Active; 'I' for Inactive)
REMARK    1  A    between atoms: C_1  and  C_2
REMARK    2  A    between atoms: C_2  and  C_3
REMARK    3  A    between atoms: C_2  and  C_4
REMARK    4  A    between atoms: C_4  and  C_6
REMARK    5  A    between atoms: C_4  and  N_25
REMARK    6  A    between atoms: N_8  and  N_9
REMARK    7  A    between atoms: C_10  and  C_11
REMARK    8  A    between atoms: C_20  and  O_21
REMARK    9  A    between atoms: O_21  and  C_22
REMARK   10  A    between atoms: C_22  and  C_23
REMARK   11  A    between atoms: C_26  and  C_28
REMARK                            x       y       z     vdW  Elec       q    Type
REMARK                         _______ _______ _______ _____ _____    ______ ____
ROOT
ATOM      1  C   UNL     1      -2.686   9.549   0.269  0.00  0.00    +0.253 C 
ATOM      2  O   UNL     1      -1.609   9.921  -0.148  0.00  0.00    -0.272 OA
ATOM      3  N   UNL     1      -2.769   8.432   1.018  0.00  0.00    -0.205 N 
ATOM      4  H   UNL     1      -3.618   8.170   1.407  0.00  0.00    +0.177 HD
ENDROOT
BRANCH   3   5
ATOM      5  N   UNL     1      -1.628   7.649   1.236  0.00  0.00    -0.188 NA
ATOM      6  C   UNL     1      -1.708   6.571   1.960  0.00  0.00    +0.142 C 
BRANCH   6   7
ATOM      7  C   UNL     1      -0.511   5.750   2.189  0.00  0.00    +0.044 A 
ATOM      8  C   UNL     1      -0.583   4.535   2.999  0.00  0.00    -0.006 A 
ATOM      9  C   UNL     1      -1.785   4.115   3.581  0.00  0.00    +0.009 A 
ATOM     10  C   UNL     1      -1.811   2.974   4.325  0.00  0.00    +0.001 A 
ATOM     11  C   UNL     1      -0.654   2.224   4.525  0.00  0.00    +0.001 A 
ATOM     12  C   UNL     1       0.531   2.604   3.974  0.00  0.00    +0.008 A 
ATOM     13  C   UNL     1       0.594   3.772   3.195  0.00  0.00    -0.017 A 
ATOM     14  C   UNL     1       1.800   4.196   2.611  0.00  0.00    +0.012 A 
ATOM     15  C   UNL     1       1.850   5.328   1.860  0.00  0.00    +0.047 A 
ATOM     16  C   UNL     1       0.718   6.112   1.638  0.00  0.00    +0.131 A 
BRANCH  16  17
ATOM     17  O   UNL     1       0.813   7.235   0.881  0.00  0.00    -0.479 OA
BRANCH  17  18
ATOM     18  C   UNL     1       2.101   7.550   0.346  0.00  0.00    +0.317 C 
BRANCH  18  19
ATOM     19  C   UNL     1       2.015   8.790  -0.441  0.00  0.00    -0.065 C 
ATOM     20  C   UNL     1       1.947   9.780  -1.069  0.00  0.00    +0.007 C 
ENDBRANCH  18  19
ENDBRANCH  17  18
ENDBRANCH  16  17
ENDBRANCH   6   7
ENDBRANCH   3   5
BRANCH   1  21
ATOM     21  C   UNL     1      -3.931  10.335  -0.053  0.00  0.00    +0.163 C 
BRANCH  21  22
ATOM     22  N   UNL     1      -3.569  11.723  -0.349  0.00  0.00    -0.300 N 
ATOM     23  C   UNL     1      -4.472  12.708  -0.172  0.00  0.00    +0.245 C 
ATOM     24  O   UNL     1      -5.587  12.443   0.234  0.00  0.00    -0.270 OA
ATOM     25  H   UNL     1      -2.679  11.934  -0.673  0.00  0.00    +0.150 HD
BRANCH  23  26
ATOM     26  C   UNL     1      -4.107  14.106  -0.470  0.00  0.00    +0.040 A 
ATOM     27  C   UNL     1      -2.825  14.413  -0.931  0.00  0.00    +0.017 A 
ATOM     28  C   UNL     1      -2.488  15.718  -1.214  0.00  0.00    +0.050 A 
ATOM     29  C   UNL     1      -3.416  16.735  -1.032  0.00  0.00    +0.166 A 
ATOM     30  C   UNL     1      -4.697  16.436  -0.567  0.00  0.00    +0.167 A 
ATOM     31  C   UNL     1      -5.043  15.128  -0.287  0.00  0.00    +0.062 A 
ATOM     32  O   UNL     1      -5.409  17.598  -0.476  0.00  0.00    -0.453 OA
ATOM     33  C   UNL     1      -4.428  18.651  -0.498  0.00  0.00    +0.466 C 
ATOM     34  O   UNL     1      -3.329  18.081  -1.232  0.00  0.00    -0.453 OA
ENDBRANCH  23  26
ENDBRANCH  21  22
BRANCH  21  36
ATOM     35  C   UNL     1      -5.956  10.429  -1.512  0.00  0.00    +0.009 C 
ATOM     36  C   UNL     1      -4.624   9.718  -1.269  0.00  0.00    +0.012 C 
ATOM     37  C   UNL     1      -3.729   9.875  -2.500  0.00  0.00    +0.009 C 
ENDBRANCH  21  36
ENDBRANCH   1  21
TORSDOF 9
