REMARK  Name = ZINC03954566
REMARK  6 active torsions:
REMARK  status: ('A' for Active; 'I' for Inactive)
REMARK    1  A    between atoms: C_1  and  O_2
REMARK    2  A    between atoms: O_2  and  C_3
REMARK    3  A    between atoms: C_8  and  C_9
REMARK    4  A    between atoms: C_9  and  S_10
REMARK    5  A    between atoms: S_10  and  C_11
REMARK    6  A    between atoms: C_16  and  N_17
REMARK                            x       y       z     vdW  Elec       q    Type
REMARK                         _______ _______ _______ _____ _____    ______ ____
ROOT
ATOM      1  C   UNL     1      -1.199  -0.637   0.010  0.00  0.00    +0.128 A 
ATOM      2  C   UNL     1      -2.366   0.109   0.019  0.00  0.00    +0.093 A 
ATOM      3  C   UNL     1      -3.598  -0.533   0.026  0.00  0.00    +0.143 A 
ATOM      4  C   UNL     1      -3.631  -1.938   0.016  0.00  0.00    +0.065 A 
ATOM      5  C   UNL     1      -2.448  -2.676   0.012  0.00  0.00    +0.023 A 
ATOM      6  C   UNL     1      -1.245  -2.029   0.003  0.00  0.00    +0.005 A 
ATOM      7  C   UNL     1      -4.946  -2.610   0.002  0.00  0.00    +0.200 A 
ATOM      8  O   UNL     1      -5.066  -3.802   0.218  0.00  0.00    -0.286 OA
ATOM      9  C   UNL     1      -6.109  -1.744  -0.290  0.00  0.00    +0.065 A 
ATOM     10  C   UNL     1      -7.355  -2.291  -0.592  0.00  0.00    +0.015 A 
ATOM     11  C   UNL     1      -8.417  -1.456  -0.865  0.00  0.00    +0.001 A 
ATOM     12  C   UNL     1      -8.244  -0.080  -0.840  0.00  0.00    +0.004 A 
ATOM     13  C   UNL     1      -7.017   0.472  -0.541  0.00  0.00    +0.047 A 
ATOM     14  C   UNL     1      -5.931  -0.352  -0.259  0.00  0.00    +0.139 A 
ATOM     15  O   UNL     1      -4.735   0.191   0.045  0.00  0.00    -0.454 OA
ENDROOT
BRANCH   1  17
ATOM     16  C   UNL     1      -0.017   1.425   0.010  0.00  0.00    +0.277 C 
ATOM     17  O   UNL     1       0.002  -0.004   0.002  0.00  0.00    -0.495 OA
ENDBRANCH   1  17
BRANCH   6  18
ATOM     18  C   UNL     1       0.036  -2.823  -0.008  0.00  0.00    +0.113 C 
BRANCH  18  19
ATOM     19  S   UNL     1       0.559  -3.150   1.698  0.00  0.00    -0.119 S 
BRANCH  19  20
ATOM     20  C   UNL     1       2.049  -4.074   1.516  0.00  0.00    +0.029 A 
ATOM     21  C   UNL     1       2.537  -4.367   0.251  0.00  0.00    +0.016 A 
ATOM     22  C   UNL     1       3.706  -5.091   0.112  0.00  0.00    +0.001 A 
ATOM     23  C   UNL     1       4.393  -5.525   1.230  0.00  0.00    +0.002 A 
ATOM     24  C   UNL     1       3.914  -5.238   2.496  0.00  0.00    +0.024 A 
ATOM     25  C   UNL     1       2.745  -4.507   2.645  0.00  0.00    +0.038 A 
BRANCH  25  26
ATOM     26  N   UNL     1       2.262  -4.210   3.925  0.00  0.00    -0.357 N 
ATOM     27  H   UNL     1       1.442  -3.702   4.028  0.00  0.00    +0.142 HD
ATOM     28  H   UNL     1       2.747  -4.512   4.709  0.00  0.00    +0.142 HD
ENDBRANCH  25  26
ENDBRANCH  19  20
ENDBRANCH  18  19
ENDBRANCH   6  18
TORSDOF 5
