REMARK  Name = ZINC13019332
REMARK  8 active torsions:
REMARK  status: ('A' for Active; 'I' for Inactive)
REMARK    1  A    between atoms: C_1  and  C_2
REMARK    2  A    between atoms: C_2  and  N_3
REMARK    3  A    between atoms: C_9  and  C_29
REMARK    4  A    between atoms: C_13  and  S_14
REMARK    5  A    between atoms: S_14  and  C_15
REMARK    6  A    between atoms: C_15  and  C_17
REMARK    7  A    between atoms: C_15  and  C_18
REMARK    8  A    between atoms: N_20  and  C_21
REMARK                            x       y       z     vdW  Elec       q    Type
REMARK                         _______ _______ _______ _____ _____    ______ ____
ROOT
ATOM      1  N   UNL     1       5.176   1.632   1.042  0.00  0.00    -0.288 N 
ATOM      2  C   UNL     1       6.221   2.489   1.097  0.00  0.00    +0.262 A 
ATOM      3  O   UNL     1       7.325   2.115   1.449  0.00  0.00    -0.267 OA
ATOM      4  C   UNL     1       5.976   3.888   0.713  0.00  0.00    +0.065 A 
ATOM      5  C   UNL     1       6.993   4.843   0.737  0.00  0.00    +0.016 A 
ATOM      6  C   UNL     1       6.725   6.131   0.374  0.00  0.00    +0.016 A 
ATOM      7  C   UNL     1       5.436   6.506  -0.024  0.00  0.00    +0.065 A 
ATOM      8  C   UNL     1       4.408   5.572  -0.056  0.00  0.00    +0.043 A 
ATOM      9  C   UNL     1       4.670   4.250   0.314  0.00  0.00    +0.080 A 
ATOM     10  N   UNL     1       3.701   3.305   0.293  0.00  0.00    -0.223 NA
ATOM     11  C   UNL     1       3.943   2.066   0.644  0.00  0.00    +0.173 A 
ENDROOT
BRANCH   7  12
ATOM     12  C   UNL     1       5.166   7.908  -0.414  0.00  0.00    +0.387 C 
ATOM     13  O   UNL     1       4.050   8.238  -0.760  0.00  0.00    -0.241 OA
ATOM     14  O   UNL     1       6.159   8.818  -0.386  0.00  0.00    -0.241 OA
ENDBRANCH   7  12
BRANCH   1  16
ATOM     15  C   UNL     1       5.763  -0.578   0.175  0.00  0.00    +0.027 C 
ATOM     16  C   UNL     1       5.366   0.228   1.414  0.00  0.00    +0.124 C 
ENDBRANCH   1  16
BRANCH  11  17
ATOM     17  S   UNL     1       2.620   0.904   0.593  0.00  0.00    -0.075 S 
BRANCH  17  18
ATOM     18  C   UNL     1       1.280   1.979   0.020  0.00  0.00    +0.137 C 
ATOM     19  C   UNL     1       1.588   2.466  -1.397  0.00  0.00    +0.029 C 
BRANCH  18  20
ATOM     20  C   UNL     1      -0.015   1.208   0.016  0.00  0.00    +0.230 C 
ATOM     21  O   UNL     1       0.001  -0.005   0.006  0.00  0.00    -0.274 OA
ATOM     22  N   UNL     1      -1.191   1.867   0.018  0.00  0.00    -0.282 N 
ATOM     23  H   UNL     1      -1.205   2.834   0.091  0.00  0.00    +0.155 HD
BRANCH  22  24
ATOM     24  C   UNL     1      -2.392   1.155  -0.086  0.00  0.00    +0.069 A 
ATOM     25  C   UNL     1      -2.511  -0.099   0.499  0.00  0.00    +0.027 A 
ATOM     26  C   UNL     1      -3.697  -0.799   0.395  0.00  0.00    +0.017 A 
ATOM     27  C   UNL     1      -4.768  -0.253  -0.290  0.00  0.00    +0.021 A 
ATOM     28  C   UNL     1      -4.654   0.996  -0.874  0.00  0.00    +0.055 A 
ATOM     29  C   UNL     1      -3.471   1.704  -0.770  0.00  0.00    +0.146 A 
ATOM     30  F   UNL     1      -3.361   2.926  -1.336  0.00  0.00    -0.204 F 
ATOM     31 BR   UNL     1      -6.389  -1.216  -0.428  0.00  0.00    -0.050 Br
ENDBRANCH  22  24
ENDBRANCH  18  20
ENDBRANCH  17  18
ENDBRANCH  11  17
TORSDOF 6
