REMARK  Name = ZINC07844180
REMARK  3 active torsions:
REMARK  status: ('A' for Active; 'I' for Inactive)
REMARK    1  A    between atoms: C_1  and  C_2
REMARK    2  A    between atoms: C_14  and  C_16
REMARK    3  A    between atoms: C_16  and  N_43
REMARK                            x       y       z     vdW  Elec       q    Type
REMARK                         _______ _______ _______ _____ _____    ______ ____
ROOT
ATOM      1  C   UNL     1      -0.108   9.637  -4.682  0.00  0.00    +0.019 C 
ATOM      2  C   UNL     1       0.313   9.203  -3.277  0.00  0.00    +0.050 C 
ATOM      3  C   UNL     1       1.351   8.098  -3.381  0.00  0.00    +0.033 C 
ATOM      4  C   UNL     1       2.046   7.740  -2.092  0.00  0.00    +0.115 C 
ATOM      5  N   UNL     1       1.112   7.120  -1.138  0.00  0.00    -0.272 N 
ATOM      6  C   UNL     1       0.415   7.951  -0.256  0.00  0.00    +0.050 A 
ATOM      7  C   UNL     1       0.799   7.997   1.086  0.00  0.00    +0.024 A 
ATOM      8  C   UNL     1       0.152   8.854   1.955  0.00  0.00    +0.002 A 
ATOM      9  C   UNL     1      -0.872   9.672   1.513  0.00  0.00    +0.001 A 
ATOM     10  C   UNL     1      -1.274   9.618   0.188  0.00  0.00    +0.016 A 
ATOM     11  C   UNL     1      -0.636   8.750  -0.673  0.00  0.00    +0.030 A 
ATOM     12  S   UNL     1      -1.146   8.610  -2.371  0.00  0.00    -0.120 S 
ATOM     13  C   UNL     1       0.930   5.785  -1.120  0.00  0.00    +0.203 C 
ATOM     14  O   UNL     1       1.538   5.079  -1.895  0.00  0.00    -0.277 OA
ENDROOT
BRANCH  13  15
ATOM     15  C   UNL     1      -0.031   5.169  -0.135  0.00  0.00    +0.020 C 
BRANCH  15  23
ATOM     16  C   UNL     1      -1.127   3.096   0.477  0.00  0.00    -0.059 C 
ATOM     17  C   UNL     1      -1.303   1.646   0.017  0.00  0.00    +0.085 C 
ATOM     18  N   UNL     1      -0.011   0.966   0.007  0.00  0.00    -0.319 N 
ATOM     19  C   UNL     1       1.155   1.621  -0.000  0.00  0.00    +0.196 C 
ATOM     20  O   UNL     1       2.182   0.977  -0.045  0.00  0.00    -0.278 OA
ATOM     21  C   UNL     1       1.246   3.120   0.044  0.00  0.00    +0.019 C 
ATOM     22  H   UNL     1       0.002  -0.004   0.002  0.00  0.00    +0.149 HD
ATOM     23  N   UNL     1      -0.055   3.703  -0.337  0.00  0.00    +0.392 N 
ATOM     24  H   UNL     1      -0.234   3.505  -1.329  0.00  0.00    -0.080 HD
ENDBRANCH  15  23
ENDBRANCH  13  15
TORSDOF 2
