REMARK  Name = ZINC20358411
REMARK  10 active torsions:
REMARK  status: ('A' for Active; 'I' for Inactive)
REMARK    1  A    between atoms: C_1  and  C_2
REMARK    2  A    between atoms: C_2  and  N_3
REMARK    3  A    between atoms: N_3  and  C_4
REMARK    4  A    between atoms: N_3  and  C_6
REMARK    5  A    between atoms: C_4  and  C_5
REMARK    6  A    between atoms: C_6  and  C_7
REMARK    7  A    between atoms: C_7  and  C_8
REMARK    8  A    between atoms: C_8  and  N_9
REMARK    9  A    between atoms: C_27  and  C_29
REMARK   10  A    between atoms: C_27  and  C_30
REMARK                            x       y       z     vdW  Elec       q    Type
REMARK                         _______ _______ _______ _____ _____    ______ ____
ROOT
ATOM      1  N   UNL     1      -0.009   0.969   0.022  0.00  0.00    -0.328 N 
ATOM      2  C   UNL     1      -1.218   1.648   0.025  0.00  0.00    +0.136 A 
ATOM      3  C   UNL     1      -2.422   0.958   0.045  0.00  0.00    +0.080 A 
ATOM      4  C   UNL     1      -3.643   1.641   0.048  0.00  0.00    +0.093 A 
ATOM      5  C   UNL     1      -4.854   0.799   0.069  0.00  0.00    +0.037 A 
ATOM      6  C   UNL     1      -6.204   1.228   0.076  0.00  0.00    -0.024 A 
ATOM      7  C   UNL     1      -7.201   0.304   0.093  0.00  0.00    +0.022 A 
ATOM      8  C   UNL     1      -6.887  -1.060   0.110  0.00  0.00    +0.128 A 
ATOM      9  N   UNL     1      -5.625  -1.458   0.106  0.00  0.00    -0.224 NA
ATOM     10  C   UNL     1      -4.636  -0.589   0.086  0.00  0.00    +0.113 A 
ATOM     11  S   UNL     1      -2.868  -0.757   0.072  0.00  0.00    -0.064 S 
ATOM     12  N   UNL     1      -7.907  -2.002   0.130  0.00  0.00    -0.315 N 
ATOM     13  C   UNL     1      -8.739  -1.911  -1.097  0.00  0.00    +0.106 C 
ATOM     14  C   UNL     1      -9.434  -3.295  -1.157  0.00  0.00    +0.020 C 
ATOM     15  C   UNL     1      -8.330  -4.258  -0.662  0.00  0.00    +0.020 C 
ATOM     16  C   UNL     1      -7.359  -3.376   0.145  0.00  0.00    +0.106 C 
ATOM     17  C   UNL     1      -8.652   0.711   0.090  0.00  0.00    +0.199 C 
ATOM     18  O   UNL     1      -8.779   2.087   0.447  0.00  0.00    -0.369 OA
ATOM     19  C   UNL     1      -7.943   2.951  -0.331  0.00  0.00    +0.068 C 
ATOM     20  C   UNL     1      -6.487   2.706   0.073  0.00  0.00    +0.070 C 
ATOM     21  C   UNL     1      -8.124   2.642  -1.818  0.00  0.00    +0.041 C 
ATOM     22  C   UNL     1      -8.314   4.410  -0.058  0.00  0.00    +0.041 C 
ATOM     23  N   UNL     1      -3.568   2.992   0.032  0.00  0.00    -0.234 NA
ATOM     24  C   UNL     1      -2.414   3.610   0.013  0.00  0.00    +0.224 A 
ATOM     25  N   UNL     1      -1.254   2.980   0.015  0.00  0.00    -0.220 NA
ATOM     26  H   UNL     1       0.004  -0.131   0.040  0.00  0.00    +0.147 HD
ENDROOT
BRANCH   1  27
ATOM     27  C   UNL     1       1.251   1.716  -0.005  0.00  0.00    +0.101 C 
BRANCH  27  28
ATOM     28  C   UNL     1       2.425   0.736  -0.010  0.00  0.00    +0.000 C 
BRANCH  28  29
ATOM     29  C   UNL     1       3.741   1.516  -0.039  0.00  0.00    -0.077 C 
BRANCH  29  30
ATOM     30  N   UNL     1       4.868   0.581   0.080  0.00  0.00    +0.379 N 
ATOM     31  H   UNL     1       4.608  -0.165   0.846  0.00  0.00    -0.082 HD
BRANCH  30  33
ATOM     32  C   UNL     1       6.101  -1.262  -0.957  0.00  0.00    -0.017 C 
ATOM     33  C   UNL     1       5.097  -0.131  -1.184  0.00  0.00    -0.082 C 
ENDBRANCH  30  33
BRANCH  30  34
ATOM     34  C   UNL     1       6.085   1.276   0.521  0.00  0.00    -0.082 C 
ATOM     35  C   UNL     1       5.984   1.583   2.017  0.00  0.00    -0.017 C 
ENDBRANCH  30  34
ENDBRANCH  29  30
ENDBRANCH  28  29
ENDBRANCH  27  28
ENDBRANCH   1  27
TORSDOF 6
