REMARK  Name = ZINC39685826
REMARK  14 active torsions:
REMARK  status: ('A' for Active; 'I' for Inactive)
REMARK    1  A    between atoms: C_1  and  C_2
REMARK    2  A    between atoms: C_2  and  C_3
REMARK    3  A    between atoms: C_3  and  C_5
REMARK    4  A    between atoms: C_3  and  C_11
REMARK    5  A    between atoms: C_15  and  C_24
REMARK    6  A    between atoms: N_26  and  C_27
REMARK    7  A    between atoms: C_27  and  C_29
REMARK    8  A    between atoms: C_27  and  C_32
REMARK    9  A    between atoms: C_29  and  C_30
REMARK   10  A    between atoms: C_29  and  C_31
REMARK   11  A    between atoms: N_34  and  C_35
REMARK   12  A    between atoms: C_35  and  C_36
REMARK   13  A    between atoms: C_35  and  C_37
REMARK   14  A    between atoms: C_35  and  C_38
REMARK                            x       y       z     vdW  Elec       q    Type
REMARK                         _______ _______ _______ _____ _____    ______ ____
ROOT
ATOM      1  C   UNL     1      -1.799  -1.056   0.027  0.00  0.00    +0.223 C 
ATOM      2  O   UNL     1      -2.027  -1.837  -0.872  0.00  0.00    -0.275 OA
ATOM      3  N   UNL     1      -0.988  -1.415   1.042  0.00  0.00    -0.300 N 
ATOM      4  C   UNL     1      -0.598  -0.608   2.222  0.00  0.00    +0.121 C 
ATOM      5  C   UNL     1      -0.597  -1.611   3.398  0.00  0.00    +0.100 C 
ATOM      6  C   UNL     1      -0.389  -2.986   2.740  0.00  0.00    -0.004 C 
ATOM      7  C   UNL     1      -0.290  -2.709   1.233  0.00  0.00    +0.115 C 
ATOM      8  C   UNL     1      -1.581  -3.894   3.026  0.00  0.00    -0.010 C 
ATOM      9  C   UNL     1      -1.325  -5.273   2.411  0.00  0.00    -0.082 C 
ATOM     10  N   UNL     1      -0.100  -5.846   2.981  0.00  0.00    +0.379 N 
ATOM     11  C   UNL     1       1.055  -5.014   2.623  0.00  0.00    -0.082 C 
ATOM     12  C   UNL     1       0.900  -3.625   3.247  0.00  0.00    -0.010 C 
ATOM     13  H   UNL     1      -0.185  -5.886   3.986  0.00  0.00    -0.086 HD
ATOM     14  H   UNL     1       0.033  -6.778   2.620  0.00  0.00    -0.086 HD
ENDROOT
BRANCH   5  15
ATOM     15  C   UNL     1      -1.916  -1.569   4.125  0.00  0.00    +0.219 C 
ATOM     16  O   UNL     1      -2.921  -1.226   3.539  0.00  0.00    -0.275 OA
ATOM     17  N   UNL     1      -1.979  -1.912   5.427  0.00  0.00    -0.303 N 
ATOM     18  H   UNL     1      -1.172  -2.164   5.901  0.00  0.00    +0.149 HD
BRANCH  17  19
ATOM     19  C   UNL     1      -3.267  -1.903   6.125  0.00  0.00    +0.161 C 
BRANCH  19  20
ATOM     20  C   UNL     1      -3.055  -1.512   7.565  0.00  0.00    +0.234 C 
ATOM     21  O   UNL     1      -1.953  -1.607   8.063  0.00  0.00    -0.274 OA
ATOM     22  N   UNL     1      -4.090  -1.057   8.299  0.00  0.00    -0.309 N 
ATOM     23  H   UNL     1      -4.984  -1.049   7.924  0.00  0.00    +0.149 HD
BRANCH  22  24
ATOM     24  C   UNL     1      -3.863  -0.574   9.664  0.00  0.00    +0.026 C 
ATOM     25  C   UNL     1      -2.886   0.602   9.633  0.00  0.00    +0.031 C 
ATOM     26  C   UNL     1      -5.192  -0.118  10.270  0.00  0.00    +0.031 C 
ATOM     27  C   UNL     1      -3.276  -1.703  10.513  0.00  0.00    +0.031 C 
ENDBRANCH  22  24
ENDBRANCH  19  20
BRANCH  19  28
ATOM     28  C   UNL     1      -3.891  -3.298   6.062  0.00  0.00    +0.012 C 
ATOM     29  C   UNL     1      -4.279  -3.619   4.617  0.00  0.00    +0.009 C 
ATOM     30  C   UNL     1      -2.880  -4.332   6.560  0.00  0.00    +0.009 C 
ENDBRANCH  19  28
ENDBRANCH  17  19
ENDBRANCH   5  15
BRANCH   1  31
ATOM     31  C   UNL     1      -2.421   0.317   0.009  0.00  0.00    +0.105 C 
BRANCH  31  32
ATOM     32  C   UNL     1      -3.276   0.464  -1.223  0.00  0.00    -0.036 A 
ATOM     33  C   UNL     1      -2.711   0.332  -2.477  0.00  0.00    +0.004 A 
ATOM     34  C   UNL     1      -3.495   0.468  -3.607  0.00  0.00    +0.000 A 
ATOM     35  C   UNL     1      -4.846   0.734  -3.483  0.00  0.00    +0.000 A 
ATOM     36  C   UNL     1      -5.412   0.865  -2.228  0.00  0.00    +0.000 A 
ATOM     37  C   UNL     1      -4.628   0.726  -1.099  0.00  0.00    +0.004 A 
ENDBRANCH  31  32
BRANCH  31  39
ATOM     38  C   UNL     1      -1.945   2.768   0.101  0.00  0.00    +0.005 C 
ATOM     39  C   UNL     1      -1.317   1.376  -0.007  0.00  0.00    +0.014 C 
ENDBRANCH  31  39
ENDBRANCH   1  31
TORSDOF 8
