REMARK  Name = ZINC06520102
REMARK  5 active torsions:
REMARK  status: ('A' for Active; 'I' for Inactive)
REMARK    1  A    between atoms: C_1  and  C_2
REMARK    2  A    between atoms: C_2  and  N_3
REMARK    3  A    between atoms: C_11  and  C_14
REMARK    4  A    between atoms: N_16  and  C_17
REMARK    5  A    between atoms: C_22  and  N_23
REMARK                            x       y       z     vdW  Elec       q    Type
REMARK                         _______ _______ _______ _____ _____    ______ ____
ROOT
ATOM      1  N   UNL     1      -0.034   5.207   0.014  0.00  0.00    -0.308 N 
ATOM      2  C   UNL     1      -0.040   3.827   0.005  0.00  0.00    +0.056 A 
ATOM      3  C   UNL     1       1.160   3.121  -0.016  0.00  0.00    +0.026 A 
ATOM      4  C   UNL     1       1.146   1.743  -0.024  0.00  0.00    +0.002 A 
ATOM      5  C   UNL     1      -0.055   1.047  -0.013  0.00  0.00    +0.001 A 
ATOM      6  C   UNL     1      -1.244   1.718   0.002  0.00  0.00    +0.014 A 
ATOM      7  C   UNL     1      -1.254   3.118   0.017  0.00  0.00    +0.046 A 
ATOM      8  C   UNL     1      -2.522   3.855   0.038  0.00  0.00    +0.205 A 
ATOM      9  C   UNL     1      -2.475   5.251   0.048  0.00  0.00    +0.148 A 
ATOM     10  C   UNL     1      -1.174   5.918   0.035  0.00  0.00    +0.268 A 
ATOM     11  O   UNL     1      -1.122   7.135   0.042  0.00  0.00    -0.267 OA
ATOM     12  O   UNL     1      -3.702   3.202   0.050  0.00  0.00    -0.286 OA
ENDROOT
BRANCH   9  13
ATOM     13  C   UNL     1      -3.715   6.037   0.070  0.00  0.00    +0.257 C 
ATOM     14  O   UNL     1      -4.097   6.600  -0.939  0.00  0.00    -0.270 OA
ATOM     15  N   UNL     1      -4.429   6.136   1.209  0.00  0.00    -0.280 N 
ATOM     16  H   UNL     1      -4.039   5.704   2.142  0.00  0.00    +0.155 HD
BRANCH  15  17
ATOM     17  C   UNL     1      -5.669   6.788   1.203  0.00  0.00    +0.055 A 
ATOM     18  C   UNL     1      -6.403   6.876   0.030  0.00  0.00    +0.025 A 
ATOM     19  C   UNL     1      -7.629   7.516   0.028  0.00  0.00    +0.002 A 
ATOM     20  C   UNL     1      -8.122   8.078   1.191  0.00  0.00    +0.002 A 
ATOM     21  C   UNL     1      -7.395   8.000   2.364  0.00  0.00    +0.024 A 
ATOM     22  C   UNL     1      -6.167   7.355   2.376  0.00  0.00    +0.046 A 
BRANCH  22  23
ATOM     23  N   UNL     1      -5.429   7.275   3.562  0.00  0.00    -0.357 N 
ATOM     24  H   UNL     1      -5.822   7.723   4.486  0.00  0.00    +0.142 HD
ATOM     25  H   UNL     1      -4.455   6.763   3.570  0.00  0.00    +0.142 HD
ENDBRANCH  22  23
ENDBRANCH  15  17
ENDBRANCH   9  13
BRANCH   1  27
ATOM     26  C   UNL     1       1.676   6.171  -1.444  0.00  0.00    +0.027 C 
ATOM     27  C   UNL     1       1.249   5.915   0.002  0.00  0.00    +0.122 C 
ENDBRANCH   1  27
TORSDOF 4
