REMARK  Name = ZINC06606864
REMARK  9 active torsions:
REMARK  status: ('A' for Active; 'I' for Inactive)
REMARK    1  A    between atoms: C_1  and  C_2
REMARK    2  A    between atoms: C_2  and  C_4
REMARK    3  A    between atoms: C_2  and  N_40
REMARK    4  A    between atoms: C_12  and  C_13
REMARK    5  A    between atoms: C_12  and  N_40
REMARK    6  A    between atoms: N_15  and  C_16
REMARK    7  A    between atoms: C_16  and  C_17
REMARK    8  A    between atoms: C_16  and  C_18
REMARK    9  A    between atoms: C_16  and  C_20
REMARK                            x       y       z     vdW  Elec       q    Type
REMARK                         _______ _______ _______ _____ _____    ______ ____
ROOT
ATOM      1  N   UNL     1      -0.005  -0.010   0.007  0.00  0.00    +0.389 N 
ATOM      2  H   UNL     1      -0.885  -0.356  -0.393  0.00  0.00    -0.084 HD
ATOM      3  H   UNL     1       0.089  -0.350   0.971  0.00  0.00    -0.084 HD
ENDROOT
BRANCH   1   5
ATOM      4  C   UNL     1      -0.758   1.972  -1.229  0.00  0.00    -0.009 C 
ATOM      5  C   UNL     1      -0.018   1.465   0.010  0.00  0.00    -0.043 C 
BRANCH   5   6
ATOM      6  C   UNL     1      -0.723   1.951   1.250  0.00  0.00    -0.060 A 
ATOM      7  C   UNL     1      -0.238   3.049   1.935  0.00  0.00    +0.003 A 
ATOM      8  C   UNL     1      -0.884   3.496   3.073  0.00  0.00    +0.021 A 
ATOM      9  C   UNL     1      -2.017   2.844   3.526  0.00  0.00    +0.059 A 
ATOM     10  C   UNL     1      -2.503   1.744   2.839  0.00  0.00    +0.059 A 
ATOM     11  C   UNL     1      -1.858   1.302   1.698  0.00  0.00    +0.023 A 
ATOM     12 CL   UNL     1      -3.925   0.925   3.407  0.00  0.00    -0.082 Cl
ATOM     13 CL   UNL     1      -2.828   3.404   4.955  0.00  0.00    -0.082 Cl
ENDBRANCH   5   6
ENDBRANCH   1   5
BRANCH   1  14
ATOM     14  C   UNL     1       1.125  -0.511  -0.798  0.00  0.00    +0.016 C 
BRANCH  14  15
ATOM     15  C   UNL     1       1.113  -2.018  -0.783  0.00  0.00    +0.197 C 
ATOM     16  O   UNL     1       0.253  -2.611  -0.166  0.00  0.00    -0.278 OA
ATOM     17  N   UNL     1       2.057  -2.706  -1.455  0.00  0.00    -0.299 N 
ATOM     18  H   UNL     1       2.744  -2.232  -1.948  0.00  0.00    +0.150 HD
BRANCH  17  19
ATOM     19  C   UNL     1       2.045  -4.171  -1.440  0.00  0.00    +0.121 C 
ATOM     20  C   UNL     1       0.728  -4.676  -2.032  0.00  0.00    +0.048 C 
BRANCH  19  21
ATOM     21  C   UNL     1       3.214  -4.699  -2.273  0.00  0.00    +0.026 C 
ATOM     22  C   UNL     1       2.880  -5.513  -3.525  0.00  0.00    +0.007 C 
ATOM     23  C   UNL     1       3.446  -6.211  -2.287  0.00  0.00    +0.007 C 
ENDBRANCH  19  21
BRANCH  19  24
ATOM     24  C   UNL     1       2.175  -4.649  -0.054  0.00  0.00    +0.088 C 
ATOM     25  N   UNL     1       2.275  -5.018   1.016  0.00  0.00    -0.194 NA
ENDBRANCH  19  24
ENDBRANCH  17  19
ENDBRANCH  14  15
ENDBRANCH   1  14
TORSDOF 7
