REMARK  Name = ZINC40091204
REMARK  3 active torsions:
REMARK  status: ('A' for Active; 'I' for Inactive)
REMARK    1  A    between atoms: C_8  and  N_15
REMARK    2  A    between atoms: C_9  and  N_12
REMARK    3  A    between atoms: N_15  and  C_16
REMARK                            x       y       z     vdW  Elec       q    Type
REMARK                         _______ _______ _______ _____ _____    ______ ____
ROOT
ATOM      1  C   UNL     1       0.260   1.586  -0.026  0.00  0.00    +0.005 A 
ATOM      2  C   UNL     1       1.535   2.171  -0.045  0.00  0.00    +0.018 A 
ATOM      3  C   UNL     1       2.639   1.392  -0.052  0.00  0.00    +0.096 A 
ATOM      4  N   UNL     1       2.534   0.033  -0.041  0.00  0.00    -0.266 N 
ATOM      5  C   UNL     1       1.305  -0.566  -0.021  0.00  0.00    +0.142 A 
ATOM      6  C   UNL     1       0.144   0.229  -0.014  0.00  0.00    +0.047 A 
ATOM      7  N   UNL     1       1.191  -1.892  -0.008  0.00  0.00    -0.212 NA
ATOM      8  C   UNL     1       2.265  -2.677  -0.014  0.00  0.00    +0.157 A 
ATOM      9  C   UNL     1       3.537  -2.109  -0.035  0.00  0.00    +0.230 A 
ATOM     10  C   UNL     1       3.654  -0.721  -0.048  0.00  0.00    +0.291 A 
ATOM     11  O   UNL     1       4.755  -0.193  -0.066  0.00  0.00    -0.265 OA
ENDROOT
BRANCH   9  12
ATOM     12  N   UNL     1       4.744  -2.967  -0.042  0.00  0.00    +0.065 N 
ATOM     13  O   UNL     1       4.633  -4.167  -0.133  0.00  0.00    -0.126 OA
ATOM     14  O   UNL     1       5.842  -2.466   0.043  0.00  0.00    -0.126 OA
ENDBRANCH   9  12
BRANCH   8  15
ATOM     15  N   UNL     1       2.120  -4.052  -0.000  0.00  0.00    -0.324 N 
ATOM     16  H   UNL     1       2.899  -4.623  -0.084  0.00  0.00    +0.148 HD
BRANCH  15  17
ATOM     17  C   UNL     1       0.788  -4.646   0.141  0.00  0.00    +0.075 C 
ATOM     18  C   UNL     1       0.121  -4.792  -1.253  0.00  0.00    +0.026 C 
ATOM     19  C   UNL     1      -0.384  -6.294  -1.227  0.00  0.00    -0.006 C 
ATOM     20  C   UNL     1       0.947  -6.909  -0.617  0.00  0.00    +0.009 C 
ATOM     21  C   UNL     1       0.904  -6.067   0.727  0.00  0.00    +0.013 C 
ATOM     22  C   UNL     1      -0.436  -6.591   1.223  0.00  0.00    -0.003 C 
ATOM     23  C   UNL     1      -1.316  -6.219  -0.057  0.00  0.00    -0.004 C 
ATOM     24  C   UNL     1      -2.700  -6.574   0.276  0.00  0.00    +0.004 C 
ATOM     25  C   UNL     1      -2.787  -6.234   1.803  0.00  0.00    +0.001 C 
ATOM     26  C   UNL     1      -1.264  -5.860   2.272  0.00  0.00    +0.004 C 
ENDBRANCH  15  17
ENDBRANCH   8  15
TORSDOF 3
