REMARK  Name = ZINC12814875
REMARK  11 active torsions:
REMARK  status: ('A' for Active; 'I' for Inactive)
REMARK    1  A    between atoms: C_1  and  N_69
REMARK    2  A    between atoms: C_2  and  N_69
REMARK    3  A    between atoms: C_3  and  C_5
REMARK    4  A    between atoms: C_3  and  C_27
REMARK    5  A    between atoms: C_3  and  N_69
REMARK    6  A    between atoms: C_5  and  N_6
REMARK    7  A    between atoms: C_7  and  C_9
REMARK    8  A    between atoms: N_12  and  S_15
REMARK    9  A    between atoms: S_15  and  C_18
REMARK   10  A    between atoms: C_32  and  O_33
REMARK   11  A    between atoms: O_33  and  C_34
REMARK                            x       y       z     vdW  Elec       q    Type
REMARK                         _______ _______ _______ _____ _____    ______ ____
ROOT
ATOM      1  N   UNL     1      -0.317  -0.720   6.780  0.00  0.00    -0.316 N 
ATOM      2  C   UNL     1       0.043  -0.023   5.685  0.00  0.00    +0.216 C 
ATOM      3  O   UNL     1       0.123   1.187   5.735  0.00  0.00    -0.276 OA
ATOM      4  H   UNL     1      -0.381  -1.688   6.740  0.00  0.00    +0.149 HD
ENDROOT
BRANCH   2   5
ATOM      5  C   UNL     1       0.347  -0.745   4.398  0.00  0.00    +0.077 C 
ATOM      6  C   UNL     1       0.727   0.273   3.320  0.00  0.00    +0.030 C 
ATOM      7  C   UNL     1       1.002  -0.462   2.004  0.00  0.00    +0.110 C 
ATOM      8  N   UNL     1       2.018  -1.496   2.243  0.00  0.00    -0.177 NA
ATOM      9  C   UNL     1       1.791  -2.475   3.315  0.00  0.00    +0.110 C 
ATOM     10  C   UNL     1       1.510  -1.715   4.620  0.00  0.00    +0.030 C 
BRANCH   8  11
ATOM     11  S   UNL     1       3.389  -1.562   1.317  0.00  0.00    +0.061 S 
ATOM     12  O   UNL     1       3.079  -0.922   0.087  0.00  0.00    -0.153 OA
ATOM     13  O   UNL     1       3.859  -2.901   1.382  0.00  0.00    -0.153 OA
BRANCH  11  14
ATOM     14  C   UNL     1       4.603  -0.563   2.113  0.00  0.00    +0.106 A 
ATOM     15  C   UNL     1       5.455  -1.122   3.047  0.00  0.00    +0.029 A 
ATOM     16  C   UNL     1       6.409  -0.338   3.665  0.00  0.00    +0.006 A 
ATOM     17  C   UNL     1       6.513   1.008   3.356  0.00  0.00    -0.044 A 
ATOM     18  C   UNL     1       5.658   1.567   2.425  0.00  0.00    -0.042 A 
ATOM     19  C   UNL     1       4.701   0.780   1.807  0.00  0.00    +0.032 A 
ATOM     20  C   UNL     1       5.971   3.040   2.264  0.00  0.00    +0.036 C 
ATOM     21  C   UNL     1       7.381   3.221   2.864  0.00  0.00    +0.009 C 
ATOM     22  C   UNL     1       7.459   2.065   3.884  0.00  0.00    +0.036 C 
ENDBRANCH  11  14
ENDBRANCH   8  11
ENDBRANCH   2   5
BRANCH   1  23
ATOM     23  C   UNL     1      -0.613  -0.018   8.032  0.00  0.00    +0.093 C 
BRANCH  23  24
ATOM     24  C   UNL     1      -1.253  -0.991   9.024  0.00  0.00    -0.017 C 
BRANCH  24  25
ATOM     25  C   UNL     1      -1.425  -0.309  10.357  0.00  0.00    -0.018 A 
ATOM     26  C   UNL     1      -2.675   0.119  10.758  0.00  0.00    +0.005 A 
ATOM     27  C   UNL     1      -2.834   0.740  11.983  0.00  0.00    +0.000 A 
ATOM     28  C   UNL     1      -1.741   0.944  12.804  0.00  0.00    +0.004 A 
ATOM     29  C   UNL     1      -0.488   0.523  12.405  0.00  0.00    +0.046 A 
ATOM     30  C   UNL     1      -0.326  -0.106  11.179  0.00  0.00    +0.122 A 
BRANCH  30  31
ATOM     31  O   UNL     1       0.906  -0.522  10.784  0.00  0.00    -0.495 OA
ATOM     32  C   UNL     1       1.991  -0.279  11.682  0.00  0.00    +0.277 C 
ENDBRANCH  30  31
ENDBRANCH  24  25
BRANCH  24  35
ATOM     33  C   UNL     1      -3.270  -0.293   7.882  0.00  0.00    -0.096 C 
ATOM     34  C   UNL     1      -2.432  -2.546   7.590  0.00  0.00    -0.096 C 
ATOM     35  N   UNL     1      -2.581  -1.423   8.540  0.00  0.00    +0.382 N 
ATOM     36  H   UNL     1      -3.142  -1.736   9.340  0.00  0.00    -0.082 HD
ENDBRANCH  24  35
ENDBRANCH  23  24
ENDBRANCH   1  23
TORSDOF 8
