REMARK  Name = ZINC11281989
REMARK  6 active torsions:
REMARK  status: ('A' for Active; 'I' for Inactive)
REMARK    1  A    between atoms: C_2  and  C_3
REMARK    2  A    between atoms: C_3  and  S_4
REMARK    3  A    between atoms: S_4  and  C_5
REMARK    4  A    between atoms: C_12  and  N_24
REMARK    5  A    between atoms: C_13  and  C_22
REMARK    6  A    between atoms: C_14  and  C_16
REMARK                            x       y       z     vdW  Elec       q    Type
REMARK                         _______ _______ _______ _____ _____    ______ ____
ROOT
ATOM      1  C   UNL     1      -2.999  -2.535  -1.381  0.00  0.00    +0.173 A 
ATOM      2  N   UNL     1      -3.431  -3.337  -2.393  0.00  0.00    -0.302 N 
ATOM      3  C   UNL     1      -4.610  -3.985  -2.282  0.00  0.00    +0.260 A 
ATOM      4  C   UNL     1      -5.367  -3.814  -1.116  0.00  0.00    +0.091 A 
ATOM      5  C   UNL     1      -4.884  -2.989  -0.118  0.00  0.00    +0.234 A 
ATOM      6  N   UNL     1      -3.706  -2.375  -0.281  0.00  0.00    -0.188 NA
ATOM      7  O   UNL     1      -5.584  -2.798   1.021  0.00  0.00    -0.423 OA
ATOM      8  C   UNL     1      -6.897  -3.084   1.059  0.00  0.00    +0.200 C 
ATOM      9  C   UNL     1      -7.482  -3.896   0.147  0.00  0.00    +0.098 C 
ATOM     10  C   UNL     1      -6.684  -4.522  -0.963  0.00  0.00    +0.105 C 
ATOM     11  O   UNL     1      -5.010  -4.707  -3.181  0.00  0.00    -0.267 OA
ATOM     12  H   UNL     1      -2.893  -3.443  -3.192  0.00  0.00    +0.171 HD
ENDROOT
BRANCH  10  13
ATOM     13  C   UNL     1      -6.436  -5.974  -0.641  0.00  0.00    -0.034 A 
ATOM     14  C   UNL     1      -5.739  -6.319   0.501  0.00  0.00    +0.004 A 
ATOM     15  C   UNL     1      -5.511  -7.651   0.796  0.00  0.00    +0.000 A 
ATOM     16  C   UNL     1      -5.981  -8.636  -0.052  0.00  0.00    +0.000 A 
ATOM     17  C   UNL     1      -6.678  -8.291  -1.194  0.00  0.00    +0.000 A 
ATOM     18  C   UNL     1      -6.910  -6.960  -1.486  0.00  0.00    +0.004 A 
ENDBRANCH  10  13
BRANCH   8  19
ATOM     19  N   UNL     1      -7.668  -2.536   2.053  0.00  0.00    -0.328 N 
ATOM     20  H   UNL     1      -7.265  -1.952   2.714  0.00  0.00    +0.145 HD
ATOM     21  H   UNL     1      -8.617  -2.732   2.094  0.00  0.00    +0.145 HD
ENDBRANCH   8  19
BRANCH   9  22
ATOM     22  C   UNL     1      -8.886  -4.163   0.241  0.00  0.00    +0.101 C 
ATOM     23  N   UNL     1      -9.999  -4.374   0.315  0.00  0.00    -0.191 NA
ENDBRANCH   9  22
BRANCH   1  24
ATOM     24  S   UNL     1      -1.457  -1.697  -1.543  0.00  0.00    -0.084 S 
BRANCH  24  25
ATOM     25  C   UNL     1      -1.293  -0.775   0.010  0.00  0.00    +0.104 C 
BRANCH  25  27
ATOM     26  C   UNL     1      -0.016   1.306   0.009  0.00  0.00    +0.005 C 
ATOM     27  C   UNL     1       0.002  -0.004   0.002  0.00  0.00    -0.023 C 
ENDBRANCH  25  27
ENDBRANCH  24  25
ENDBRANCH   1  24
TORSDOF 6
