REMARK  Name = ZINC39666165
REMARK  9 active torsions:
REMARK  status: ('A' for Active; 'I' for Inactive)
REMARK    1  A    between atoms: C_1  and  C_2
REMARK    2  A    between atoms: C_5  and  O_8
REMARK    3  A    between atoms: O_8  and  C_9
REMARK    4  A    between atoms: C_9  and  C_11
REMARK    5  A    between atoms: C_9  and  C_12
REMARK    6  A    between atoms: C_12  and  N_13
REMARK    7  A    between atoms: C_14  and  C_16
REMARK    8  A    between atoms: C_27  and  C_29
REMARK    9  A    between atoms: C_34  and  C_35
REMARK                            x       y       z     vdW  Elec       q    Type
REMARK                         _______ _______ _______ _____ _____    ______ ____
ROOT
ATOM      1  C   UNL     1      -4.408  -6.831   0.186  0.00  0.00    +0.100 C 
ATOM      2  C   UNL     1      -4.832  -5.870   1.319  0.00  0.00    +0.121 C 
ATOM      3  N   UNL     1      -6.175  -6.345   1.729  0.00  0.00    -0.296 N 
ATOM      4  C   UNL     1      -6.074  -7.823   1.681  0.00  0.00    +0.115 C 
ATOM      5  C   UNL     1      -5.224  -8.112   0.428  0.00  0.00    -0.004 C 
ATOM      6  C   UNL     1      -4.292  -9.292   0.683  0.00  0.00    -0.010 C 
ATOM      7  C   UNL     1      -5.124 -10.565   0.863  0.00  0.00    -0.082 C 
ATOM      8  N   UNL     1      -5.926 -10.801  -0.344  0.00  0.00    +0.379 N 
ATOM      9  C   UNL     1      -6.885  -9.705  -0.530  0.00  0.00    -0.082 C 
ATOM     10  C   UNL     1      -6.127  -8.396  -0.769  0.00  0.00    -0.010 C 
ATOM     11  C   UNL     1      -7.247  -5.601   2.068  0.00  0.00    +0.247 C 
ATOM     12  O   UNL     1      -8.311  -6.139   2.301  0.00  0.00    -0.270 OA
ATOM     13  H   UNL     1      -5.316 -10.853  -1.146  0.00  0.00    -0.086 HD
ATOM     14  H   UNL     1      -6.427 -11.672  -0.248  0.00  0.00    -0.086 HD
ENDROOT
BRANCH  11  15
ATOM     15  C   UNL     1      -7.127  -4.130   2.157  0.00  0.00    +0.043 A 
ATOM     16  C   UNL     1      -5.960  -3.550   2.658  0.00  0.00    +0.051 A 
ATOM     17  C   UNL     1      -5.855  -2.175   2.737  0.00  0.00    +0.124 A 
ATOM     18  C   UNL     1      -6.905  -1.373   2.321  0.00  0.00    +0.038 A 
ATOM     19  C   UNL     1      -8.063  -1.942   1.824  0.00  0.00    +0.007 A 
ATOM     20  C   UNL     1      -8.178  -3.315   1.734  0.00  0.00    -0.038 A 
ATOM     21  C   UNL     1      -9.439  -3.932   1.187  0.00  0.00    +0.044 C 
ATOM     22  F   UNL     1      -4.727  -1.612   3.222  0.00  0.00    -0.205 F 
ENDBRANCH  11  15
BRANCH   1  24
ATOM     23  N   UNL     1      -2.233  -7.402  -0.845  0.00  0.00    -0.312 N 
ATOM     24  C   UNL     1      -2.932  -7.125   0.273  0.00  0.00    +0.218 C 
ATOM     25  O   UNL     1      -2.373  -7.111   1.349  0.00  0.00    -0.275 OA
ATOM     26  H   UNL     1      -2.680  -7.413  -1.706  0.00  0.00    +0.149 HD
BRANCH  23  27
ATOM     27  C   UNL     1      -0.799  -7.688  -0.761  0.00  0.00    +0.148 C 
BRANCH  27  28
ATOM     28  C   UNL     1      -0.251  -7.968  -2.162  0.00  0.00    +0.187 C 
ATOM     29  C   UNL     1       1.247  -8.267  -2.074  0.00  0.00    +0.053 C 
BRANCH  28  30
ATOM     30  O   UNL     1      -0.929  -9.095  -2.722  0.00  0.00    -0.488 OA
BRANCH  30  35
ATOM     31  C   UNL     1      -1.038  -9.481  -8.340  0.00  0.00    +0.044 C 
ATOM     32  C   UNL     1      -1.010  -9.377  -6.837  0.00  0.00    -0.050 A 
ATOM     33  C   UNL     1      -0.419  -8.283  -6.231  0.00  0.00    +0.007 A 
ATOM     34  C   UNL     1      -0.391  -8.186  -4.854  0.00  0.00    +0.046 A 
ATOM     35  C   UNL     1      -0.956  -9.188  -4.077  0.00  0.00    +0.121 A 
ATOM     36  C   UNL     1      -1.548 -10.284  -4.687  0.00  0.00    +0.046 A 
ATOM     37  C   UNL     1      -1.578 -10.374  -6.065  0.00  0.00    +0.007 A 
ENDBRANCH  30  35
ENDBRANCH  28  30
ENDBRANCH  27  28
ENDBRANCH  23  27
ENDBRANCH   1  24
TORSDOF 6
