REMARK  Name = ZINC04631186
REMARK  9 active torsions:
REMARK  status: ('A' for Active; 'I' for Inactive)
REMARK    1  A    between atoms: C_1  and  C_2
REMARK    2  A    between atoms: N_7  and  C_8
REMARK    3  A    between atoms: C_8  and  C_10
REMARK    4  A    between atoms: C_8  and  C_19
REMARK    5  A    between atoms: C_13  and  O_17
REMARK    6  A    between atoms: C_14  and  C_16
REMARK    7  A    between atoms: O_17  and  C_18
REMARK    8  A    between atoms: C_25  and  C_30
REMARK    9  A    between atoms: C_28  and  O_29
REMARK                            x       y       z     vdW  Elec       q    Type
REMARK                         _______ _______ _______ _____ _____    ______ ____
ROOT
ATOM      1  C   UNL     1       4.931   4.013  -0.002  0.00  0.00    +0.136 C 
ENDROOT
BRANCH   1   2
ATOM      2  C   UNL     1       3.812   3.031  -0.240  0.00  0.00    +0.021 A 
ATOM      3  C   UNL     1       4.075   1.665  -0.182  0.00  0.00    +0.010 A 
ATOM      4  C   UNL     1       3.086   0.753  -0.393  0.00  0.00    +0.010 A 
ATOM      5  C   UNL     1       1.782   1.192  -0.673  0.00  0.00    +0.004 A 
ATOM      6  C   UNL     1       0.734   0.279  -0.896  0.00  0.00    +0.012 A 
ATOM      7  C   UNL     1      -0.508   0.777  -1.169  0.00  0.00    +0.023 A 
ATOM      8  C   UNL     1      -0.710   2.155  -1.211  0.00  0.00    +0.039 A 
ATOM      9  N   UNL     1       0.268   3.002  -1.001  0.00  0.00    -0.248 NA
ATOM     10  C   UNL     1       1.507   2.580  -0.734  0.00  0.00    +0.113 A 
ATOM     11  C   UNL     1       2.557   3.496  -0.511  0.00  0.00    +0.148 A 
ATOM     12  C   UNL     1      -2.089   2.686  -1.509  0.00  0.00    +0.065 C 
BRANCH  11  13
ATOM     13  O   UNL     1       2.320   4.832  -0.563  0.00  0.00    -0.504 OA
ATOM     14  H   UNL     1       2.436   5.218  -1.442  0.00  0.00    +0.292 HD
ENDBRANCH  11  13
ENDBRANCH   1   2
BRANCH   1  21
ATOM     15  C   UNL     1       5.415   4.576  -5.075  0.00  0.00    +0.044 C 
ATOM     16  C   UNL     1       6.278   4.010  -3.977  0.00  0.00    -0.046 A 
ATOM     17  C   UNL     1       7.547   3.517  -4.254  0.00  0.00    +0.021 A 
ATOM     18  C   UNL     1       8.313   3.006  -3.226  0.00  0.00    +0.084 A 
ATOM     19  C   UNL     1       6.651   3.441  -1.684  0.00  0.00    +0.097 A 
ATOM     20  C   UNL     1       5.825   3.971  -2.671  0.00  0.00    +0.045 A 
ATOM     21  N   UNL     1       6.208   3.396  -0.367  0.00  0.00    -0.320 N 
ATOM     22  H   UNL     1       6.745   2.955   0.310  0.00  0.00    +0.148 HD
ATOM     23  N   UNL     1       7.902   2.957  -1.930  0.00  0.00    -0.350 N 
ATOM     24  H   UNL     1       8.497   2.579  -1.183  0.00  0.00    +0.166 HD
ENDBRANCH   1  21
BRANCH   1  25
ATOM     25  C   UNL     1       4.958   4.399   1.454  0.00  0.00    -0.022 A 
ATOM     26  C   UNL     1       5.466   3.519   2.393  0.00  0.00    +0.009 A 
ATOM     27  C   UNL     1       5.497   3.873   3.728  0.00  0.00    +0.046 A 
ATOM     28  C   UNL     1       5.008   5.109   4.128  0.00  0.00    +0.123 A 
ATOM     29  C   UNL     1       4.495   5.987   3.186  0.00  0.00    -0.008 A 
ATOM     30  C   UNL     1       4.470   5.630   1.851  0.00  0.00    +0.012 A 
ATOM     31  C   UNL     1       3.963   7.330   3.617  0.00  0.00    +0.047 C 
BRANCH  28  32
ATOM     32  O   UNL     1       5.033   5.457   5.441  0.00  0.00    -0.495 OA
ATOM     33  C   UNL     1       5.577   4.503   6.356  0.00  0.00    +0.277 C 
ENDBRANCH  28  32
ENDBRANCH   1  25
TORSDOF 5
