REMARK  Name = ZINC23484520
REMARK  8 active torsions:
REMARK  status: ('A' for Active; 'I' for Inactive)
REMARK    1  A    between atoms: C_1  and  C_2
REMARK    2  A    between atoms: C_2  and  C_4
REMARK    3  A    between atoms: C_2  and  S_18
REMARK    4  A    between atoms: C_4  and  C_6
REMARK    5  A    between atoms: C_6  and  C_16
REMARK    6  A    between atoms: S_18  and  C_19
REMARK    7  A    between atoms: C_22  and  C_30
REMARK    8  A    between atoms: N_23  and  C_24
REMARK                            x       y       z     vdW  Elec       q    Type
REMARK                         _______ _______ _______ _____ _____    ______ ____
ROOT
ATOM      1  C   UNL     1      -4.471  -4.505  -1.413  0.00  0.00    +0.028 C 
ATOM      2  C   UNL     1      -4.203  -4.052   0.024  0.00  0.00    +0.123 C 
ENDROOT
BRANCH   2   3
ATOM      3  C   UNL     1      -3.181  -2.944   0.019  0.00  0.00    +0.189 C 
ATOM      4  O   UNL     1      -3.543  -1.784   0.028  0.00  0.00    -0.290 OA
BRANCH   3   5
ATOM      5  C   UNL     1      -1.811  -3.252   0.004  0.00  0.00    +0.123 C 
ATOM      6  C   UNL     1      -0.857  -2.218  -0.001  0.00  0.00    +0.091 C 
ATOM      7  N   UNL     1      -1.069  -0.876   0.008  0.00  0.00    -0.307 N 
ATOM      8  C   UNL     1       0.002  -0.004   0.002  0.00  0.00    +0.046 A 
ATOM      9  C   UNL     1      -0.017   1.400   0.010  0.00  0.00    +0.024 A 
ATOM     10  C   UNL     1       1.155   2.119   0.002  0.00  0.00    +0.002 A 
ATOM     11  C   UNL     1       2.386   1.485  -0.012  0.00  0.00    +0.001 A 
ATOM     12  C   UNL     1       2.434   0.102  -0.020  0.00  0.00    +0.017 A 
ATOM     13  C   UNL     1       1.263  -0.618  -0.013  0.00  0.00    +0.035 A 
ATOM     14  S   UNL     1       0.872  -2.349  -0.018  0.00  0.00    -0.071 S 
ATOM     15  H   UNL     1      -2.096  -0.482   0.020  0.00  0.00    +0.153 HD
BRANCH   5  16
ATOM     16  C   UNL     1      -1.385  -4.620  -0.008  0.00  0.00    +0.105 C 
ATOM     17  N   UNL     1      -1.047  -5.704  -0.016  0.00  0.00    -0.191 NA
ENDBRANCH   5  16
ENDBRANCH   3   5
ENDBRANCH   2   3
BRANCH   2  18
ATOM     18  S   UNL     1      -5.742  -3.451   0.763  0.00  0.00    -0.075 S 
BRANCH  18  19
ATOM     19  C   UNL     1      -6.677  -4.944   0.781  0.00  0.00    +0.193 A 
ATOM     20  N   UNL     1      -6.278  -6.118   0.346  0.00  0.00    -0.122 NA
ATOM     21  N   UNL     1      -7.207  -6.990   0.511  0.00  0.00    -0.125 NA
ATOM     22  C   UNL     1      -8.262  -6.424   1.054  0.00  0.00    +0.201 A 
ATOM     23  N   UNL     1      -7.954  -5.095   1.244  0.00  0.00    -0.297 N 
BRANCH  23  24
ATOM     24  C   UNL     1      -8.815  -4.060   1.820  0.00  0.00    +0.091 C 
ATOM     25  C   UNL     1      -9.034  -2.948   0.793  0.00  0.00    +0.025 C 
ATOM     26  C   UNL     1      -9.934  -1.866   1.395  0.00  0.00    +0.002 C 
ATOM     27  C   UNL     1      -9.265  -1.284   2.642  0.00  0.00    +0.000 C 
ATOM     28  C   UNL     1      -9.046  -2.396   3.670  0.00  0.00    +0.002 C 
ATOM     29  C   UNL     1      -8.147  -3.477   3.067  0.00  0.00    +0.025 C 
ENDBRANCH  23  24
BRANCH  22  30
ATOM     30  C   UNL     1      -9.532  -7.085   1.395  0.00  0.00    +0.172 A 
ATOM     31  C   UNL     1      -9.943  -8.306   0.952  0.00  0.00    +0.053 A 
ATOM     32  C   UNL     1     -11.206  -8.543   1.527  0.00  0.00    +0.042 A 
ATOM     33  C   UNL     1     -11.507  -7.464   2.278  0.00  0.00    +0.196 A 
ATOM     34  O   UNL     1     -10.494  -6.586   2.196  0.00  0.00    -0.460 OA
ENDBRANCH  22  30
ENDBRANCH  18  19
ENDBRANCH   2  18
TORSDOF 7
