REMARK  Name = ZINC66088215
REMARK  5 active torsions:
REMARK  status: ('A' for Active; 'I' for Inactive)
REMARK    1  A    between atoms: C_4  and  C_7
REMARK    2  A    between atoms: C_10  and  N_37
REMARK    3  A    between atoms: C_11  and  C_35
REMARK    4  A    between atoms: N_15  and  C_23
REMARK    5  A    between atoms: C_24  and  C_32
REMARK                            x       y       z     vdW  Elec       q    Type
REMARK                         _______ _______ _______ _____ _____    ______ ____
ROOT
ATOM      1  C   UNL     1       3.718  -0.710  -0.162  0.00  0.00    +0.089 C 
ATOM      2  C   UNL     1       3.952  -1.628  -1.325  0.00  0.00    +0.027 A 
ATOM      3  C   UNL     1       4.412  -1.111  -2.533  0.00  0.00    +0.053 A 
ATOM      4  C   UNL     1       4.617  -2.000  -3.607  0.00  0.00    +0.112 A 
ATOM      5  C   UNL     1       4.350  -3.366  -3.413  0.00  0.00    +0.138 A 
ATOM      6  N   UNL     1       3.916  -3.805  -2.244  0.00  0.00    -0.215 NA
ATOM      7  C   UNL     1       3.714  -2.990  -1.215  0.00  0.00    +0.138 A 
ATOM      8  N   UNL     1       3.263  -3.506  -0.005  0.00  0.00    -0.250 N 
ATOM      9  C   UNL     1       3.428  -2.803   1.158  0.00  0.00    +0.025 C 
ATOM     10  C   UNL     1       3.646  -1.472   1.137  0.00  0.00    +0.024 C 
ATOM     11  C   UNL     1       3.811  -0.750   2.332  0.00  0.00    +0.162 C 
ATOM     12  O   UNL     1       4.025   0.446   2.280  0.00  0.00    -0.292 OA
ATOM     13  C   UNL     1       3.728  -1.426   3.672  0.00  0.00    +0.080 C 
ATOM     14  C   UNL     1       2.811  -2.648   3.557  0.00  0.00    +0.014 C 
ATOM     15  C   UNL     1       3.362  -3.560   2.462  0.00  0.00    +0.052 C 
ATOM     16  N   UNL     1       4.542  -4.258  -4.454  0.00  0.00    -0.342 N 
ATOM     17  H   UNL     1       4.783  -3.932  -5.334  0.00  0.00    +0.144 HD
ATOM     18  H   UNL     1       4.436  -5.211  -4.302  0.00  0.00    +0.144 HD
ENDROOT
BRANCH   8  19
ATOM     19  C   UNL     1       2.639  -4.746   0.023  0.00  0.00    +0.096 A 
ATOM     20  C   UNL     1       3.230  -5.994   0.132  0.00  0.00    +0.084 A 
ATOM     21  C   UNL     1       2.349  -7.148   0.139  0.00  0.00    -0.018 A 
ATOM     22  C   UNL     1       1.036  -6.841   0.036  0.00  0.00    -0.004 A 
ATOM     23  S   UNL     1       0.994  -5.076  -0.058  0.00  0.00    -0.076 S 
ATOM     24  C   UNL     1      -0.112  -7.802   0.014  0.00  0.00    +0.043 C 
ATOM     25  C   UNL     1       0.442  -9.209  -0.254  0.00  0.00    +0.005 C 
ATOM     26  C   UNL     1       1.631  -9.460   0.677  0.00  0.00    +0.005 C 
ATOM     27  C   UNL     1       2.817  -8.591   0.252  0.00  0.00    +0.037 C 
BRANCH  20  28
ATOM     28  C   UNL     1       4.651  -6.140   0.232  0.00  0.00    +0.102 C 
ATOM     29  N   UNL     1       5.778  -6.256   0.311  0.00  0.00    -0.191 NA
ENDBRANCH  20  28
ENDBRANCH   8  19
BRANCH   1  33
ATOM     30  C   UNL     1       0.043   1.385  -0.757  0.00  0.00    +0.000 A 
ATOM     31  C   UNL     1       1.229   2.086  -0.654  0.00  0.00    +0.000 A 
ATOM     32  C   UNL     1       2.419   1.408  -0.461  0.00  0.00    +0.004 A 
ATOM     33  C   UNL     1       2.421   0.029  -0.371  0.00  0.00    -0.035 A 
ATOM     34  C   UNL     1       1.234  -0.672  -0.474  0.00  0.00    +0.004 A 
ATOM     35  C   UNL     1       0.045   0.005  -0.668  0.00  0.00    +0.000 A 
ENDBRANCH   1  33
BRANCH   3  36
ATOM     36  N   UNL     1       4.660   0.246  -2.676  0.00  0.00    -0.357 N 
ATOM     37  H   UNL     1       4.514   0.847  -1.929  0.00  0.00    +0.142 HD
ATOM     38  H   UNL     1       4.980   0.593  -3.523  0.00  0.00    +0.142 HD
ENDBRANCH   3  36
BRANCH   4  39
ATOM     39  C   UNL     1       5.090  -1.521  -4.871  0.00  0.00    +0.104 C 
ATOM     40  N   UNL     1       5.465  -1.141  -5.874  0.00  0.00    -0.191 NA
ENDBRANCH   4  39
TORSDOF 5
