REMARK  Name = ZINC22302034
REMARK  7 active torsions:
REMARK  status: ('A' for Active; 'I' for Inactive)
REMARK    1  A    between atoms: C_1  and  C_2
REMARK    2  A    between atoms: C_6  and  C_16
REMARK    3  A    between atoms: N_8  and  C_9
REMARK    4  A    between atoms: C_21  and  C_24
REMARK    5  A    between atoms: C_24  and  N_25
REMARK    6  A    between atoms: C_27  and  C_34
REMARK    7  A    between atoms: C_30  and  C_33
REMARK                            x       y       z     vdW  Elec       q    Type
REMARK                         _______ _______ _______ _____ _____    ______ ____
ROOT
ATOM      1  C   UNL     1       0.312  -4.182   0.279  0.00  0.00    +0.274 C 
ATOM      2  O   UNL     1       0.236  -4.878  -0.716  0.00  0.00    -0.268 OA
ATOM      3  N   UNL     1       0.532  -4.748   1.482  0.00  0.00    -0.259 N 
ATOM      4  C   UNL     1       0.672  -6.126   1.586  0.00  0.00    +0.165 A 
ATOM      5  N   UNL     1       0.883  -6.847   2.666  0.00  0.00    -0.228 NA
ATOM      6  C   UNL     1       0.993  -8.161   2.599  0.00  0.00    +0.064 A 
ATOM      7  C   UNL     1       0.879  -8.726   1.372  0.00  0.00    +0.073 A 
ATOM      8  S   UNL     1       0.604  -7.280   0.362  0.00  0.00    -0.060 S 
ATOM      9  H   UNL     1       0.593  -4.193   2.275  0.00  0.00    +0.157 HD
ENDROOT
BRANCH   1  15
ATOM     10  C   UNL     1      -0.237   1.491   0.037  0.00  0.00    +0.066 C 
ATOM     11  C   UNL     1      -0.103  -0.010   0.015  0.00  0.00    +0.044 A 
ATOM     12  C   UNL     1      -0.208  -0.673  -1.161  0.00  0.00    +0.076 A 
ATOM     13  C   UNL     1      -0.076  -2.086  -1.139  0.00  0.00    +0.213 A 
ATOM     14  O   UNL     1      -0.159  -2.748  -2.161  0.00  0.00    -0.285 OA
ATOM     15  C   UNL     1       0.164  -2.718   0.168  0.00  0.00    +0.193 A 
ATOM     16  N   UNL     1       0.244  -1.953   1.236  0.00  0.00    -0.158 NA
ATOM     17  N   UNL     1       0.125  -0.678   1.172  0.00  0.00    -0.235 N 
BRANCH  17  18
ATOM     18  C   UNL     1       0.230   0.060   2.356  0.00  0.00    +0.084 A 
ATOM     19  C   UNL     1       1.447   0.620   2.721  0.00  0.00    +0.029 A 
ATOM     20  C   UNL     1       1.548   1.348   3.890  0.00  0.00    +0.002 A 
ATOM     21  C   UNL     1       0.438   1.520   4.698  0.00  0.00    +0.002 A 
ATOM     22  C   UNL     1      -0.775   0.963   4.338  0.00  0.00    +0.022 A 
ATOM     23  C   UNL     1      -0.885   0.238   3.167  0.00  0.00    +0.066 A 
ATOM     24 CL   UNL     1      -2.410  -0.455   2.712  0.00  0.00    -0.081 Cl
ENDBRANCH  17  18
ENDBRANCH   1  15
BRANCH   6  25
ATOM     25  C   UNL     1       1.236  -8.995   3.830  0.00  0.00    +0.140 C 
BRANCH  25  26
ATOM     26  N   UNL     1       2.676  -9.041   4.114  0.00  0.00    -0.292 NA
ATOM     27  C   UNL     1       3.398  -9.769   3.060  0.00  0.00    +0.116 C 
ATOM     28  C   UNL     1       4.898  -9.742   3.364  0.00  0.00    +0.130 C 
ATOM     29  O   UNL     1       5.127 -10.300   4.660  0.00  0.00    -0.371 OA
ATOM     30  C   UNL     1       4.439  -9.616   5.711  0.00  0.00    +0.130 C 
ATOM     31  C   UNL     1       2.935  -9.641   5.431  0.00  0.00    +0.116 C 
ATOM     32  C   UNL     1       4.923  -8.166   5.778  0.00  0.00    +0.039 C 
ATOM     33  C   UNL     1       5.647 -10.564   2.313  0.00  0.00    +0.039 C 
ENDBRANCH  25  26
ENDBRANCH   6  25
TORSDOF 4
