REMARK  Name = ZINC03430288
REMARK  8 active torsions:
REMARK  status: ('A' for Active; 'I' for Inactive)
REMARK    1  A    between atoms: C_1  and  C_2
REMARK    2  A    between atoms: C_2  and  O_3
REMARK    3  A    between atoms: O_3  and  C_4
REMARK    4  A    between atoms: C_7  and  N_10
REMARK    5  A    between atoms: C_11  and  C_23
REMARK    6  A    between atoms: C_14  and  S_15
REMARK    7  A    between atoms: S_15  and  C_16
REMARK    8  A    between atoms: C_16  and  C_17
REMARK                            x       y       z     vdW  Elec       q    Type
REMARK                         _______ _______ _______ _____ _____    ______ ____
ROOT
ATOM      1  N   UNL     1       1.285   1.733  -0.001  0.00  0.00    -0.270 N 
ATOM      2  C   UNL     1       2.047   0.585  -0.014  0.00  0.00    +0.169 A 
ATOM      3  N   UNL     1       1.214  -0.430  -0.012  0.00  0.00    -0.128 NA
ATOM      4  N   UNL     1       0.002  -0.004   0.002  0.00  0.00    -0.122 NA
ATOM      5  C   UNL     1      -0.016   1.310   0.009  0.00  0.00    +0.197 A 
ENDROOT
BRANCH   2   6
ATOM      6  C   UNL     1       3.523   0.511  -0.028  0.00  0.00    +0.020 A 
ATOM      7  C   UNL     1       4.285   1.640   0.278  0.00  0.00    +0.012 A 
ATOM      8  C   UNL     1       5.662   1.563   0.268  0.00  0.00    +0.016 A 
ATOM      9  C   UNL     1       6.289   0.371  -0.054  0.00  0.00    +0.018 A 
ATOM     10  C   UNL     1       5.539  -0.751  -0.364  0.00  0.00    +0.016 A 
ATOM     11  C   UNL     1       4.162  -0.687  -0.353  0.00  0.00    +0.012 A 
ATOM     12 BR   UNL     1       8.178   0.276  -0.072  0.00  0.00    -0.050 Br
ENDBRANCH   2   6
BRANCH   1  16
ATOM     13  C   UNL     1       2.659   5.672   0.007  0.00  0.00    +0.121 A 
ATOM     14  C   UNL     1       1.961   5.178   1.101  0.00  0.00    +0.047 A 
ATOM     15  C   UNL     1       1.506   3.875   1.098  0.00  0.00    +0.030 A 
ATOM     16  C   UNL     1       1.747   3.058   0.002  0.00  0.00    +0.051 A 
ATOM     17  C   UNL     1       2.449   3.550  -1.089  0.00  0.00    +0.030 A 
ATOM     18  C   UNL     1       2.899   4.856  -1.088  0.00  0.00    +0.047 A 
BRANCH  13  19
ATOM     19  O   UNL     1       3.107   6.955   0.011  0.00  0.00    -0.492 OA
BRANCH  19  21
ATOM     20  C   UNL     1       4.239   8.856  -0.962  0.00  0.00    +0.048 C 
ATOM     21  C   UNL     1       3.817   7.397  -1.148  0.00  0.00    +0.225 C 
ENDBRANCH  19  21
ENDBRANCH  13  19
ENDBRANCH   1  16
BRANCH   5  22
ATOM     22  S   UNL     1      -1.448   2.336   0.022  0.00  0.00    -0.076 S 
BRANCH  22  23
ATOM     23  C   UNL     1      -2.742   1.070   0.022  0.00  0.00    +0.173 C 
BRANCH  23  24
ATOM     24  C   UNL     1      -4.094   1.734   0.033  0.00  0.00    +0.231 C 
ATOM     25  O   UNL     1      -4.176   2.944   0.039  0.00  0.00    -0.274 OA
ATOM     26  N   UNL     1      -5.214   0.984   0.035  0.00  0.00    -0.240 N 
ATOM     27  C   UNL     1      -6.423   1.577   0.044  0.00  0.00    +0.303 C 
ATOM     28  O   UNL     1      -6.505   2.790   0.051  0.00  0.00    -0.253 OA
ATOM     29  N   UNL     1      -7.543   0.827   0.046  0.00  0.00    -0.313 N 
ATOM     30  H   UNL     1      -5.140  -0.114   0.029  0.00  0.00    +0.159 HD
ATOM     31  H   UNL     1      -8.530   1.311   0.054  0.00  0.00    +0.146 HD
ATOM     32  H   UNL     1      -7.469  -0.271   0.040  0.00  0.00    +0.146 HD
ENDBRANCH  23  24
ENDBRANCH  22  23
ENDBRANCH   5  22
TORSDOF 7
