REMARK  Name = ZINC08912051
REMARK  6 active torsions:
REMARK  status: ('A' for Active; 'I' for Inactive)
REMARK    1  A    between atoms: C_1  and  C_2
REMARK    2  A    between atoms: C_2  and  C_3
REMARK    3  A    between atoms: C_4  and  C_29
REMARK    4  A    between atoms: C_13  and  C_16
REMARK    5  A    between atoms: N_21  and  C_24
REMARK    6  A    between atoms: C_32  and  C_35
REMARK                            x       y       z     vdW  Elec       q    Type
REMARK                         _______ _______ _______ _____ _____    ______ ____
ROOT
ATOM      1  C   UNL     1      -1.518  -2.041  -0.463  0.00  0.00    +0.021 C 
ATOM      2  C   UNL     1      -1.259  -0.772  -0.073  0.00  0.00    +0.126 C 
ATOM      3  S   UNL     1      -2.866  -0.212   0.453  0.00  0.00    +0.101 S 
ATOM      4  O   UNL     1      -2.818  -0.016   1.859  0.00  0.00    -0.146 OA
ATOM      5  O   UNL     1      -3.299   0.784  -0.464  0.00  0.00    -0.146 OA
ATOM      6  N   UNL     1      -3.759  -1.597   0.161  0.00  0.00    -0.113 NA
ATOM      7  C   UNL     1      -2.899  -2.454  -0.313  0.00  0.00    +0.148 C 
ATOM      8  N   UNL     1      -3.297  -3.728  -0.669  0.00  0.00    -0.314 N 
ATOM      9  C   UNL     1      -2.321  -4.824  -0.740  0.00  0.00    +0.107 C 
ATOM     10  C   UNL     1      -2.828  -5.986   0.129  0.00  0.00    +0.032 C 
ATOM     11  C   UNL     1      -4.240  -6.371  -0.317  0.00  0.00    +0.078 C 
ATOM     12  C   UNL     1      -5.181  -5.180  -0.124  0.00  0.00    +0.032 C 
ATOM     13  C   UNL     1      -4.702  -4.011  -0.991  0.00  0.00    +0.107 C 
ENDROOT
BRANCH  11  14
ATOM     14  C   UNL     1      -4.727  -7.534   0.508  0.00  0.00    +0.219 C 
ATOM     15  O   UNL     1      -5.407  -7.337   1.492  0.00  0.00    -0.275 OA
ATOM     16  N   UNL     1      -4.406  -8.794   0.153  0.00  0.00    -0.298 N 
ATOM     17  C   UNL     1      -3.679  -9.064  -1.097  0.00  0.00    +0.126 C 
ATOM     18  C   UNL     1      -2.468  -9.952  -0.768  0.00  0.00    +0.125 C 
ATOM     19  N   UNL     1      -2.925 -11.146  -0.046  0.00  0.00    -0.314 N 
ATOM     20  C   UNL     1      -3.530 -10.790   1.244  0.00  0.00    +0.125 C 
ATOM     21  C   UNL     1      -4.779  -9.936   1.001  0.00  0.00    +0.126 C 
BRANCH  19  22
ATOM     22  C   UNL     1      -1.886 -12.054   0.124  0.00  0.00    +0.099 A 
ATOM     23  C   UNL     1      -1.185 -12.515  -0.985  0.00  0.00    +0.042 A 
ATOM     24  C   UNL     1      -0.153 -13.417  -0.801  0.00  0.00    +0.005 A 
ATOM     25  C   UNL     1       0.144 -13.830   0.491  0.00  0.00    +0.018 A 
ATOM     26  C   UNL     1      -0.593 -13.332   1.546  0.00  0.00    +0.084 A 
ATOM     27  N   UNL     1      -1.610 -12.440   1.403  0.00  0.00    -0.350 N 
ATOM     28  H   UNL     1      -2.136 -12.079   2.208  0.00  0.00    +0.166 HD
ENDBRANCH  19  22
ENDBRANCH  11  14
BRANCH   2  29
ATOM     29  C   UNL     1       0.019  -0.040  -0.087  0.00  0.00    +0.002 A 
ATOM     30  C   UNL     1       0.028   1.357  -0.137  0.00  0.00    +0.010 A 
ATOM     31  C   UNL     1       1.229   2.035  -0.149  0.00  0.00    +0.004 A 
ATOM     32  C   UNL     1       2.423   1.336  -0.113  0.00  0.00    -0.050 A 
ATOM     33  C   UNL     1       2.422  -0.047  -0.063  0.00  0.00    +0.004 A 
ATOM     34  C   UNL     1       1.229  -0.739  -0.050  0.00  0.00    +0.010 A 
ATOM     35  C   UNL     1       3.730   2.085  -0.127  0.00  0.00    +0.044 C 
ENDBRANCH   2  29
BRANCH   1  37
ATOM     36  C   UNL     1       0.245  -3.674   0.151  0.00  0.00    +0.009 C 
ATOM     37  C   UNL     1      -0.451  -2.957  -1.007  0.00  0.00    +0.037 C 
ENDBRANCH   1  37
TORSDOF 4
