REMARK  Name = ZINC36155929
REMARK  11 active torsions:
REMARK  status: ('A' for Active; 'I' for Inactive)
REMARK    1  A    between atoms: C_1  and  C_2
REMARK    2  A    between atoms: C_2  and  C_3
REMARK    3  A    between atoms: C_3  and  C_5
REMARK    4  A    between atoms: C_3  and  O_36
REMARK    5  A    between atoms: C_5  and  N_6
REMARK    6  A    between atoms: N_6  and  C_7
REMARK    7  A    between atoms: N_6  and  C_13
REMARK    8  A    between atoms: C_7  and  C_8
REMARK    9  A    between atoms: C_13  and  C_14
REMARK   10  A    between atoms: N_26  and  C_29
REMARK   11  A    between atoms: C_29  and  C_30
REMARK                            x       y       z     vdW  Elec       q    Type
REMARK                         _______ _______ _______ _____ _____    ______ ____
ROOT
ATOM      1  C   UNL     1      -3.290  -0.465  -1.245  0.00  0.00    +0.094 A 
ATOM      2  N   UNL     1      -3.752   0.281  -2.281  0.00  0.00    -0.312 N 
ATOM      3  H   UNL     1      -4.125  -0.164  -3.058  0.00  0.00    +0.170 HD
ATOM      4  C   UNL     1      -3.706   1.626  -2.252  0.00  0.00    +0.260 A 
ATOM      5  O   UNL     1      -4.126   2.281  -3.190  0.00  0.00    -0.267 OA
ATOM      6  C   UNL     1      -3.154   2.276  -1.099  0.00  0.00    +0.075 A 
ATOM      7  C   UNL     1      -3.000   3.706  -0.847  0.00  0.00    -0.020 A 
ATOM      8  C   UNL     1      -2.444   4.066   0.331  0.00  0.00    +0.010 A 
ATOM      9  S   UNL     1      -2.099   2.540   1.161  0.00  0.00    -0.072 S 
ATOM     10  C   UNL     1      -2.702   1.421  -0.079  0.00  0.00    +0.116 A 
ATOM     11  N   UNL     1      -2.787   0.098  -0.179  0.00  0.00    -0.229 NA
ATOM     12  C   UNL     1      -2.184   5.462   0.806  0.00  0.00    +0.127 C 
ATOM     13  N   UNL     1      -2.300   6.371  -0.350  0.00  0.00    -0.293 NA
ATOM     14  C   UNL     1      -3.541   6.110  -1.092  0.00  0.00    +0.090 C 
ATOM     15  C   UNL     1      -3.436   4.779  -1.841  0.00  0.00    +0.052 C 
ENDROOT
BRANCH   1  16
ATOM     16  C   UNL     1      -3.363  -1.968  -1.324  0.00  0.00    -0.003 C 
BRANCH  16  17
ATOM     17  N   UNL     1      -2.942  -2.547  -0.042  0.00  0.00    +0.391 N 
ATOM     18  H   UNL     1      -2.037  -2.179   0.213  0.00  0.00    -0.080 HD
BRANCH  17  19
ATOM     19  C   UNL     1      -2.858  -4.008  -0.168  0.00  0.00    -0.046 C 
BRANCH  19  20
ATOM     20  C   UNL     1      -1.736  -4.372  -1.142  0.00  0.00    +0.098 C 
BRANCH  20  22
ATOM     21  C   UNL     1      -0.630  -6.251  -2.363  0.00  0.00    +0.006 C 
ATOM     22  C   UNL     1      -1.667  -5.893  -1.296  0.00  0.00    +0.026 C 
ENDBRANCH  20  22
BRANCH  20  23
ATOM     23  O   UNL     1      -0.490  -3.887  -0.637  0.00  0.00    -0.394 OA
ATOM     24  H   UNL     1      -0.247  -4.250   0.226  0.00  0.00    +0.210 HD
ENDBRANCH  20  23
ENDBRANCH  19  20
ENDBRANCH  17  19
BRANCH  17  25
ATOM     25  C   UNL     1      -3.921  -2.201   0.998  0.00  0.00    -0.002 C 
BRANCH  25  26
ATOM     26  C   UNL     1      -3.428  -2.689   2.335  0.00  0.00    +0.089 A 
ATOM     27  C   UNL     1      -2.667  -1.989   3.196  0.00  0.00    +0.042 A 
ATOM     28  C   UNL     1      -2.441  -2.824   4.315  0.00  0.00    +0.041 A 
ATOM     29  C   UNL     1      -3.077  -3.984   4.070  0.00  0.00    +0.195 A 
ATOM     30  O   UNL     1      -3.677  -3.894   2.872  0.00  0.00    -0.470 OA
ENDBRANCH  25  26
ENDBRANCH  17  25
ENDBRANCH  16  17
ENDBRANCH   1  16
BRANCH  13  31
ATOM     31  C   UNL     1      -2.227   7.775   0.075  0.00  0.00    +0.120 C 
BRANCH  31  32
ATOM     32  C   UNL     1      -0.852   8.063   0.622  0.00  0.00    -0.033 A 
ATOM     33  C   UNL     1      -0.590   7.878   1.966  0.00  0.00    +0.005 A 
ATOM     34  C   UNL     1       0.671   8.142   2.468  0.00  0.00    +0.000 A 
ATOM     35  C   UNL     1       1.670   8.591   1.624  0.00  0.00    +0.000 A 
ATOM     36  C   UNL     1       1.408   8.776   0.280  0.00  0.00    +0.000 A 
ATOM     37  C   UNL     1       0.148   8.508  -0.222  0.00  0.00    +0.005 A 
ENDBRANCH  31  32
ENDBRANCH  13  31
TORSDOF 10
