REMARK  Name = ZINC42996865
REMARK  10 active torsions:
REMARK  status: ('A' for Active; 'I' for Inactive)
REMARK    1  A    between atoms: C_1  and  C_2
REMARK    2  A    between atoms: C_5  and  N_8
REMARK    3  A    between atoms: C_9  and  C_11
REMARK    4  A    between atoms: C_11  and  C_13
REMARK    5  A    between atoms: C_11  and  S_16
REMARK    6  A    between atoms: C_13  and  C_14
REMARK    7  A    between atoms: C_13  and  C_15
REMARK    8  A    between atoms: S_16  and  C_17
REMARK    9  A    between atoms: C_20  and  C_24
REMARK   10  A    between atoms: C_21  and  N_23
REMARK                            x       y       z     vdW  Elec       q    Type
REMARK                         _______ _______ _______ _____ _____    ______ ____
ROOT
ATOM      1  C   UNL     1      -0.493  -6.177   2.154  0.00  0.00    +0.142 C 
ENDROOT
BRANCH   1   3
ATOM      2  N   UNL     1      -0.894  -3.907   1.256  0.00  0.00    -0.312 N 
ATOM      3  C   UNL     1      -0.724  -4.698   2.334  0.00  0.00    +0.227 C 
ATOM      4  O   UNL     1      -0.757  -4.221   3.448  0.00  0.00    -0.275 OA
ATOM      5  H   UNL     1      -0.867  -4.288   0.365  0.00  0.00    +0.149 HD
BRANCH   2  10
ATOM      6  C   UNL     1      -0.995   1.796   0.715  0.00  0.00    +0.007 C 
ATOM      7  C   UNL     1      -0.761   0.296   0.532  0.00  0.00    -0.014 C 
ATOM      8  C   UNL     1      -2.107  -0.419   0.402  0.00  0.00    +0.005 C 
ATOM      9  C   UNL     1      -1.873  -1.920   0.219  0.00  0.00    +0.022 C 
ATOM     10  C   UNL     1      -1.118  -2.470   1.432  0.00  0.00    +0.073 C 
ATOM     11  C   UNL     1       0.228  -1.755   1.562  0.00  0.00    +0.022 C 
ATOM     12  C   UNL     1      -0.006  -0.254   1.744  0.00  0.00    +0.005 C 
ENDBRANCH   2  10
ENDBRANCH   1   3
BRANCH   1  13
ATOM     13  C   UNL     1      -1.830  -6.875   1.899  0.00  0.00    +0.005 C 
ATOM     14  C   UNL     1      -2.470  -6.305   0.631  0.00  0.00    +0.009 C 
ATOM     15  C   UNL     1      -1.597  -8.376   1.723  0.00  0.00    +0.009 C 
ENDBRANCH   1  13
BRANCH   1  16
ATOM     16  S   UNL     1       0.269  -6.857   3.653  0.00  0.00    -0.073 S 
BRANCH  16  17
ATOM     17  C   UNL     1       1.881  -6.145   3.673  0.00  0.00    +0.191 A 
ATOM     18  N   UNL     1       2.249  -5.358   2.669  0.00  0.00    -0.229 NA
ATOM     19  C   UNL     1       3.446  -4.803   2.641  0.00  0.00    +0.136 A 
ATOM     20  C   UNL     1       4.337  -5.053   3.691  0.00  0.00    +0.109 A 
ATOM     21  C   UNL     1       3.909  -5.895   4.741  0.00  0.00    +0.138 A 
ATOM     22  N   UNL     1       2.686  -6.408   4.692  0.00  0.00    -0.206 NA
BRANCH  21  23
ATOM     23  N   UNL     1       4.747  -6.176   5.801  0.00  0.00    -0.342 N 
ATOM     24  H   UNL     1       5.638  -5.793   5.830  0.00  0.00    +0.144 HD
ATOM     25  H   UNL     1       4.445  -6.755   6.518  0.00  0.00    +0.144 HD
ENDBRANCH  21  23
BRANCH  20  26
ATOM     26  C   UNL     1       5.645  -4.472   3.700  0.00  0.00    +0.104 C 
ATOM     27  N   UNL     1       6.684  -4.011   3.708  0.00  0.00    -0.191 NA
ENDBRANCH  20  26
ENDBRANCH  16  17
ENDBRANCH   1  16
TORSDOF 7
