REMARK  Name = ZINC06198331
REMARK  7 active torsions:
REMARK  status: ('A' for Active; 'I' for Inactive)
REMARK    1  A    between atoms: C_1  and  C_2
REMARK    2  A    between atoms: C_2  and  C_3
REMARK    3  A    between atoms: C_10  and  C_15
REMARK    4  A    between atoms: C_15  and  C_17
REMARK    5  A    between atoms: C_15  and  N_63
REMARK    6  A    between atoms: N_21  and  C_22
REMARK    7  A    between atoms: C_22  and  C_23
REMARK                            x       y       z     vdW  Elec       q    Type
REMARK                         _______ _______ _______ _____ _____    ______ ____
ROOT
ATOM      1  C   UNL     1      -1.332   7.432   0.049  0.00  0.00    +0.039 C 
ENDROOT
BRANCH   1   9
ATOM      2  C   UNL     1       1.185   1.779   0.000  0.00  0.00    -0.047 A 
ATOM      3  C   UNL     1      -0.013   1.076   0.008  0.00  0.00    +0.005 A 
ATOM      4  C   UNL     1      -1.219   1.741   0.017  0.00  0.00    +0.026 A 
ATOM      5  C   UNL     1      -1.240   3.132   0.030  0.00  0.00    +0.049 A 
ATOM      6  C   UNL     1      -0.025   3.842   0.022  0.00  0.00    -0.001 A 
ATOM      7  C   UNL     1       1.188   3.145   0.007  0.00  0.00    +0.013 A 
ATOM      8  C   UNL     1      -0.057   5.306   0.029  0.00  0.00    +0.017 A 
ATOM      9  C   UNL     1      -1.263   5.926   0.042  0.00  0.00    +0.011 A 
ATOM     10  C   UNL     1      -2.453   5.168   0.050  0.00  0.00    +0.251 A 
ATOM     11  O   UNL     1      -3.526   5.746   0.062  0.00  0.00    -0.268 OA
ATOM     12  N   UNL     1      -2.433   3.824   0.043  0.00  0.00    -0.322 N 
ATOM     13  H   UNL     1      -3.296   3.318   0.049  0.00  0.00    +0.169 HD
BRANCH   2  15
ATOM     14  C   UNL     1       2.920   0.782  -1.463  0.00  0.00    +0.009 C 
ATOM     15  C   UNL     1       2.491   1.029  -0.015  0.00  0.00    +0.032 C 
ENDBRANCH   2  15
ENDBRANCH   1   9
BRANCH   1  22
ATOM     16  C   UNL     1      -1.710   7.277  -2.347  0.00  0.00    -0.077 C 
ATOM     17  C   UNL     1      -2.340   7.915  -3.555  0.00  0.00    -0.019 C 
ATOM     18  C   UNL     1      -1.395   9.017  -4.077  0.00  0.00    -0.002 C 
ATOM     19  C   UNL     1      -1.485  10.239  -3.286  0.00  0.00    -0.002 C 
ATOM     20  C   UNL     1      -1.090  10.011  -1.812  0.00  0.00    -0.019 C 
ATOM     21  C   UNL     1      -2.249   9.367  -1.101  0.00  0.00    -0.077 C 
ATOM     22  N   UNL     1      -2.203   7.865  -1.055  0.00  0.00    +0.389 N 
ATOM     23  H   UNL     1      -3.154   7.518  -0.883  0.00  0.00    -0.080 HD
ENDBRANCH   1  22
BRANCH   1  24
ATOM     24  C   UNL     1      -1.942   7.901   1.345  0.00  0.00    +0.143 A 
ATOM     25  N   UNL     1      -3.210   7.851   1.675  0.00  0.00    -0.115 NA
ATOM     26  N   UNL     1      -3.331   8.343   2.860  0.00  0.00    -0.023 NA
ATOM     27  N   UNL     1      -2.176   8.713   3.290  0.00  0.00    -0.044 NA
ATOM     28  N   UNL     1      -1.293   8.457   2.384  0.00  0.00    -0.226 N 
BRANCH  28  29
ATOM     29  C   UNL     1       0.145   8.723   2.470  0.00  0.00    +0.182 C 
BRANCH  29  30
ATOM     30  C   UNL     1       0.434  10.102   1.937  0.00  0.00    -0.026 A 
ATOM     31  C   UNL     1       0.722  10.278   0.597  0.00  0.00    +0.008 A 
ATOM     32  C   UNL     1       0.983  11.544   0.106  0.00  0.00    +0.038 A 
ATOM     33  C   UNL     1       0.966  12.634   0.959  0.00  0.00    +0.123 A 
ATOM     34  C   UNL     1       0.682  12.456   2.303  0.00  0.00    +0.038 A 
ATOM     35  C   UNL     1       0.416  11.190   2.791  0.00  0.00    +0.008 A 
ATOM     36  F   UNL     1       1.225  13.871   0.482  0.00  0.00    -0.205 F 
ENDBRANCH  29  30
ENDBRANCH  28  29
ENDBRANCH   1  24
TORSDOF 6
