REMARK  Name = ZINC39676791
REMARK  12 active torsions:
REMARK  status: ('A' for Active; 'I' for Inactive)
REMARK    1  A    between atoms: C_1  and  C_2
REMARK    2  A    between atoms: C_2  and  C_3
REMARK    3  A    between atoms: C_3  and  C_4
REMARK    4  A    between atoms: C_4  and  C_5
REMARK    5  A    between atoms: C_5  and  C_7
REMARK    6  A    between atoms: C_5  and  C_8
REMARK    7  A    between atoms: C_12  and  C_21
REMARK    8  A    between atoms: N_23  and  C_24
REMARK    9  A    between atoms: C_24  and  C_26
REMARK   10  A    between atoms: C_24  and  C_27
REMARK   11  A    between atoms: C_31  and  O_33
REMARK   12  A    between atoms: O_33  and  C_34
REMARK                            x       y       z     vdW  Elec       q    Type
REMARK                         _______ _______ _______ _____ _____    ______ ____
ROOT
ATOM      1  C   UNL     1       1.597  -3.794   2.569  0.00  0.00    +0.218 C 
ATOM      2  O   UNL     1       1.013  -4.315   1.643  0.00  0.00    -0.275 OA
ATOM      3  N   UNL     1       2.110  -4.555   3.556  0.00  0.00    -0.300 N 
ATOM      4  C   UNL     1       2.844  -4.104   4.762  0.00  0.00    +0.121 C 
ATOM      5  C   UNL     1       2.333  -5.022   5.896  0.00  0.00    +0.100 C 
ATOM      6  C   UNL     1       1.827  -6.285   5.179  0.00  0.00    -0.004 C 
ATOM      7  C   UNL     1       2.063  -6.031   3.683  0.00  0.00    +0.115 C 
ATOM      8  C   UNL     1       0.338  -6.484   5.446  0.00  0.00    -0.010 C 
ATOM      9  C   UNL     1      -0.129  -7.776   4.771  0.00  0.00    -0.082 C 
ATOM     10  N   UNL     1       0.639  -8.911   5.299  0.00  0.00    +0.379 N 
ATOM     11  C   UNL     1       2.058  -8.758   4.957  0.00  0.00    -0.082 C 
ATOM     12  C   UNL     1       2.618  -7.506   5.640  0.00  0.00    -0.010 C 
ATOM     13  H   UNL     1       0.538  -8.946   6.303  0.00  0.00    -0.086 HD
ATOM     14  H   UNL     1       0.288  -9.768   4.898  0.00  0.00    -0.086 HD
ENDROOT
BRANCH   5  15
ATOM     15  C   UNL     1       1.208  -4.354   6.644  0.00  0.00    +0.219 C 
ATOM     16  O   UNL     1       0.476  -3.575   6.071  0.00  0.00    -0.275 OA
ATOM     17  N   UNL     1       1.016  -4.623   7.951  0.00  0.00    -0.308 N 
ATOM     18  H   UNL     1       1.601  -5.246   8.409  0.00  0.00    +0.149 HD
BRANCH  17  19
ATOM     19  C   UNL     1      -0.078  -3.974   8.678  0.00  0.00    +0.100 C 
ATOM     20  C   UNL     1       0.385  -2.604   9.179  0.00  0.00    +0.033 C 
BRANCH  19  21
ATOM     21  C   UNL     1      -0.477  -4.830   9.853  0.00  0.00    -0.024 A 
ATOM     22  C   UNL     1       0.494  -5.465  10.606  0.00  0.00    +0.005 A 
ATOM     23  C   UNL     1       0.131  -6.250  11.684  0.00  0.00    +0.004 A 
ATOM     24  C   UNL     1      -1.203  -6.403  12.012  0.00  0.00    +0.045 A 
ATOM     25  C   UNL     1      -2.178  -5.767  11.258  0.00  0.00    +0.120 A 
ATOM     26  C   UNL     1      -1.811  -4.974  10.180  0.00  0.00    +0.051 A 
BRANCH  25  27
ATOM     27  O   UNL     1      -3.490  -5.915  11.578  0.00  0.00    -0.495 OA
ATOM     28  C   UNL     1      -3.794  -6.741  12.704  0.00  0.00    +0.277 C 
ENDBRANCH  25  27
ENDBRANCH  19  21
ENDBRANCH  17  19
ENDBRANCH   5  15
BRANCH   1  29
ATOM     29  C   UNL     1       1.748  -2.295   2.617  0.00  0.00    +0.072 C 
ATOM     30  C   UNL     1       3.235  -1.933   2.627  0.00  0.00    +0.017 C 
BRANCH  29  31
ATOM     31  C   UNL     1       1.081  -1.676   1.387  0.00  0.00    +0.012 C 
BRANCH  31  32
ATOM     32  C   UNL     1       1.125  -0.151   1.496  0.00  0.00    +0.000 C 
BRANCH  32  34
ATOM     33  C   UNL     1       0.503   1.994   0.376  0.00  0.00    +0.004 C 
ATOM     34  C   UNL     1       0.459   0.469   0.267  0.00  0.00    -0.003 C 
ENDBRANCH  32  34
ENDBRANCH  31  32
ENDBRANCH  29  31
ENDBRANCH   1  29
TORSDOF 8
