REMARK  Name = ZINC16009794
REMARK  5 active torsions:
REMARK  status: ('A' for Active; 'I' for Inactive)
REMARK    1  A    between atoms: C_1  and  C_2
REMARK    2  A    between atoms: C_16  and  C_19
REMARK    3  A    between atoms: C_19  and  C_20
REMARK    4  A    between atoms: N_25  and  C_28
REMARK    5  A    between atoms: C_28  and  C_29
REMARK                            x       y       z     vdW  Elec       q    Type
REMARK                         _______ _______ _______ _____ _____    ______ ____
ROOT
ATOM      1  C   UNL     1      -0.184   1.441  -0.082  0.00  0.00    +0.046 C 
ATOM      2  C   UNL     1      -0.111  -0.065  -0.064  0.00  0.00    -0.028 A 
ATOM      3  C   UNL     1      -0.074  -0.765  -1.252  0.00  0.00    +0.025 A 
ATOM      4  C   UNL     1      -0.007  -2.147  -1.247  0.00  0.00    +0.042 A 
ATOM      5  C   UNL     1       0.024  -2.830  -0.043  0.00  0.00    +0.027 A 
ATOM      6  C   UNL     1      -0.011  -2.134   1.145  0.00  0.00    +0.005 A 
ATOM      7  C   UNL     1      -0.074  -0.744   1.151  0.00  0.00    +0.042 A 
ATOM      8  N   UNL     1      -0.095  -0.267   2.464  0.00  0.00    -0.283 N 
ATOM      9  C   UNL     1      -0.044  -1.265   3.367  0.00  0.00    +0.243 C 
ATOM     10  O   UNL     1      -0.049  -1.150   4.575  0.00  0.00    -0.273 OA
ATOM     11  C   UNL     1       0.008  -2.550   2.588  0.00  0.00    +0.136 C 
ATOM     12  C   UNL     1      -1.171  -3.472   2.924  0.00  0.00    +0.122 C 
ATOM     13  C   UNL     1      -0.576  -4.906   2.859  0.00  0.00    +0.107 C 
ATOM     14  C   UNL     1       0.903  -4.705   2.466  0.00  0.00    +0.076 C 
ATOM     15  N   UNL     1       1.225  -3.317   2.913  0.00  0.00    -0.295 NA
ATOM     16  C   UNL     1      -0.667  -5.388   4.289  0.00  0.00    +0.227 C 
ATOM     17  O   UNL     1      -0.299  -6.471   4.688  0.00  0.00    -0.275 OA
ATOM     18  N   UNL     1      -1.217  -4.431   5.045  0.00  0.00    -0.237 N 
ATOM     19  C   UNL     1      -1.550  -3.302   4.378  0.00  0.00    +0.229 C 
ATOM     20  O   UNL     1      -2.065  -2.315   4.857  0.00  0.00    -0.275 OA
ATOM     21 CL   UNL     1       0.037  -3.022  -2.745  0.00  0.00    -0.084 Cl
ATOM     22  H   UNL     1      -0.141   0.673   2.698  0.00  0.00    +0.155 HD
ATOM     23  H   UNL     1       2.024  -2.957   2.412  0.00  0.00    +0.124 HD
ENDROOT
BRANCH  14  24
ATOM     24  C   UNL     1       1.791  -5.708   3.205  0.00  0.00    +0.115 C 
BRANCH  24  25
ATOM     25  C   UNL     1       3.211  -5.577   2.716  0.00  0.00    +0.212 C 
ATOM     26  O   UNL     1       3.485  -4.762   1.862  0.00  0.00    -0.276 OA
ATOM     27  N   UNL     1       4.175  -6.366   3.230  0.00  0.00    -0.329 N 
ATOM     28  H   UNL     1       3.956  -7.018   3.913  0.00  0.00    +0.145 HD
ATOM     29  H   UNL     1       5.089  -6.282   2.915  0.00  0.00    +0.145 HD
ENDBRANCH  24  25
ENDBRANCH  14  24
BRANCH  18  30
ATOM     30  C   UNL     1      -1.446  -4.592   6.483  0.00  0.00    +0.153 C 
BRANCH  30  31
ATOM     31  C   UNL     1      -2.873  -5.017   6.719  0.00  0.00    -0.011 A 
ATOM     32  C   UNL     1      -3.836  -4.070   7.015  0.00  0.00    +0.006 A 
ATOM     33  C   UNL     1      -5.144  -4.459   7.232  0.00  0.00    +0.000 A 
ATOM     34  C   UNL     1      -5.491  -5.795   7.153  0.00  0.00    +0.001 A 
ATOM     35  C   UNL     1      -4.529  -6.742   6.857  0.00  0.00    +0.020 A 
ATOM     36  C   UNL     1      -3.220  -6.353   6.635  0.00  0.00    +0.046 A 
ATOM     37 CL   UNL     1      -2.013  -7.542   6.256  0.00  0.00    -0.083 Cl
ENDBRANCH  30  31
ENDBRANCH  18  30
TORSDOF 4
