REMARK  Name = ZINC39659629
REMARK  7 active torsions:
REMARK  status: ('A' for Active; 'I' for Inactive)
REMARK    1  A    between atoms: C_1  and  C_2
REMARK    2  A    between atoms: C_2  and  C_37
REMARK    3  A    between atoms: C_5  and  C_8
REMARK    4  A    between atoms: C_8  and  N_9
REMARK    5  A    between atoms: C_10  and  C_12
REMARK    6  A    between atoms: C_23  and  C_25
REMARK    7  A    between atoms: C_28  and  C_30
REMARK                            x       y       z     vdW  Elec       q    Type
REMARK                         _______ _______ _______ _____ _____    ______ ____
ROOT
ATOM      1  C   UNL     1       3.741  -1.479   5.261  0.00  0.00    +0.100 C 
ATOM      2  C   UNL     1       4.780  -0.336   5.248  0.00  0.00    +0.121 C 
ATOM      3  N   UNL     1       5.551  -0.515   6.500  0.00  0.00    -0.294 N 
ATOM      4  C   UNL     1       5.708  -1.984   6.629  0.00  0.00    +0.115 C 
ATOM      5  C   UNL     1       4.354  -2.559   6.168  0.00  0.00    -0.004 C 
ATOM      6  C   UNL     1       4.570  -3.849   5.383  0.00  0.00    -0.010 C 
ATOM      7  C   UNL     1       5.126  -4.925   6.319  0.00  0.00    -0.082 C 
ATOM      8  N   UNL     1       4.183  -5.152   7.422  0.00  0.00    +0.379 N 
ATOM      9  C   UNL     1       4.053  -3.932   8.228  0.00  0.00    -0.082 C 
ATOM     10  C   UNL     1       3.452  -2.814   7.372  0.00  0.00    -0.010 C 
ATOM     11  C   UNL     1       6.006   0.441   7.335  0.00  0.00    +0.282 C 
ATOM     12  O   UNL     1       6.630   0.131   8.333  0.00  0.00    -0.267 OA
ATOM     13  H   UNL     1       3.281  -5.402   7.045  0.00  0.00    -0.086 HD
ATOM     14  H   UNL     1       4.522  -5.903   8.003  0.00  0.00    -0.086 HD
ENDROOT
BRANCH  11  15
ATOM     15  C   UNL     1       5.750   1.852   7.040  0.00  0.00    +0.190 A 
ATOM     16  C   UNL     1       6.161   2.925   7.801  0.00  0.00    +0.055 A 
ATOM     17  C   UNL     1       5.702   4.077   7.155  0.00  0.00    +0.051 A 
ATOM     18  C   UNL     1       5.036   3.671   6.035  0.00  0.00    +0.139 A 
ATOM     19  O   UNL     1       5.075   2.330   5.973  0.00  0.00    -0.450 OA
BRANCH  18  20
ATOM     20  C   UNL     1       4.384   4.559   5.051  0.00  0.00    +0.052 A 
ATOM     21  C   UNL     1       3.513   5.562   5.481  0.00  0.00    +0.014 A 
ATOM     22  C   UNL     1       2.908   6.388   4.557  0.00  0.00    +0.001 A 
ATOM     23  C   UNL     1       3.162   6.226   3.206  0.00  0.00    +0.003 A 
ATOM     24  C   UNL     1       4.023   5.236   2.771  0.00  0.00    +0.039 A 
ATOM     25  C   UNL     1       4.642   4.404   3.685  0.00  0.00    +0.134 A 
ATOM     26  F   UNL     1       5.488   3.440   3.260  0.00  0.00    -0.205 F 
ENDBRANCH  18  20
ENDBRANCH  11  15
BRANCH   1  28
ATOM     27  N   UNL     1       2.351  -2.562   3.526  0.00  0.00    -0.312 N 
ATOM     28  C   UNL     1       3.535  -2.018   3.869  0.00  0.00    +0.218 C 
ATOM     29  O   UNL     1       4.435  -1.962   3.058  0.00  0.00    -0.275 OA
ATOM     30  H   UNL     1       1.632  -2.607   4.174  0.00  0.00    +0.149 HD
BRANCH  27  31
ATOM     31  C   UNL     1       2.151  -3.086   2.172  0.00  0.00    +0.138 C 
BRANCH  31  36
ATOM     32  C   UNL     1      -1.827  -5.240   2.895  0.00  0.00    +0.074 C 
ATOM     33  C   UNL     1      -0.490  -5.567   2.227  0.00  0.00    +0.165 C 
ATOM     34  O   UNL     1      -0.541  -5.200   0.842  0.00  0.00    -0.347 OA
ATOM     35  C   UNL     1       0.483  -4.208   0.624  0.00  0.00    +0.196 C 
ATOM     36  C   UNL     1       0.732  -3.643   2.045  0.00  0.00    +0.164 C 
ATOM     37  O   UNL     1       0.564  -4.825   2.865  0.00  0.00    -0.342 OA
ATOM     38  C   UNL     1      -0.208  -7.066   2.348  0.00  0.00    +0.074 C 
ENDBRANCH  31  36
ENDBRANCH  27  31
ENDBRANCH   1  28
TORSDOF 5
