REMARK  Name = ZINC38965214
REMARK  10 active torsions:
REMARK  status: ('A' for Active; 'I' for Inactive)
REMARK    1  A    between atoms: C_1  and  C_2
REMARK    2  A    between atoms: C_2  and  C_3
REMARK    3  A    between atoms: C_2  and  O_4
REMARK    4  A    between atoms: O_4  and  C_5
REMARK    5  A    between atoms: C_5  and  C_6
REMARK    6  A    between atoms: C_6  and  C_7
REMARK    7  A    between atoms: C_7  and  N_8
REMARK    8  A    between atoms: N_8  and  C_9
REMARK    9  A    between atoms: N_12  and  S_13
REMARK   10  A    between atoms: S_13  and  C_16
REMARK                            x       y       z     vdW  Elec       q    Type
REMARK                         _______ _______ _______ _____ _____    ______ ____
ROOT
ATOM      1  C   UNL     1      -5.903  -2.149  -3.745  0.00  0.00    +0.217 C 
ATOM      2  C   UNL     1      -6.512  -3.533  -3.757  0.00  0.00    +0.167 C 
ATOM      3  N   UNL     1      -5.777  -4.579  -3.519  0.00  0.00    -0.112 NA
ATOM      4  N   UNL     1      -7.822  -3.665  -4.016  0.00  0.00    -0.338 N 
ATOM      5  C   UNL     1      -8.587  -2.622  -4.259  0.00  0.00    +0.064 A 
ATOM      6  C   UNL     1      -9.968  -2.799  -4.529  0.00  0.00    +0.028 A 
ATOM      7  C   UNL     1     -10.757  -1.732  -4.781  0.00  0.00    +0.002 A 
ATOM      8  C   UNL     1     -10.272  -0.413  -4.790  0.00  0.00    +0.002 A 
ATOM      9  C   UNL     1      -8.973  -0.133  -4.546  0.00  0.00    +0.027 A 
ATOM     10  C   UNL     1      -8.048  -1.240  -4.263  0.00  0.00    +0.060 A 
ATOM     11  N   UNL     1      -6.788  -1.007  -4.021  0.00  0.00    -0.362 N 
ATOM     12  H   UNL     1      -6.443  -0.101  -4.024  0.00  0.00    +0.162 HD
ATOM     13  H   UNL     1      -8.216  -4.552  -4.023  0.00  0.00    +0.167 HD
ENDROOT
BRANCH   3  14
ATOM     14  S   UNL     1      -6.457  -6.089  -3.534  0.00  0.00    +0.102 S 
ATOM     15  O   UNL     1      -7.364  -6.137  -2.442  0.00  0.00    -0.146 OA
ATOM     16  O   UNL     1      -6.863  -6.338  -4.873  0.00  0.00    -0.146 OA
BRANCH  14  17
ATOM     17  C   UNL     1      -5.174  -7.242  -3.175  0.00  0.00    +0.141 A 
ATOM     18  C   UNL     1      -5.223  -7.975  -2.038  0.00  0.00    +0.031 A 
ATOM     19  C   UNL     1      -4.226  -8.897  -1.721  0.00  0.00    +0.004 A 
ATOM     20  C   UNL     1      -3.164  -9.098  -2.536  0.00  0.00    +0.031 A 
ATOM     21  C   UNL     1      -3.046  -8.364  -3.747  0.00  0.00    +0.102 A 
ATOM     22  C   UNL     1      -4.092  -7.404  -4.081  0.00  0.00    +0.127 A 
ATOM     23  N   UNL     1      -3.879  -6.779  -5.240  0.00  0.00    -0.189 NA
ATOM     24  S   UNL     1      -2.499  -7.378  -5.810  0.00  0.00    +0.117 S 
ATOM     25  N   UNL     1      -2.080  -8.428  -4.665  0.00  0.00    -0.191 NA
ENDBRANCH  14  17
ENDBRANCH   3  14
BRANCH   1  26
ATOM     26  N   UNL     1      -5.296  -1.937  -2.424  0.00  0.00    -0.291 NA
ATOM     27  H   UNL     1      -5.319  -2.783  -1.876  0.00  0.00    +0.124 HD
BRANCH  26  28
ATOM     28  C   UNL     1      -3.923  -1.429  -2.551  0.00  0.00    +0.085 C 
BRANCH  28  29
ATOM     29  C   UNL     1      -3.326  -1.221  -1.157  0.00  0.00    +0.043 C 
BRANCH  29  30
ATOM     30  C   UNL     1      -1.896  -0.693  -1.289  0.00  0.00    +0.161 C 
BRANCH  30  31
ATOM     31  O   UNL     1      -1.339  -0.499   0.012  0.00  0.00    -0.377 OA
BRANCH  31  33
ATOM     32  C   UNL     1      -0.019   1.526   0.010  0.00  0.00    +0.037 C 
ATOM     33  C   UNL     1       0.002  -0.004   0.002  0.00  0.00    +0.112 C 
ATOM     34  C   UNL     1       0.742  -0.511   1.242  0.00  0.00    +0.037 C 
ENDBRANCH  31  33
ENDBRANCH  30  31
ENDBRANCH  29  30
ENDBRANCH  28  29
ENDBRANCH  26  28
ENDBRANCH   1  26
TORSDOF 8
