REMARK  Name = ZINC46032522
REMARK  11 active torsions:
REMARK  status: ('A' for Active; 'I' for Inactive)
REMARK    1  A    between atoms: C_1  and  C_2
REMARK    2  A    between atoms: C_2  and  C_3
REMARK    3  A    between atoms: C_3  and  N_4
REMARK    4  A    between atoms: N_4  and  C_5
REMARK    5  A    between atoms: N_4  and  C_15
REMARK    6  A    between atoms: C_5  and  C_6
REMARK    7  A    between atoms: C_9  and  C_12
REMARK    8  A    between atoms: C_12  and  C_13
REMARK    9  A    between atoms: C_12  and  C_14
REMARK   10  A    between atoms: C_15  and  C_16
REMARK   11  A    between atoms: C_24  and  C_26
REMARK                            x       y       z     vdW  Elec       q    Type
REMARK                         _______ _______ _______ _____ _____    ______ ____
ROOT
ATOM      1  C   UNL     1      -2.721  -2.554  -0.426  0.00  0.00    -0.022 C 
ENDROOT
BRANCH   1   2
ATOM      2  C   UNL     1      -3.192  -2.034  -1.760  0.00  0.00    +0.033 A 
ATOM      3  C   UNL     1      -3.373  -2.892  -2.824  0.00  0.00    +0.093 A 
ATOM      4  C   UNL     1      -3.810  -2.392  -4.050  0.00  0.00    +0.275 A 
ATOM      5  O   UNL     1      -3.973  -3.147  -4.996  0.00  0.00    -0.266 OA
ATOM      6  N   UNL     1      -4.056  -1.056  -4.192  0.00  0.00    -0.171 N 
ATOM      7  C   UNL     1      -3.850  -0.277  -3.086  0.00  0.00    +0.199 A 
ATOM      8  N   UNL     1      -3.446  -0.739  -1.930  0.00  0.00    -0.228 NA
ATOM      9  S   UNL     1      -4.272   1.348  -3.678  0.00  0.00    -0.032 S 
ATOM     10  C   UNL     1      -4.692   0.886  -5.351  0.00  0.00    +0.105 A 
ATOM     11  N   UNL     1      -4.492  -0.397  -5.337  0.00  0.00    -0.159 NA
BRANCH  10  12
ATOM     12  C   UNL     1      -5.160   1.760  -6.486  0.00  0.00    +0.047 C 
ATOM     13  C   UNL     1      -5.965   0.919  -7.478  0.00  0.00    +0.010 C 
ATOM     14  C   UNL     1      -6.440   1.806  -8.631  0.00  0.00    +0.001 C 
ATOM     15  C   UNL     1      -5.227   2.412  -9.341  0.00  0.00    +0.000 C 
ATOM     16  C   UNL     1      -4.422   3.252  -8.349  0.00  0.00    +0.001 C 
ATOM     17  C   UNL     1      -3.947   2.365  -7.196  0.00  0.00    +0.010 C 
ENDBRANCH  10  12
ENDBRANCH   1   2
BRANCH   1  18
ATOM     18  N   UNL     1      -1.398  -1.993  -0.122  0.00  0.00    +0.386 N 
ATOM     19  H   UNL     1      -0.763  -2.196  -0.880  0.00  0.00    -0.081 HD
BRANCH  18  20
ATOM     20  C   UNL     1      -1.510  -0.538   0.046  0.00  0.00    -0.078 C 
BRANCH  20  22
ATOM     21  C   UNL     1      -0.218   1.586   0.302  0.00  0.00    +0.002 C 
ATOM     22  C   UNL     1      -0.118   0.059   0.262  0.00  0.00    -0.022 C 
ENDBRANCH  20  22
ENDBRANCH  18  20
BRANCH  18  23
ATOM     23  C   UNL     1      -0.886  -2.591   1.119  0.00  0.00    -0.042 C 
BRANCH  23  24
ATOM     24  C   UNL     1      -0.638  -4.061   0.902  0.00  0.00    -0.064 A 
ATOM     25  C   UNL     1      -1.603  -4.985   1.257  0.00  0.00    +0.002 A 
ATOM     26  C   UNL     1      -1.375  -6.334   1.059  0.00  0.00    +0.004 A 
ATOM     27  C   UNL     1      -0.182  -6.759   0.504  0.00  0.00    -0.045 A 
ATOM     28  C   UNL     1       0.782  -5.836   0.148  0.00  0.00    +0.004 A 
ATOM     29  C   UNL     1       0.553  -4.487   0.343  0.00  0.00    +0.002 A 
BRANCH  27  30
ATOM     30  C   UNL     1       0.066  -8.230   0.288  0.00  0.00    +0.013 C 
ATOM     31  C   UNL     1       0.299  -8.495  -1.200  0.00  0.00    +0.012 C 
ATOM     32  C   UNL     1       1.301  -8.660   1.083  0.00  0.00    +0.012 C 
ENDBRANCH  27  30
ENDBRANCH  23  24
ENDBRANCH  18  23
ENDBRANCH   1  18
TORSDOF 8
