REMARK  Name = ZINC67322975
REMARK  6 active torsions:
REMARK  status: ('A' for Active; 'I' for Inactive)
REMARK    1  A    between atoms: C_1  and  O_2
REMARK    2  A    between atoms: O_2  and  C_3
REMARK    3  A    between atoms: N_5  and  C_6
REMARK    4  A    between atoms: C_8  and  N_13
REMARK    5  A    between atoms: N_16  and  C_17
REMARK    6  A    between atoms: C_17  and  C_18
REMARK                            x       y       z     vdW  Elec       q    Type
REMARK                         _______ _______ _______ _____ _____    ______ ____
ROOT
ATOM      1  N   UNL     1       2.808  -1.749  -5.373  0.00  0.00    -0.269 N 
ATOM      2  C   UNL     1       3.214  -2.385  -6.490  0.00  0.00    +0.304 C 
ATOM      3  O   UNL     1       3.173  -3.599  -6.547  0.00  0.00    -0.253 OA
ATOM      4  N   UNL     1       3.666  -1.675  -7.543  0.00  0.00    -0.296 N 
ATOM      5  H   UNL     1       2.910  -0.788  -5.298  0.00  0.00    +0.156 HD
ATOM      6  H   UNL     1       3.699  -0.707  -7.497  0.00  0.00    +0.150 HD
ENDROOT
BRANCH   1   9
ATOM      7  C   UNL     1       1.886  -2.803  -1.967  0.00  0.00    +0.073 A 
ATOM      8  C   UNL     1       2.451  -2.081  -3.008  0.00  0.00    +0.049 A 
ATOM      9  C   UNL     1       2.240  -2.478  -4.320  0.00  0.00    +0.037 A 
ATOM     10  C   UNL     1       1.463  -3.597  -4.590  0.00  0.00    +0.026 A 
ATOM     11  C   UNL     1       0.900  -4.316  -3.553  0.00  0.00    +0.042 A 
ATOM     12  C   UNL     1       1.113  -3.926  -2.243  0.00  0.00    +0.145 A 
ATOM     13  F   UNL     1       0.567  -4.634  -1.230  0.00  0.00    -0.204 F 
BRANCH   7  16
ATOM     14  C   UNL     1       2.239  -1.099  -0.344  0.00  0.00    +0.404 C 
ATOM     15  O   UNL     1       2.265  -0.273  -1.234  0.00  0.00    -0.226 OA
ATOM     16  N   UNL     1       2.098  -2.406  -0.641  0.00  0.00    -0.248 N 
ATOM     17  H   UNL     1       2.144  -3.071   0.063  0.00  0.00    +0.158 HD
BRANCH  14  19
ATOM     18  C   UNL     1       2.496   0.692   1.183  0.00  0.00    +0.282 C 
ATOM     19  O   UNL     1       2.350  -0.709   0.941  0.00  0.00    -0.453 OA
ENDBRANCH  14  19
ENDBRANCH   7  16
ENDBRANCH   1   9
BRANCH   4  20
ATOM     20  C   UNL     1       4.107  -2.366  -8.757  0.00  0.00    +0.153 C 
BRANCH  20  21
ATOM     21  C   UNL     1       4.568  -1.337  -9.791  0.00  0.00    +0.228 C 
ATOM     22  C   UNL     1       4.927  -2.046 -11.103  0.00  0.00    +0.275 C 
ATOM     23  O   UNL     1       5.366  -1.058 -12.041  0.00  0.00    -0.485 OA
ATOM     24  C   UNL     1       6.258  -0.136 -11.586  0.00  0.00    +0.162 A 
ATOM     25  C   UNL     1       6.992   0.609 -12.497  0.00  0.00    +0.049 A 
ATOM     26  C   UNL     1       7.899   1.550 -12.050  0.00  0.00    +0.004 A 
ATOM     27  C   UNL     1       8.077   1.754 -10.694  0.00  0.00    +0.004 A 
ATOM     28  C   UNL     1       7.349   1.014  -9.781  0.00  0.00    +0.049 A 
ATOM     29  C   UNL     1       6.439   0.066 -10.223  0.00  0.00    +0.163 A 
ATOM     30  O   UNL     1       5.735  -0.660  -9.311  0.00  0.00    -0.480 OA
ENDBRANCH  20  21
ENDBRANCH   4  20
TORSDOF 5
