REMARK  Name = ZINC38994940
REMARK  7 active torsions:
REMARK  status: ('A' for Active; 'I' for Inactive)
REMARK    1  A    between atoms: C_1  and  C_2
REMARK    2  A    between atoms: C_4  and  N_17
REMARK    3  A    between atoms: N_8  and  C_11
REMARK    4  A    between atoms: N_9  and  C_10
REMARK    5  A    between atoms: N_17  and  C_18
REMARK    6  A    between atoms: N_21  and  S_22
REMARK    7  A    between atoms: S_22  and  C_25
REMARK                            x       y       z     vdW  Elec       q    Type
REMARK                         _______ _______ _______ _____ _____    ______ ____
ROOT
ATOM      1  C   UNL     1      -0.443  -1.171  -3.319  0.00  0.00    +0.220 C 
ATOM      2  C   UNL     1      -1.392  -0.319  -4.131  0.00  0.00    +0.188 C 
ATOM      3  N   UNL     1      -1.403   0.974  -3.991  0.00  0.00    -0.110 NA
ATOM      4  N   UNL     1      -2.223  -0.917  -5.000  0.00  0.00    -0.226 NA
ATOM      5  C   UNL     1      -2.230  -2.223  -5.161  0.00  0.00    +0.089 A 
ATOM      6  C   UNL     1      -3.122  -2.821  -6.088  0.00  0.00    +0.030 A 
ATOM      7  C   UNL     1      -3.134  -4.161  -6.257  0.00  0.00    +0.002 A 
ATOM      8  C   UNL     1      -2.287  -5.025  -5.543  0.00  0.00    +0.002 A 
ATOM      9  C   UNL     1      -1.400  -4.560  -4.636  0.00  0.00    +0.027 A 
ATOM     10  C   UNL     1      -1.324  -3.112  -4.393  0.00  0.00    +0.063 A 
ATOM     11  N   UNL     1      -0.480  -2.627  -3.526  0.00  0.00    -0.362 N 
ATOM     12  H   UNL     1       0.110  -3.214  -3.027  0.00  0.00    +0.162 HD
ENDROOT
BRANCH   3  13
ATOM     13  S   UNL     1      -2.447   1.895  -4.886  0.00  0.00    +0.100 S 
ATOM     14  O   UNL     1      -2.039   1.771  -6.242  0.00  0.00    -0.146 OA
ATOM     15  O   UNL     1      -3.758   1.561  -4.452  0.00  0.00    -0.146 OA
BRANCH  13  16
ATOM     16  C   UNL     1      -2.179   3.576  -4.432  0.00  0.00    +0.114 A 
ATOM     17  C   UNL     1      -2.897   4.134  -3.390  0.00  0.00    +0.029 A 
ATOM     18  C   UNL     1      -2.687   5.452  -3.033  0.00  0.00    +0.003 A 
ATOM     19  C   UNL     1      -1.760   6.215  -3.718  0.00  0.00    +0.020 A 
ATOM     20  C   UNL     1      -1.042   5.658  -4.761  0.00  0.00    +0.043 A 
ATOM     21  C   UNL     1      -1.248   4.336  -5.114  0.00  0.00    +0.049 A 
ATOM     22 CL   UNL     1       0.123   6.616  -5.622  0.00  0.00    -0.083 Cl
ENDBRANCH  13  16
ENDBRANCH   3  13
BRANCH   1  23
ATOM     23  N   UNL     1      -0.712  -0.913  -1.899  0.00  0.00    -0.278 NA
ATOM     24  H   UNL     1      -1.213  -1.682  -1.480  0.00  0.00    +0.125 HD
BRANCH  23  27
ATOM     25  C   UNL     1       0.563   1.693  -0.164  0.00  0.00    +0.028 C 
ATOM     26  C   UNL     1       0.253   0.217   0.093  0.00  0.00    +0.099 C 
ATOM     27  C   UNL     1       0.532  -0.635  -1.169  0.00  0.00    +0.163 C 
ATOM     28  C   UNL     1       1.111  -1.907  -0.576  0.00  0.00    +0.252 C 
ATOM     29  O   UNL     1       1.250  -2.965  -1.153  0.00  0.00    -0.272 OA
ATOM     30  N   UNL     1       1.444  -1.654   0.704  0.00  0.00    -0.201 N 
ATOM     31  N   UNL     1       1.204  -0.362   1.070  0.00  0.00    -0.218 NA
ATOM     32  C   UNL     1       2.451   0.413   1.113  0.00  0.00    +0.128 C 
BRANCH  30  33
ATOM     33  C   UNL     1       1.979  -2.615   1.568  0.00  0.00    +0.053 A 
ATOM     34  C   UNL     1       1.462  -2.765   2.848  0.00  0.00    +0.025 A 
ATOM     35  C   UNL     1       1.992  -3.715   3.699  0.00  0.00    +0.002 A 
ATOM     36  C   UNL     1       3.037  -4.516   3.277  0.00  0.00    +0.000 A 
ATOM     37  C   UNL     1       3.555  -4.369   2.003  0.00  0.00    +0.002 A 
ATOM     38  C   UNL     1       3.025  -3.425   1.145  0.00  0.00    +0.025 A 
ENDBRANCH  30  33
ENDBRANCH  23  27
ENDBRANCH   1  23
TORSDOF 5
