REMARK  Name = ZINC39994027
REMARK  6 active torsions:
REMARK  status: ('A' for Active; 'I' for Inactive)
REMARK    1  A    between atoms: C_1  and  C_2
REMARK    2  A    between atoms: C_9  and  N_27
REMARK    3  A    between atoms: C_10  and  C_13
REMARK    4  A    between atoms: C_14  and  C_15
REMARK    5  A    between atoms: C_14  and  C_17
REMARK    6  A    between atoms: N_19  and  C_20
REMARK                            x       y       z     vdW  Elec       q    Type
REMARK                         _______ _______ _______ _____ _____    ______ ____
ROOT
ATOM      1  C   UNL     1       0.949   1.296   0.018  0.00  0.00    +0.047 C 
ATOM      2  C   UNL     1       0.655  -0.182   0.025  0.00  0.00    -0.007 A 
ATOM      3  C   UNL     1       0.689  -0.894  -1.137  0.00  0.00    +0.008 A 
ATOM      4  C   UNL     1       0.414  -2.268  -1.114  0.00  0.00    +0.019 A 
ATOM      5  C   UNL     1       0.116  -2.880   0.054  0.00  0.00    +0.096 A 
ATOM      6  N   UNL     1       0.079  -2.176   1.221  0.00  0.00    -0.267 N 
ATOM      7  C   UNL     1       0.349  -0.837   1.231  0.00  0.00    +0.145 A 
ATOM      8  N   UNL     1       0.323  -0.131   2.363  0.00  0.00    -0.213 NA
ATOM      9  C   UNL     1       0.042  -0.693   3.528  0.00  0.00    +0.136 A 
ATOM     10  C   UNL     1      -0.241  -2.082   3.583  0.00  0.00    +0.081 A 
ATOM     11  C   UNL     1      -0.222  -2.819   2.370  0.00  0.00    +0.267 A 
ATOM     12  O   UNL     1      -0.458  -4.014   2.367  0.00  0.00    -0.267 OA
ENDROOT
BRANCH   9  13
ATOM     13  N   UNL     1       0.024   0.064   4.677  0.00  0.00    -0.315 N 
ATOM     14  C   UNL     1       0.581  -0.464   5.930  0.00  0.00    +0.106 C 
ATOM     15  C   UNL     1       1.605   0.536   6.474  0.00  0.00    +0.019 C 
ATOM     16  C   UNL     1       0.947   1.911   6.609  0.00  0.00    +0.003 C 
ATOM     17  C   UNL     1       0.485   2.395   5.233  0.00  0.00    +0.019 C 
ATOM     18  C   UNL     1      -0.547   1.417   4.673  0.00  0.00    +0.106 C 
ENDBRANCH   9  13
BRANCH  10  19
ATOM     19  C   UNL     1      -0.543  -2.709   4.803  0.00  0.00    +0.040 C 
ATOM     20  C   UNL     1       0.305  -3.686   5.311  0.00  0.00    +0.114 C 
BRANCH  20  21
ATOM     21  C   UNL     1      -0.070  -4.425   6.521  0.00  0.00    +0.259 C 
ATOM     22  O   UNL     1      -1.123  -4.183   7.080  0.00  0.00    -0.269 OA
ATOM     23  N   UNL     1       0.753  -5.372   7.013  0.00  0.00    -0.281 N 
ATOM     24  H   UNL     1       1.559  -5.612   6.531  0.00  0.00    +0.155 HD
BRANCH  23  25
ATOM     25  C   UNL     1       0.444  -6.008   8.220  0.00  0.00    +0.034 A 
ATOM     26  C   UNL     1       1.459  -6.371   9.095  0.00  0.00    +0.025 A 
ATOM     27  C   UNL     1       1.151  -6.999  10.286  0.00  0.00    +0.022 A 
ATOM     28  C   UNL     1      -0.168  -7.267  10.607  0.00  0.00    +0.041 A 
ATOM     29  C   UNL     1      -1.182  -6.906   9.737  0.00  0.00    +0.022 A 
ATOM     30  C   UNL     1      -0.880  -6.273   8.547  0.00  0.00    +0.025 A 
ATOM     31 CL   UNL     1      -0.552  -8.057  12.105  0.00  0.00    -0.084 Cl
ENDBRANCH  23  25
ENDBRANCH  20  21
BRANCH  20  32
ATOM     32  C   UNL     1       1.544  -3.970   4.653  0.00  0.00    +0.104 C 
ATOM     33  N   UNL     1       2.527  -4.196   4.130  0.00  0.00    -0.191 NA
ENDBRANCH  20  32
ENDBRANCH  10  19
TORSDOF 5
