REMARK  Name = ZINC33620986
REMARK  12 active torsions:
REMARK  status: ('A' for Active; 'I' for Inactive)
REMARK    1  A    between atoms: C_1  and  C_2
REMARK    2  A    between atoms: C_2  and  C_4
REMARK    3  A    between atoms: C_2  and  N_17
REMARK    4  A    between atoms: N_14  and  C_15
REMARK    5  A    between atoms: N_17  and  C_18
REMARK    6  A    between atoms: C_18  and  C_19
REMARK    7  A    between atoms: C_19  and  C_20
REMARK    8  A    between atoms: C_20  and  C_21
REMARK    9  A    between atoms: C_21  and  C_22
REMARK   10  A    between atoms: C_22  and  C_23
REMARK   11  A    between atoms: C_23  and  N_24
REMARK   12  A    between atoms: C_25  and  C_27
REMARK                            x       y       z     vdW  Elec       q    Type
REMARK                         _______ _______ _______ _____ _____    ______ ____
ROOT
ATOM      1  N   UNL     1       2.825   2.280   0.047  0.00  0.00    -0.288 N 
ATOM      2  C   UNL     1       2.411   1.956   1.288  0.00  0.00    +0.247 C 
ATOM      3  O   UNL     1       3.129   2.173   2.244  0.00  0.00    -0.270 OA
ENDROOT
BRANCH   2   4
ATOM      4  C   UNL     1       1.083   1.337   1.486  0.00  0.00    +0.037 A 
ATOM      5  C   UNL     1      -0.007   1.757   0.722  0.00  0.00    +0.014 A 
ATOM      6  C   UNL     1      -1.242   1.172   0.908  0.00  0.00    +0.016 A 
ATOM      7  C   UNL     1      -1.404   0.179   1.859  0.00  0.00    +0.018 A 
ATOM      8  C   UNL     1      -0.328  -0.238   2.624  0.00  0.00    +0.016 A 
ATOM      9  C   UNL     1       0.913   0.335   2.443  0.00  0.00    +0.014 A 
ATOM     10 BR   UNL     1      -3.103  -0.613   2.114  0.00  0.00    -0.050 Br
ENDBRANCH   2   4
BRANCH   1  12
ATOM     11  C   UNL     1       1.145   4.021  -0.313  0.00  0.00    +0.036 C 
ATOM     12  C   UNL     1       1.871   2.822  -0.925  0.00  0.00    +0.139 C 
BRANCH  12  13
ATOM     13  C   UNL     1       0.867   1.759  -1.290  0.00  0.00    +0.133 A 
ATOM     14  N   UNL     1      -0.358   2.123  -1.520  0.00  0.00    -0.232 NA
ATOM     15  C   UNL     1      -1.316   1.222  -1.854  0.00  0.00    +0.080 A 
ATOM     16  C   UNL     1      -2.633   1.610  -2.102  0.00  0.00    +0.048 A 
ATOM     17  C   UNL     1      -3.571   0.657  -2.438  0.00  0.00    +0.043 A 
ATOM     18  C   UNL     1      -3.219  -0.685  -2.533  0.00  0.00    +0.021 A 
ATOM     19  C   UNL     1      -1.935  -1.088  -2.294  0.00  0.00    +0.017 A 
ATOM     20  C   UNL     1      -0.968  -0.144  -1.952  0.00  0.00    +0.065 A 
ATOM     21  C   UNL     1       0.428  -0.521  -1.686  0.00  0.00    +0.262 A 
ATOM     22  O   UNL     1       0.793  -1.680  -1.753  0.00  0.00    -0.267 OA
ATOM     23  N   UNL     1       1.290   0.470  -1.362  0.00  0.00    -0.298 N 
ATOM     24  C   UNL     1       2.692   0.150  -1.080  0.00  0.00    +0.154 C 
ATOM     25 CL   UNL     1      -5.210   1.137  -2.747  0.00  0.00    -0.083 Cl
ENDBRANCH  12  13
ENDBRANCH   1  12
BRANCH   1  26
ATOM     26  C   UNL     1       4.227   2.090  -0.331  0.00  0.00    +0.109 C 
BRANCH  26  27
ATOM     27  C   UNL     1       5.042   3.309   0.105  0.00  0.00    +0.019 C 
BRANCH  27  28
ATOM     28  C   UNL     1       6.507   3.110  -0.289  0.00  0.00    +0.001 C 
BRANCH  28  29
ATOM     29  C   UNL     1       7.322   4.330   0.146  0.00  0.00    -0.002 C 
BRANCH  29  30
ATOM     30  C   UNL     1       8.787   4.131  -0.248  0.00  0.00    -0.020 C 
BRANCH  30  31
ATOM     31  C   UNL     1       9.603   5.350   0.187  0.00  0.00    -0.086 C 
BRANCH  31  32
ATOM     32  N   UNL     1      11.009   5.160  -0.191  0.00  0.00    +0.378 N 
ATOM     33  H   UNL     1      11.595   6.036   0.122  0.00  0.00    -0.090 HD
ATOM     34  H   UNL     1      11.082   5.040  -1.282  0.00  0.00    -0.090 HD
ATOM     35  H   UNL     1      11.403   4.259   0.303  0.00  0.00    -0.090 HD
ENDBRANCH  31  32
ENDBRANCH  30  31
ENDBRANCH  29  30
ENDBRANCH  28  29
ENDBRANCH  27  28
ENDBRANCH  26  27
ENDBRANCH   1  26
TORSDOF 10
