REMARK  Name = ZINC05615727
REMARK  5 active torsions:
REMARK  status: ('A' for Active; 'I' for Inactive)
REMARK    1  A    between atoms: C_4  and  C_7
REMARK    2  A    between atoms: C_17  and  N_21
REMARK    3  A    between atoms: N_21  and  C_22
REMARK    4  A    between atoms: C_25  and  N_31
REMARK    5  A    between atoms: C_27  and  N_28
REMARK                            x       y       z     vdW  Elec       q    Type
REMARK                         _______ _______ _______ _____ _____    ______ ____
ROOT
ATOM      1  C   UNL     1       3.838  -0.760  -0.028  0.00  0.00    +0.071 A 
ATOM      2  C   UNL     1       4.008  -1.821  -0.928  0.00  0.00    +0.072 A 
ATOM      3  C   UNL     1       5.255  -2.464  -0.976  0.00  0.00    +0.011 A 
ATOM      4  C   UNL     1       6.272  -2.022  -0.128  0.00  0.00    +0.028 A 
ATOM      5  C   UNL     1       6.019  -0.970   0.727  0.00  0.00    +0.084 A 
ATOM      6  N   UNL     1       4.839  -0.378   0.751  0.00  0.00    -0.359 N 
ATOM      7  C   UNL     1       5.145  -3.520  -1.993  0.00  0.00    +0.009 A 
ATOM      8  C   UNL     1       6.031  -4.478  -2.486  0.00  0.00    +0.011 A 
ATOM      9  C   UNL     1       5.622  -5.354  -3.467  0.00  0.00    +0.003 A 
ATOM     10  C   UNL     1       4.332  -5.290  -3.969  0.00  0.00    +0.025 A 
ATOM     11  C   UNL     1       3.439  -4.346  -3.492  0.00  0.00    +0.056 A 
ATOM     12  C   UNL     1       3.838  -3.450  -2.496  0.00  0.00    +0.069 A 
ATOM     13  N   UNL     1       3.173  -2.425  -1.845  0.00  0.00    -0.351 N 
ATOM     14  H   UNL     1       2.252  -2.168  -2.009  0.00  0.00    +0.166 HD
ATOM     15  H   UNL     1       4.699   0.361   1.364  0.00  0.00    +0.165 HD
ENDROOT
BRANCH   1  19
ATOM     16  C   UNL     1       0.099   1.250   0.189  0.00  0.00    +0.000 A 
ATOM     17  C   UNL     1       1.273   1.981   0.157  0.00  0.00    +0.001 A 
ATOM     18  C   UNL     1       2.490   1.333   0.086  0.00  0.00    +0.010 A 
ATOM     19  C   UNL     1       2.534  -0.059   0.048  0.00  0.00    +0.000 A 
ATOM     20  C   UNL     1       1.347  -0.790   0.081  0.00  0.00    +0.010 A 
ATOM     21  C   UNL     1       0.137  -0.132   0.151  0.00  0.00    +0.001 A 
ENDBRANCH   1  19
BRANCH  11  22
ATOM     22  N   UNL     1       2.139  -4.289  -4.005  0.00  0.00    -0.311 N 
ATOM     23  H   UNL     1       1.496  -3.669  -3.628  0.00  0.00    +0.152 HD
BRANCH  22  24
ATOM     24  C   UNL     1       1.768  -5.124  -5.062  0.00  0.00    +0.062 A 
ATOM     25  C   UNL     1       1.682  -4.617  -6.353  0.00  0.00    +0.028 A 
ATOM     26  C   UNL     1       1.315  -5.446  -7.395  0.00  0.00    +0.034 A 
ATOM     27  C   UNL     1       1.034  -6.779  -7.154  0.00  0.00    +0.128 A 
ATOM     28  C   UNL     1       1.118  -7.286  -5.871  0.00  0.00    +0.067 A 
ATOM     29  C   UNL     1       1.490  -6.464  -4.825  0.00  0.00    +0.149 A 
BRANCH  29  30
ATOM     30  N   UNL     1       1.586  -7.010  -3.452  0.00  0.00    +0.058 N 
ATOM     31  O   UNL     1       1.458  -8.197  -3.263  0.00  0.00    -0.126 OA
ATOM     32  O   UNL     1       1.793  -6.268  -2.520  0.00  0.00    -0.126 OA
ENDBRANCH  29  30
BRANCH  27  33
ATOM     33  N   UNL     1       0.641  -7.664  -8.274  0.00  0.00    +0.056 N 
ATOM     34  O   UNL     1       0.566  -7.221  -9.396  0.00  0.00    -0.126 OA
ATOM     35  O   UNL     1       0.395  -8.829  -8.065  0.00  0.00    -0.126 OA
ENDBRANCH  27  33
ENDBRANCH  22  24
ENDBRANCH  11  22
TORSDOF 5
