REMARK  Name = ZINC00131797
REMARK  5 active torsions:
REMARK  status: ('A' for Active; 'I' for Inactive)
REMARK    1  A    between atoms: C_6  and  N_11
REMARK    2  A    between atoms: N_11  and  C_12
REMARK    3  A    between atoms: C_12  and  C_13
REMARK    4  A    between atoms: N_15  and  N_16
REMARK    5  A    between atoms: C_17  and  C_18
REMARK                            x       y       z     vdW  Elec       q    Type
REMARK                         _______ _______ _______ _____ _____    ______ ____
ROOT
ATOM      1  C   UNL     1       1.447   7.794   0.031  0.00  0.00    +0.249 C 
ATOM      2  O   UNL     1       0.243   7.950   0.044  0.00  0.00    -0.272 OA
ATOM      3  N   UNL     1       1.966   6.551   0.019  0.00  0.00    -0.206 N 
ATOM      4  H   UNL     1       2.928   6.426   0.009  0.00  0.00    +0.177 HD
ENDROOT
BRANCH   3   5
ATOM      5  N   UNL     1       1.116   5.437   0.021  0.00  0.00    -0.188 NA
ATOM      6  C   UNL     1       1.616   4.238   0.009  0.00  0.00    +0.140 C 
BRANCH   6   7
ATOM      7  C   UNL     1       0.723   3.068   0.012  0.00  0.00    +0.020 A 
ATOM      8  C   UNL     1       1.096   1.760   0.001  0.00  0.00    +0.093 A 
ATOM      9  N   UNL     1      -0.011   0.966   0.007  0.00  0.00    -0.360 N 
ATOM     10  H   UNL     1       0.002  -0.004   0.002  0.00  0.00    +0.165 HD
ATOM     11  C   UNL     1      -1.153   1.738   0.016  0.00  0.00    +0.047 A 
ATOM     12  C   UNL     1      -0.751   3.085   0.026  0.00  0.00    +0.008 A 
ATOM     13  C   UNL     1      -1.706   4.098   0.040  0.00  0.00    +0.010 A 
ATOM     14  C   UNL     1      -3.045   3.774   0.051  0.00  0.00    +0.001 A 
ATOM     15  C   UNL     1      -3.443   2.445   0.048  0.00  0.00    +0.002 A 
ATOM     16  C   UNL     1      -2.510   1.432   0.033  0.00  0.00    +0.026 A 
ENDBRANCH   6   7
ENDBRANCH   3   5
BRANCH   1  17
ATOM     17  C   UNL     1       2.361   8.992   0.029  0.00  0.00    +0.199 C 
BRANCH  17  18
ATOM     18  N   UNL     1       1.559  10.219   0.044  0.00  0.00    -0.335 N 
ATOM     19  H   UNL     1       0.591  10.165   0.053  0.00  0.00    +0.147 HD
BRANCH  18  25
ATOM     20  C   UNL     1       3.367  16.314   0.061  0.00  0.00    +0.001 A 
ATOM     21  C   UNL     1       1.974  16.255   0.074  0.00  0.00    +0.001 A 
ATOM     22  C   UNL     1       1.325  15.059   0.074  0.00  0.00    +0.008 A 
ATOM     23  C   UNL     1       2.066  13.864   0.059  0.00  0.00    -0.016 A 
ATOM     24  C   UNL     1       1.429  12.613   0.059  0.00  0.00    +0.031 A 
ATOM     25  C   UNL     1       2.189  11.464   0.044  0.00  0.00    +0.028 A 
ATOM     26  C   UNL     1       3.588  11.534   0.037  0.00  0.00    +0.023 A 
ATOM     27  C   UNL     1       4.228  12.733   0.031  0.00  0.00    +0.010 A 
ATOM     28  C   UNL     1       3.482  13.925   0.045  0.00  0.00    -0.018 A 
ATOM     29  C   UNL     1       4.117  15.179   0.047  0.00  0.00    +0.008 A 
ENDBRANCH  18  25
ENDBRANCH  17  18
ENDBRANCH   1  17
TORSDOF 5
