REMARK  Name = ZINC36024456
REMARK  9 active torsions:
REMARK  status: ('A' for Active; 'I' for Inactive)
REMARK    1  A    between atoms: C_1  and  C_2
REMARK    2  A    between atoms: C_2  and  C_3
REMARK    3  A    between atoms: C_3  and  C_5
REMARK    4  A    between atoms: C_3  and  C_6
REMARK    5  A    between atoms: N_10  and  C_31
REMARK    6  A    between atoms: N_15  and  S_18
REMARK    7  A    between atoms: S_18  and  C_21
REMARK    8  A    between atoms: C_25  and  C_27
REMARK    9  A    between atoms: C_31  and  C_32
REMARK                            x       y       z     vdW  Elec       q    Type
REMARK                         _______ _______ _______ _____ _____    ______ ____
ROOT
ATOM      1  C   UNL     1       1.292  -3.468   0.236  0.00  0.00    +0.022 C 
ATOM      2  C   UNL     1       0.797  -4.276   1.416  0.00  0.00    +0.201 C 
ATOM      3  O   UNL     1       1.469  -5.024   2.094  0.00  0.00    -0.277 OA
ATOM      4  N   UNL     1      -0.517  -4.022   1.587  0.00  0.00    -0.309 N 
ATOM      5  C   UNL     1      -0.968  -3.071   0.568  0.00  0.00    +0.006 C 
ATOM      6  N   UNL     1       0.250  -2.437   0.016  0.00  0.00    +0.401 N 
ATOM      7  C   UNL     1      -1.715  -3.805  -0.545  0.00  0.00    +0.023 C 
ATOM      8  C   UNL     1      -2.952  -4.492   0.041  0.00  0.00    +0.109 C 
ATOM      9  N   UNL     1      -3.753  -3.491   0.760  0.00  0.00    -0.177 NA
ATOM     10  C   UNL     1      -3.104  -2.680   1.799  0.00  0.00    +0.109 C 
ATOM     11  C   UNL     1      -1.865  -2.008   1.198  0.00  0.00    +0.023 C 
ATOM     12  H   UNL     1       0.471  -1.593   0.522  0.00  0.00    -0.082 HD
ATOM     13  H   UNL     1       0.139  -2.246  -0.969  0.00  0.00    -0.082 HD
ENDROOT
BRANCH   9  14
ATOM     14  S   UNL     1      -5.356  -3.281   0.404  0.00  0.00    +0.061 S 
ATOM     15  O   UNL     1      -5.691  -1.959   0.804  0.00  0.00    -0.153 OA
ATOM     16  O   UNL     1      -5.541  -3.744  -0.927  0.00  0.00    -0.153 OA
BRANCH  14  17
ATOM     17  C   UNL     1      -6.269  -4.369   1.447  0.00  0.00    +0.106 A 
ATOM     18  C   UNL     1      -6.549  -5.656   1.026  0.00  0.00    +0.028 A 
ATOM     19  C   UNL     1      -7.265  -6.510   1.845  0.00  0.00    +0.002 A 
ATOM     20  C   UNL     1      -7.699  -6.077   3.084  0.00  0.00    +0.012 A 
ATOM     21  C   UNL     1      -7.418  -4.791   3.505  0.00  0.00    +0.057 A 
ATOM     22  C   UNL     1      -6.698  -3.939   2.688  0.00  0.00    +0.041 A 
BRANCH  21  23
ATOM     23  C   UNL     1      -7.891  -4.320   4.855  0.00  0.00    +0.417 C 
ATOM     24  F   UNL     1      -8.588  -5.353   5.492  0.00  0.00    -0.166 F 
ATOM     25  F   UNL     1      -6.789  -3.951   5.634  0.00  0.00    -0.166 F 
ATOM     26  F   UNL     1      -8.738  -3.217   4.694  0.00  0.00    -0.166 F 
ENDBRANCH  21  23
ENDBRANCH  14  17
ENDBRANCH   9  14
BRANCH   1  27
ATOM     27  C   UNL     1       2.633  -2.809   0.566  0.00  0.00    -0.020 C 
ATOM     28  C   UNL     1       2.511  -2.037   1.882  0.00  0.00    +0.006 C 
BRANCH  27  30
ATOM     29  C   UNL     1       5.073  -3.220   0.911  0.00  0.00    +0.004 C 
ATOM     30  C   UNL     1       3.711  -3.885   0.704  0.00  0.00    -0.001 C 
ENDBRANCH  27  30
ENDBRANCH   1  27
BRANCH   4  31
ATOM     31  C   UNL     1      -1.362  -4.608   2.631  0.00  0.00    +0.141 C 
BRANCH  31  32
ATOM     32  C   UNL     1      -1.271  -3.770   3.880  0.00  0.00    -0.030 A 
ATOM     33  C   UNL     1      -0.069  -3.187   4.235  0.00  0.00    +0.008 A 
ATOM     34  C   UNL     1       0.016  -2.418   5.380  0.00  0.00    +0.038 A 
ATOM     35  C   UNL     1      -1.104  -2.232   6.172  0.00  0.00    +0.123 A 
ATOM     36  C   UNL     1      -2.308  -2.816   5.816  0.00  0.00    +0.038 A 
ATOM     37  C   UNL     1      -2.391  -3.580   4.667  0.00  0.00    +0.008 A 
ATOM     38  F   UNL     1      -1.023  -1.480   7.292  0.00  0.00    -0.205 F 
ENDBRANCH  31  32
ENDBRANCH   4  31
TORSDOF 7
