REMARK  Name = ZINC32927042
REMARK  4 active torsions:
REMARK  status: ('A' for Active; 'I' for Inactive)
REMARK    1  A    between atoms: C_6  and  C_7
REMARK    2  A    between atoms: C_7  and  N_8
REMARK    3  A    between atoms: C_16  and  C_18
REMARK    4  A    between atoms: C_18  and  N_19
REMARK                            x       y       z     vdW  Elec       q    Type
REMARK                         _______ _______ _______ _____ _____    ______ ____
ROOT
ATOM      1  N   UNL     1       7.544  -0.125   0.811  0.00  0.00    -0.323 N 
ATOM      2  C   UNL     1       6.502   0.357   1.582  0.00  0.00    +0.131 A 
ATOM      3  C   UNL     1       6.603   1.625   2.221  0.00  0.00    +0.051 A 
ATOM      4  C   UNL     1       7.715   2.577   2.195  0.00  0.00    -0.025 A 
ATOM      5  C   UNL     1       7.557   3.720   2.893  0.00  0.00    -0.004 A 
ATOM      6  S   UNL     1       5.943   3.601   3.618  0.00  0.00    -0.073 S 
ATOM      7  C   UNL     1       5.481   2.011   2.980  0.00  0.00    +0.114 A 
ATOM      8  N   UNL     1       4.417   1.239   3.080  0.00  0.00    -0.227 NA
ATOM      9  C   UNL     1       4.380   0.073   2.464  0.00  0.00    +0.116 A 
ATOM     10  N   UNL     1       5.399  -0.356   1.740  0.00  0.00    -0.219 NA
ATOM     11  C   UNL     1       8.537   4.846   3.024  0.00  0.00    +0.043 C 
ATOM     12  C   UNL     1       9.910   4.351   2.547  0.00  0.00    +0.005 C 
ATOM     13  C   UNL     1       9.735   3.633   1.206  0.00  0.00    +0.005 C 
ATOM     14  C   UNL     1       9.001   2.308   1.419  0.00  0.00    +0.037 C 
ATOM     15  H   UNL     1       8.494   0.427   0.764  0.00  0.00    +0.148 HD
ENDROOT
BRANCH   1  16
ATOM     16  C   UNL     1       7.383  -1.371   0.058  0.00  0.00    +0.160 C 
BRANCH  16  22
ATOM     17  C   UNL     1       9.689  -2.503  -0.253  0.00  0.00    +0.045 A 
ATOM     18  C   UNL     1      10.648  -2.515  -1.207  0.00  0.00    +0.105 A 
ATOM     19  N   UNL     1      10.235  -1.718  -2.215  0.00  0.00    -0.284 N 
ATOM     20  H   UNL     1      10.871  -1.579  -3.102  0.00  0.00    +0.188 HD
ATOM     21  N   UNL     1       8.978  -1.205  -1.872  0.00  0.00    -0.177 NA
ATOM     22  C   UNL     1       8.654  -1.672  -0.693  0.00  0.00    +0.080 A 
ENDBRANCH  16  22
ENDBRANCH   1  16
BRANCH   9  23
ATOM     23  C   UNL     1       3.153  -0.791   2.595  0.00  0.00    -0.001 C 
BRANCH  23  24
ATOM     24  N   UNL     1       2.208  -0.464   1.519  0.00  0.00    +0.384 N 
ATOM     25  C   UNL     1       0.908  -1.110   1.745  0.00  0.00    -0.078 C 
ATOM     26  C   UNL     1      -0.001  -0.868   0.538  0.00  0.00    -0.019 C 
ATOM     27  C   UNL     1      -0.186   0.639   0.339  0.00  0.00    -0.004 C 
ATOM     28  C   UNL     1       1.185   1.294   0.153  0.00  0.00    -0.019 C 
ATOM     29  C   UNL     1       2.060   0.990   1.372  0.00  0.00    -0.078 C 
ATOM     30  H   UNL     1       2.617  -0.857   0.576  0.00  0.00    -0.081 HD
ENDBRANCH  23  24
ENDBRANCH   9  23
TORSDOF 4
