REMARK  Name = ZINC09705878
REMARK  10 active torsions:
REMARK  status: ('A' for Active; 'I' for Inactive)
REMARK    1  A    between atoms: C_1  and  C_2
REMARK    2  A    between atoms: C_7  and  N_8
REMARK    3  A    between atoms: C_9  and  C_11
REMARK    4  A    between atoms: C_12  and  N_20
REMARK    5  A    between atoms: C_21  and  C_23
REMARK    6  A    between atoms: N_25  and  C_26
REMARK    7  A    between atoms: C_26  and  C_28
REMARK    8  A    between atoms: C_26  and  C_29
REMARK    9  A    between atoms: C_29  and  C_30
REMARK   10  A    between atoms: C_30  and  C_31
REMARK                            x       y       z     vdW  Elec       q    Type
REMARK                         _______ _______ _______ _____ _____    ______ ____
ROOT
ATOM      1  C   UNL     1       6.589   2.049  -0.459  0.00  0.00    +0.212 A 
ATOM      2  C   UNL     1       6.002   1.201  -1.359  0.00  0.00    +0.093 A 
ATOM      3  C   UNL     1       7.073   0.780  -2.271  0.00  0.00    +0.042 A 
ATOM      4  C   UNL     1       7.124  -0.056  -3.387  0.00  0.00    +0.013 A 
ATOM      5  C   UNL     1       8.310  -0.240  -4.042  0.00  0.00    +0.001 A 
ATOM      6  C   UNL     1       9.460   0.403  -3.606  0.00  0.00    +0.004 A 
ATOM      7  C   UNL     1       9.429   1.236  -2.509  0.00  0.00    +0.047 A 
ATOM      8  C   UNL     1       8.233   1.438  -1.828  0.00  0.00    +0.138 A 
ATOM      9  O   UNL     1       7.903   2.177  -0.750  0.00  0.00    -0.448 OA
ENDROOT
BRANCH   1  11
ATOM     10  N   UNL     1       6.560   3.608   1.410  0.00  0.00    -0.279 N 
ATOM     11  C   UNL     1       5.901   2.714   0.646  0.00  0.00    +0.285 C 
ATOM     12  O   UNL     1       4.733   2.459   0.877  0.00  0.00    -0.266 OA
ATOM     13  H   UNL     1       7.510   3.753   1.276  0.00  0.00    +0.155 HD
BRANCH  10  20
ATOM     14  C   UNL     1       8.050   4.632   3.607  0.00  0.00    +0.045 C 
ATOM     15  C   UNL     1       6.563   4.843   3.485  0.00  0.00    -0.029 A 
ATOM     16  C   UNL     1       5.883   5.551   4.456  0.00  0.00    +0.005 A 
ATOM     17  C   UNL     1       4.518   5.745   4.344  0.00  0.00    +0.000 A 
ATOM     18  C   UNL     1       3.830   5.232   3.260  0.00  0.00    +0.002 A 
ATOM     19  C   UNL     1       4.505   4.527   2.283  0.00  0.00    +0.023 A 
ATOM     20  C   UNL     1       5.875   4.325   2.395  0.00  0.00    +0.037 A 
ENDBRANCH  10  20
ENDBRANCH   1  11
BRANCH   2  21
ATOM     21  N   UNL     1       4.670   0.815  -1.398  0.00  0.00    -0.274 N 
ATOM     22  C   UNL     1       4.113   0.434  -2.565  0.00  0.00    +0.303 C 
ATOM     23  O   UNL     1       4.756   0.493  -3.592  0.00  0.00    -0.265 OA
ATOM     24  H   UNL     1       4.140   0.819  -0.586  0.00  0.00    +0.155 HD
BRANCH  22  25
ATOM     25  C   UNL     1       2.704  -0.061  -2.593  0.00  0.00    +0.300 C 
ATOM     26  O   UNL     1       2.061  -0.120  -1.566  0.00  0.00    -0.265 OA
ATOM     27  N   UNL     1       2.147  -0.442  -3.760  0.00  0.00    -0.305 N 
ATOM     28  H   UNL     1       2.661  -0.395  -4.581  0.00  0.00    +0.149 HD
BRANCH  27  29
ATOM     29  C   UNL     1       0.765  -0.927  -3.787  0.00  0.00    +0.071 C 
ATOM     30  C   UNL     1       0.742  -2.421  -3.458  0.00  0.00    +0.028 C 
BRANCH  29  31
ATOM     31  C   UNL     1       0.173  -0.704  -5.181  0.00  0.00    +0.026 C 
BRANCH  31  32
ATOM     32  C   UNL     1       0.081   0.798  -5.460  0.00  0.00    +0.037 C 
BRANCH  32  33
ATOM     33  C   UNL     1      -0.502   1.018  -6.833  0.00  0.00    -0.047 A 
ATOM     34  C   UNL     1       0.333   1.105  -7.932  0.00  0.00    +0.003 A 
ATOM     35  C   UNL     1      -0.202   1.302  -9.191  0.00  0.00    +0.000 A 
ATOM     36  C   UNL     1      -1.570   1.423  -9.350  0.00  0.00    +0.000 A 
ATOM     37  C   UNL     1      -2.404   1.341  -8.251  0.00  0.00    +0.000 A 
ATOM     38  C   UNL     1      -1.869   1.139  -6.992  0.00  0.00    +0.003 A 
ENDBRANCH  32  33
ENDBRANCH  31  32
ENDBRANCH  29  31
ENDBRANCH  27  29
ENDBRANCH  22  25
ENDBRANCH   2  21
TORSDOF 8
