REMARK  Name = ZINC57329044
REMARK  11 active torsions:
REMARK  status: ('A' for Active; 'I' for Inactive)
REMARK    1  A    between atoms: C_1  and  C_2
REMARK    2  A    between atoms: C_2  and  C_3
REMARK    3  A    between atoms: C_3  and  C_4
REMARK    4  A    between atoms: C_4  and  N_5
REMARK    5  A    between atoms: N_5  and  C_6
REMARK    6  A    between atoms: C_7  and  N_19
REMARK    7  A    between atoms: N_8  and  C_15
REMARK    8  A    between atoms: C_15  and  C_16
REMARK    9  A    between atoms: C_16  and  C_17
REMARK   10  A    between atoms: C_16  and  C_18
REMARK   11  A    between atoms: C_20  and  C_22
REMARK                            x       y       z     vdW  Elec       q    Type
REMARK                         _______ _______ _______ _____ _____    ______ ____
ROOT
ATOM      1  N   UNL     1      -2.772  -2.582   0.009  0.00  0.00    -0.260 N 
ATOM      2  C   UNL     1      -3.358  -2.922   1.174  0.00  0.00    +0.258 C 
ATOM      3  O   UNL     1      -4.464  -3.433   1.172  0.00  0.00    -0.269 OA
ENDROOT
BRANCH   2   4
ATOM      4  C   UNL     1      -2.665  -2.678   2.442  0.00  0.00    +0.075 A 
ATOM      5  C   UNL     1      -3.027  -3.050   3.719  0.00  0.00    +0.024 A 
ATOM      6  C   UNL     1      -2.180  -2.656   4.759  0.00  0.00    -0.036 A 
ATOM      7  C   UNL     1      -1.108  -1.913   4.425  0.00  0.00    -0.006 A 
ATOM      8  S   UNL     1      -1.129  -1.830   2.741  0.00  0.00    -0.088 S 
ATOM      9  C   UNL     1      -0.079  -1.181   5.249  0.00  0.00    +0.043 C 
ATOM     10  C   UNL     1      -0.337  -1.311   6.750  0.00  0.00    +0.005 C 
ATOM     11  C   UNL     1       0.154  -2.651   7.272  0.00  0.00    +0.000 C 
ATOM     12  C   UNL     1      -0.088  -3.787   6.299  0.00  0.00    +0.000 C 
ATOM     13  C   UNL     1      -1.526  -4.266   6.524  0.00  0.00    +0.005 C 
ATOM     14  C   UNL     1      -2.487  -3.131   6.172  0.00  0.00    +0.036 C 
ENDBRANCH   2   4
BRANCH   1  15
ATOM     15  C   UNL     1      -3.483  -2.709  -1.202  0.00  0.00    +0.140 A 
ATOM     16  C   UNL     1      -3.087  -3.624  -2.157  0.00  0.00    +0.127 A 
ATOM     17  N   UNL     1      -3.801  -3.725  -3.328  0.00  0.00    -0.280 N 
ATOM     18  C   UNL     1      -4.873  -2.941  -3.541  0.00  0.00    +0.331 A 
ATOM     19  O   UNL     1      -5.491  -3.045  -4.583  0.00  0.00    -0.246 OA
ATOM     20  N   UNL     1      -5.274  -2.044  -2.623  0.00  0.00    -0.273 N 
ATOM     21  H   UNL     1      -6.051  -1.490  -2.800  0.00  0.00    +0.173 HD
ATOM     22  C   UNL     1      -4.613  -1.909  -1.457  0.00  0.00    +0.277 A 
ATOM     23  O   UNL     1      -4.988  -1.096  -0.629  0.00  0.00    -0.266 OA
BRANCH  16  24
ATOM     24  N   UNL     1      -1.991  -4.425  -1.939  0.00  0.00    -0.343 N 
ATOM     25  H   UNL     1      -1.448  -4.299  -1.145  0.00  0.00    +0.144 HD
ATOM     26  H   UNL     1      -1.760  -5.115  -2.580  0.00  0.00    +0.144 HD
ENDBRANCH  16  24
BRANCH  17  27
ATOM     27  C   UNL     1      -3.391  -4.691  -4.350  0.00  0.00    +0.131 C 
BRANCH  27  28
ATOM     28  C   UNL     1      -4.097  -6.026  -4.102  0.00  0.00    +0.003 C 
ATOM     29  C   UNL     1      -5.604  -5.848  -4.294  0.00  0.00    +0.009 C 
ATOM     30  C   UNL     1      -3.576  -7.070  -5.092  0.00  0.00    +0.009 C 
ENDBRANCH  27  28
ENDBRANCH  17  27
ENDBRANCH   1  15
BRANCH   1  31
ATOM     31  C   UNL     1      -1.395  -2.080   0.001  0.00  0.00    +0.114 C 
BRANCH  31  32
ATOM     32  C   UNL     1      -1.405  -0.561   0.180  0.00  0.00    +0.019 C 
BRANCH  32  34
ATOM     33  C   UNL     1       0.022   1.483   0.350  0.00  0.00    +0.004 C 
ATOM     34  C   UNL     1       0.032  -0.037   0.172  0.00  0.00    -0.002 C 
ENDBRANCH  32  34
ENDBRANCH  31  32
ENDBRANCH   1  31
TORSDOF 8
