REMARK  Name = ZINC26512399
REMARK  4 active torsions:
REMARK  status: ('A' for Active; 'I' for Inactive)
REMARK    1  A    between atoms: C_1  and  C_2
REMARK    2  A    between atoms: C_2  and  C_3
REMARK    3  A    between atoms: C_4  and  C_9
REMARK    4  A    between atoms: C_5  and  N_8
REMARK                            x       y       z     vdW  Elec       q    Type
REMARK                         _______ _______ _______ _____ _____    ______ ____
ROOT
ATOM      1  C   UNL     1      -3.256   0.550   1.135  0.00  0.00    +0.093 A 
ATOM      2  C   UNL     1      -2.505   1.003   0.019  0.00  0.00    +0.068 A 
ATOM      3  C   UNL     1      -3.254   0.576  -1.070  0.00  0.00    +0.223 A 
ATOM      4  O   UNL     1      -4.317  -0.062  -0.555  0.00  0.00    -0.339 OA
ATOM      5  N   UNL     1      -4.299  -0.062   0.652  0.00  0.00    -0.080 NA
ENDROOT
BRANCH   2   6
ATOM      6  C   UNL     1      -1.228   1.758   0.017  0.00  0.00    +0.007 A 
ATOM      7  C   UNL     1      -0.013   1.076   0.008  0.00  0.00    +0.010 A 
ATOM      8  C   UNL     1       1.172   1.783   0.000  0.00  0.00    +0.001 A 
ATOM      9  C   UNL     1       1.156   3.167   0.007  0.00  0.00    +0.001 A 
ATOM     10  C   UNL     1      -0.047   3.849   0.023  0.00  0.00    +0.020 A 
ATOM     11  C   UNL     1      -1.240   3.152   0.031  0.00  0.00    +0.049 A 
ATOM     12 CL   UNL     1      -2.748   4.010   0.050  0.00  0.00    -0.083 Cl
ENDBRANCH   2   6
BRANCH   3  13
ATOM     13  N   UNL     1      -2.964   0.767  -2.405  0.00  0.00    -0.327 N 
ATOM     14  H   UNL     1      -3.644   0.377  -3.176  0.00  0.00    +0.145 HD
ATOM     15  H   UNL     1      -2.053   1.310  -2.697  0.00  0.00    +0.145 HD
ENDBRANCH   3  13
BRANCH   1  17
ATOM     16  C   UNL     1      -3.533   2.046   3.093  0.00  0.00    +0.010 C 
ATOM     17  C   UNL     1      -2.915   0.740   2.590  0.00  0.00    +0.056 C 
ENDBRANCH   1  17
TORSDOF 3
