REMARK  Name = ZINC08682802
REMARK  9 active torsions:
REMARK  status: ('A' for Active; 'I' for Inactive)
REMARK    1  A    between atoms: C_1  and  C_2
REMARK    2  A    between atoms: N_4  and  C_5
REMARK    3  A    between atoms: C_8  and  N_11
REMARK    4  A    between atoms: C_12  and  C_14
REMARK    5  A    between atoms: C_14  and  N_15
REMARK    6  A    between atoms: N_15  and  C_16
REMARK    7  A    between atoms: N_15  and  S_32
REMARK    8  A    between atoms: C_19  and  C_22
REMARK    9  A    between atoms: S_32  and  C_35
REMARK                            x       y       z     vdW  Elec       q    Type
REMARK                         _______ _______ _______ _____ _____    ______ ____
ROOT
ATOM      1  N   UNL     1      -0.100  -8.910  -3.713  0.00  0.00    -0.199 N 
ENDROOT
BRANCH   1   2
ATOM      2  C   UNL     1       1.160  -9.029  -4.305  0.00  0.00    +0.051 A 
ATOM      3  C   UNL     1       1.287  -8.976  -5.688  0.00  0.00    +0.025 A 
ATOM      4  C   UNL     1       2.534  -9.094  -6.270  0.00  0.00    +0.006 A 
ATOM      5  C   UNL     1       3.655  -9.264  -5.478  0.00  0.00    -0.041 A 
ATOM      6  C   UNL     1       3.532  -9.317  -4.102  0.00  0.00    +0.006 A 
ATOM      7  C   UNL     1       2.289  -9.194  -3.513  0.00  0.00    +0.025 A 
BRANCH   5   8
ATOM      8  C   UNL     1       5.014  -9.393  -6.117  0.00  0.00    -0.003 C 
ATOM      9  C   UNL     1       5.319  -8.131  -6.926  0.00  0.00    +0.015 C 
ATOM     10  C   UNL     1       6.699  -8.262  -7.574  0.00  0.00    -0.010 C 
ATOM     11  C   UNL     1       7.759  -8.440  -6.486  0.00  0.00    +0.007 C 
ATOM     12  C   UNL     1       7.454  -9.702  -5.677  0.00  0.00    -0.010 C 
ATOM     13  C   UNL     1       6.074  -9.571  -5.028  0.00  0.00    +0.015 C 
ATOM     14  C   UNL     1       7.467 -10.918  -6.605  0.00  0.00    +0.007 C 
ATOM     15  C   UNL     1       6.407 -10.741  -7.694  0.00  0.00    -0.010 C 
ATOM     16  C   UNL     1       6.712  -9.478  -8.502  0.00  0.00    +0.007 C 
ATOM     17  C   UNL     1       5.027 -10.610  -7.045  0.00  0.00    +0.015 C 
ENDBRANCH   5   8
ENDBRANCH   1   2
BRANCH   1  18
ATOM     18  S   UNL     1      -1.458  -9.326  -4.565  0.00  0.00    +0.043 S 
ATOM     19  O   UNL     1      -1.030 -10.351  -5.452  0.00  0.00    -0.155 OA
ATOM     20  O   UNL     1      -2.441  -9.590  -3.573  0.00  0.00    -0.155 OA
ATOM     21  C   UNL     1      -1.897  -7.835  -5.499  0.00  0.00    +0.218 C 
ENDBRANCH   1  18
BRANCH   1  22
ATOM     22  C   UNL     1      -0.219  -8.416  -2.339  0.00  0.00    +0.227 C 
BRANCH  22  24
ATOM     23  N   UNL     1      -0.344  -6.231  -1.186  0.00  0.00    -0.284 N 
ATOM     24  C   UNL     1      -0.240  -6.910  -2.346  0.00  0.00    +0.236 C 
ATOM     25  O   UNL     1      -0.162  -6.307  -3.396  0.00  0.00    -0.274 OA
ATOM     26  H   UNL     1      -0.481  -6.712  -0.354  0.00  0.00    +0.155 HD
BRANCH  23  30
ATOM     27  C   UNL     1      -0.081  -2.070  -1.172  0.00  0.00    +0.033 A 
ATOM     28  C   UNL     1      -0.908  -2.717  -0.263  0.00  0.00    +0.025 A 
ATOM     29  C   UNL     1      -0.995  -4.094  -0.267  0.00  0.00    +0.025 A 
ATOM     30  C   UNL     1      -0.256  -4.834  -1.182  0.00  0.00    +0.034 A 
ATOM     31  C   UNL     1       0.571  -4.187  -2.091  0.00  0.00    +0.025 A 
ATOM     32  C   UNL     1       0.653  -2.809  -2.090  0.00  0.00    +0.025 A 
BRANCH  27  36
ATOM     33  C   UNL     1       0.142   1.505  -2.333  0.00  0.00    +0.109 C 
ATOM     34  C   UNL     1       0.150  -0.002  -2.328  0.00  0.00    +0.214 C 
ATOM     35  O   UNL     1       0.286  -0.612  -3.367  0.00  0.00    -0.276 OA
ATOM     36  N   UNL     1       0.007  -0.672  -1.167  0.00  0.00    -0.286 N 
ATOM     37  H   UNL     1      -0.035  -0.186  -0.328  0.00  0.00    +0.155 HD
ENDBRANCH  27  36
ENDBRANCH  23  30
ENDBRANCH  22  24
ENDBRANCH   1  22
TORSDOF 7
