REMARK  Name = ZINC08648567
REMARK  9 active torsions:
REMARK  status: ('A' for Active; 'I' for Inactive)
REMARK    1  A    between atoms: C_4  and  N_7
REMARK    2  A    between atoms: N_10  and  N_11
REMARK    3  A    between atoms: C_12  and  C_14
REMARK    4  A    between atoms: C_14  and  C_15
REMARK    5  A    between atoms: C_15  and  N_16
REMARK    6  A    between atoms: N_16  and  C_17
REMARK    7  A    between atoms: N_16  and  S_23
REMARK    8  A    between atoms: C_17  and  C_18
REMARK    9  A    between atoms: S_23  and  C_26
REMARK                            x       y       z     vdW  Elec       q    Type
REMARK                         _______ _______ _______ _____ _____    ______ ____
ROOT
ATOM      1  C   UNL     1       1.193  -6.298   0.387  0.00  0.00    +0.119 C 
ENDROOT
BRANCH   1   2
ATOM      2  C   UNL     1       1.444  -4.794   0.267  0.00  0.00    +0.114 C 
BRANCH   2   4
ATOM      3  N   UNL     1       0.100  -2.718   0.190  0.00  0.00    -0.233 N 
ATOM      4  C   UNL     1       0.126  -4.063   0.284  0.00  0.00    +0.230 C 
ATOM      5  O   UNL     1      -0.911  -4.684   0.382  0.00  0.00    -0.274 OA
ATOM      6  H   UNL     1       0.930  -2.222   0.111  0.00  0.00    +0.173 HD
BRANCH   3  10
ATOM      7  N   UNL     1       0.002  -0.004   0.002  0.00  0.00    -0.268 N 
ATOM      8  C   UNL     1      -1.150  -0.694   0.111  0.00  0.00    +0.320 C 
ATOM      9  O   UNL     1      -2.213  -0.104   0.124  0.00  0.00    -0.251 OA
ATOM     10  N   UNL     1      -1.125  -2.038   0.205  0.00  0.00    -0.218 N 
ATOM     11  H   UNL     1       0.845  -0.477  -0.077  0.00  0.00    +0.156 HD
ATOM     12  H   UNL     1      -1.954  -2.535   0.284  0.00  0.00    +0.174 HD
BRANCH   7  16
ATOM     13  C   UNL     1      -0.057   4.162   0.004  0.00  0.00    +0.000 A 
ATOM     14  C   UNL     1       0.994   3.486   0.597  0.00  0.00    +0.002 A 
ATOM     15  C   UNL     1       1.016   2.105   0.598  0.00  0.00    +0.023 A 
ATOM     16  C   UNL     1      -0.018   1.395   0.003  0.00  0.00    +0.035 A 
ATOM     17  C   UNL     1      -1.068   2.077  -0.597  0.00  0.00    +0.023 A 
ATOM     18  C   UNL     1      -1.087   3.458  -0.590  0.00  0.00    +0.002 A 
ENDBRANCH   7  16
ENDBRANCH   3  10
ENDBRANCH   2   4
ENDBRANCH   1   2
BRANCH   1  19
ATOM     19  N   UNL     1       2.474  -7.010   0.370  0.00  0.00    -0.169 NA
BRANCH  19  20
ATOM     20  S   UNL     1       3.212  -7.419   1.795  0.00  0.00    +0.061 S 
ATOM     21  O   UNL     1       4.597  -7.558   1.510  0.00  0.00    -0.153 OA
ATOM     22  O   UNL     1       2.723  -6.518   2.780  0.00  0.00    -0.153 OA
BRANCH  20  23
ATOM     23  C   UNL     1       2.627  -9.020   2.243  0.00  0.00    +0.106 A 
ATOM     24  C   UNL     1       1.500  -9.147   3.034  0.00  0.00    +0.030 A 
ATOM     25  C   UNL     1       1.038 -10.403   3.381  0.00  0.00    +0.022 A 
ATOM     26  C   UNL     1       1.709 -11.532   2.946  0.00  0.00    +0.041 A 
ATOM     27  C   UNL     1       2.840 -11.403   2.160  0.00  0.00    +0.022 A 
ATOM     28  C   UNL     1       3.299 -10.147   1.809  0.00  0.00    +0.030 A 
ATOM     29 CL   UNL     1       1.133 -13.109   3.387  0.00  0.00    -0.084 Cl
ENDBRANCH  20  23
ENDBRANCH  19  20
BRANCH  19  30
ATOM     30  C   UNL     1       3.102  -7.358  -0.906  0.00  0.00    +0.183 C 
BRANCH  30  31
ATOM     31  C   UNL     1       3.910  -6.188  -1.405  0.00  0.00    +0.120 A 
ATOM     32  C   UNL     1       5.207  -5.953  -1.132  0.00  0.00    +0.046 A 
ATOM     33  C   UNL     1       5.556  -4.756  -1.798  0.00  0.00    +0.041 A 
ATOM     34  C   UNL     1       4.452  -4.330  -2.438  0.00  0.00    +0.195 A 
ATOM     35  O   UNL     1       3.460  -5.205  -2.201  0.00  0.00    -0.466 OA
ENDBRANCH  30  31
ENDBRANCH  19  30
ENDBRANCH   1  19
TORSDOF 9
