REMARK  Name = ZINC39448807
REMARK  4 active torsions:
REMARK  status: ('A' for Active; 'I' for Inactive)
REMARK    1  A    between atoms: C_16  and  C_18
REMARK    2  A    between atoms: C_18  and  S_19
REMARK    3  A    between atoms: S_19  and  C_20
REMARK    4  A    between atoms: C_22  and  C_28
REMARK                            x       y       z     vdW  Elec       q    Type
REMARK                         _______ _______ _______ _____ _____    ______ ____
ROOT
ATOM      1  C   UNL     1       5.916  -1.090   0.718  0.00  0.00    +0.173 C 
ENDROOT
BRANCH   1  17
ATOM      2  C   UNL     1      -0.017   1.371   0.010  0.00  0.00    +0.000 A 
ATOM      3  C   UNL     1       1.168   2.085   0.002  0.00  0.00    +0.002 A 
ATOM      4  C   UNL     1       2.365   1.400  -0.028  0.00  0.00    +0.024 A 
ATOM      5  C   UNL     1       2.383   0.009  -0.042  0.00  0.00    +0.044 A 
ATOM      6  C   UNL     1       1.204  -0.717  -0.008  0.00  0.00    -0.025 A 
ATOM      7  C   UNL     1       0.002  -0.004   0.002  0.00  0.00    +0.005 A 
ATOM      8  C   UNL     1       1.047  -2.219   0.059  0.00  0.00    +0.042 C 
ATOM      9  C   UNL     1       2.374  -2.955   0.112  0.00  0.00    +0.042 C 
ATOM     10  C   UNL     1       3.191  -2.701  -1.128  0.00  0.00    -0.025 A 
ATOM     11  C   UNL     1       3.277  -3.606  -2.162  0.00  0.00    +0.005 A 
ATOM     12  C   UNL     1       4.077  -3.297  -3.253  0.00  0.00    +0.000 A 
ATOM     13  C   UNL     1       4.775  -2.103  -3.295  0.00  0.00    +0.002 A 
ATOM     14  C   UNL     1       4.674  -1.195  -2.254  0.00  0.00    +0.024 A 
ATOM     15  C   UNL     1       3.862  -1.508  -1.178  0.00  0.00    +0.044 A 
ATOM     16  N   UNL     1       3.632  -0.626  -0.112  0.00  0.00    -0.239 N 
ATOM     17  C   UNL     1       4.582  -0.395   0.816  0.00  0.00    +0.234 C 
ATOM     18  O   UNL     1       4.364   0.372   1.730  0.00  0.00    -0.274 OA
ENDBRANCH   1  17
BRANCH   1  19
ATOM     19  S   UNL     1       6.969  -0.575   2.102  0.00  0.00    -0.081 S 
BRANCH  19  20
ATOM     20  C   UNL     1       8.470  -1.462   1.848  0.00  0.00    +0.160 C 
ATOM     21  N   UNL     1       9.523  -1.326   2.722  0.00  0.00    -0.298 N 
ATOM     22  C   UNL     1      10.427  -2.475   2.886  0.00  0.00    +0.236 C 
ATOM     23  N   UNL     1      10.647  -3.079   1.567  0.00  0.00    -0.333 N 
ATOM     24  C   UNL     1       9.743  -2.969   0.630  0.00  0.00    +0.190 C 
ATOM     25  N   UNL     1       8.607  -2.276   0.817  0.00  0.00    -0.195 NA
ATOM     26  N   UNL     1       9.959  -3.587  -0.585  0.00  0.00    -0.329 N 
ATOM     27  H   UNL     1      10.773  -4.094  -0.734  0.00  0.00    +0.145 HD
ATOM     28  H   UNL     1       9.297  -3.515  -1.291  0.00  0.00    +0.145 HD
ATOM     29  H   UNL     1       9.665  -0.501   3.214  0.00  0.00    +0.150 HD
ATOM     30  H   UNL     1      11.469  -3.563   1.389  0.00  0.00    +0.164 HD
BRANCH  22  31
ATOM     31  C   UNL     1       9.800  -3.486   3.810  0.00  0.00    +0.145 A 
ATOM     32  C   UNL     1      10.000  -4.816   3.773  0.00  0.00    +0.048 A 
ATOM     33  C   UNL     1       9.222  -5.377   4.812  0.00  0.00    +0.041 A 
ATOM     34  C   UNL     1       8.593  -4.356   5.423  0.00  0.00    +0.195 A 
ATOM     35  O   UNL     1       8.952  -3.213   4.815  0.00  0.00    -0.464 OA
ENDBRANCH  22  31
ENDBRANCH  19  20
ENDBRANCH   1  19
TORSDOF 4
