REMARK  Name = ZINC34682037
REMARK  7 active torsions:
REMARK  status: ('A' for Active; 'I' for Inactive)
REMARK    1  A    between atoms: C_1  and  N_2
REMARK    2  A    between atoms: N_2  and  C_3
REMARK    3  A    between atoms: N_2  and  C_4
REMARK    4  A    between atoms: C_7  and  C_10
REMARK    5  A    between atoms: C_10  and  N_11
REMARK    6  A    between atoms: C_20  and  N_23
REMARK    7  A    between atoms: N_26  and  C_27
REMARK                            x       y       z     vdW  Elec       q    Type
REMARK                         _______ _______ _______ _____ _____    ______ ____
ROOT
ATOM      1  N   UNL     1      -1.394  -3.071  -5.339  0.00  0.00    -0.295 NA
ATOM      2  C   UNL     1      -2.070  -3.983  -4.406  0.00  0.00    +0.103 C 
ATOM      3  C   UNL     1      -3.554  -4.077  -4.775  0.00  0.00    +0.122 C 
ATOM      4  N   UNL     1      -3.661  -4.448  -6.194  0.00  0.00    -0.314 N 
ATOM      5  C   UNL     1      -2.900  -3.662  -7.178  0.00  0.00    +0.122 C 
ATOM      6  C   UNL     1      -1.441  -3.584  -6.714  0.00  0.00    +0.103 C 
ATOM      7  C   UNL     1      -4.460  -5.514  -6.597  0.00  0.00    +0.099 A 
ATOM      8  C   UNL     1      -5.083  -6.307  -5.638  0.00  0.00    +0.043 A 
ATOM      9  C   UNL     1      -5.875  -7.364  -6.048  0.00  0.00    +0.028 A 
ATOM     10  C   UNL     1      -6.019  -7.594  -7.415  0.00  0.00    +0.051 A 
ATOM     11  C   UNL     1      -5.369  -6.762  -8.313  0.00  0.00    +0.107 A 
ATOM     12  N   UNL     1      -4.624  -5.759  -7.887  0.00  0.00    -0.348 N 
ATOM     13  H   UNL     1      -4.182  -5.189  -8.536  0.00  0.00    +0.167 HD
ENDROOT
BRANCH  10  14
ATOM     14  N   UNL     1      -6.813  -8.654  -7.877  0.00  0.00    -0.268 N 
ATOM     15  C   UNL     1      -7.925  -9.007  -7.202  0.00  0.00    +0.308 C 
ATOM     16  O   UNL     1      -8.295  -8.344  -6.252  0.00  0.00    -0.252 OA
ATOM     17  N   UNL     1      -8.626 -10.094  -7.580  0.00  0.00    -0.267 N 
ATOM     18  H   UNL     1      -6.561  -9.133  -8.681  0.00  0.00    +0.156 HD
ATOM     19  H   UNL     1      -8.368 -10.585  -8.375  0.00  0.00    +0.156 HD
BRANCH  17  20
ATOM     20  C   UNL     1      -9.729 -10.514  -6.823  0.00  0.00    +0.070 A 
ATOM     21  C   UNL     1     -10.540  -9.578  -6.197  0.00  0.00    +0.029 A 
ATOM     22  C   UNL     1     -11.626  -9.995  -5.452  0.00  0.00    +0.040 A 
ATOM     23  C   UNL     1     -11.907 -11.345  -5.328  0.00  0.00    +0.126 A 
ATOM     24  C   UNL     1     -11.100 -12.282  -5.952  0.00  0.00    +0.078 A 
ATOM     25  C   UNL     1     -10.015 -11.870  -6.704  0.00  0.00    +0.147 A 
ATOM     26  F   UNL     1      -9.231 -12.783  -7.317  0.00  0.00    -0.203 F 
ATOM     27  F   UNL     1     -12.970 -11.749  -4.599  0.00  0.00    -0.205 F 
ENDBRANCH  17  20
ENDBRANCH  10  14
BRANCH   1  28
ATOM     28  C   UNL     1      -0.009  -2.819  -4.918  0.00  0.00    +0.119 C 
BRANCH  28  32
ATOM     29  C   UNL     1      -0.011  -0.696  -1.208  0.00  0.00    +0.029 A 
ATOM     30  C   UNL     1      -0.003  -2.085  -1.215  0.00  0.00    +0.023 A 
ATOM     31  C   UNL     1      -0.003  -2.768  -2.416  0.00  0.00    +0.007 A 
ATOM     32  C   UNL     1      -0.011  -2.070  -3.610  0.00  0.00    -0.033 A 
ATOM     33  C   UNL     1      -0.019  -0.687  -3.607  0.00  0.00    +0.007 A 
ATOM     34  C   UNL     1      -0.025   0.002  -2.410  0.00  0.00    +0.023 A 
BRANCH  29  36
ATOM     35  C   UNL     1      -0.027   1.463   0.009  0.00  0.00    +0.129 C 
ATOM     36  N   UNL     1      -0.012  -0.002   0.004  0.00  0.00    -0.336 N 
ATOM     37  C   UNL     1       0.003  -0.739   1.270  0.00  0.00    +0.129 C 
ENDBRANCH  29  36
ENDBRANCH  28  32
ENDBRANCH   1  28
TORSDOF 5
