REMARK  Name = ZINC05067096
REMARK  14 active torsions:
REMARK  status: ('A' for Active; 'I' for Inactive)
REMARK    1  A    between atoms: C_1  and  C_2
REMARK    2  A    between atoms: C_2  and  O_3
REMARK    3  A    between atoms: O_3  and  C_4
REMARK    4  A    between atoms: C_4  and  C_6
REMARK    5  A    between atoms: C_7  and  N_20
REMARK    6  A    between atoms: C_10  and  O_18
REMARK    7  A    between atoms: C_11  and  O_16
REMARK    8  A    between atoms: O_16  and  C_17
REMARK    9  A    between atoms: O_18  and  C_19
REMARK   10  A    between atoms: C_21  and  C_23
REMARK   11  A    between atoms: C_23  and  C_25
REMARK   12  A    between atoms: C_23  and  N_64
REMARK   13  A    between atoms: C_27  and  C_34
REMARK   14  A    between atoms: C_30  and  C_33
REMARK                            x       y       z     vdW  Elec       q    Type
REMARK                         _______ _______ _______ _____ _____    ______ ____
ROOT
ATOM      1  C   UNL     1       3.805   3.351   0.420  0.00  0.00    +0.147 A 
ATOM      2  C   UNL     1       5.048   3.740  -0.038  0.00  0.00    +0.073 A 
ATOM      3  C   UNL     1       5.717   2.528  -0.515  0.00  0.00    +0.025 A 
ATOM      4  C   UNL     1       6.975   2.284  -1.081  0.00  0.00    +0.061 A 
ATOM      5  C   UNL     1       7.327   1.001  -1.436  0.00  0.00    +0.162 A 
ATOM      6  C   UNL     1       6.433  -0.055  -1.234  0.00  0.00    +0.163 A 
ATOM      7  C   UNL     1       5.189   0.174  -0.681  0.00  0.00    +0.075 A 
ATOM      8  C   UNL     1       4.819   1.464  -0.310  0.00  0.00    +0.053 A 
ATOM      9  N   UNL     1       3.672   1.979   0.253  0.00  0.00    -0.347 N 
ATOM     10  H   UNL     1       2.890   1.461   0.498  0.00  0.00    +0.166 HD
ENDROOT
BRANCH   2  11
ATOM     11  N   UNL     1       5.564   5.031  -0.045  0.00  0.00    -0.284 N 
ATOM     12  C   UNL     1       6.885   5.230   0.138  0.00  0.00    +0.203 C 
ATOM     13  O   UNL     1       7.635   4.281   0.220  0.00  0.00    -0.277 OA
ATOM     14  H   UNL     1       4.974   5.789  -0.182  0.00  0.00    +0.155 HD
BRANCH  12  15
ATOM     15  C   UNL     1       7.429   6.632   0.239  0.00  0.00    +0.016 C 
ATOM     16  C   UNL     1       6.780   7.346   1.427  0.00  0.00    -0.004 C 
BRANCH  15  24
ATOM     17  C   UNL     1       9.222   5.868   1.675  0.00  0.00    -0.075 C 
ATOM     18  C   UNL     1      10.741   5.706   1.773  0.00  0.00    -0.031 C 
ATOM     19  C   UNL     1      11.399   7.088   1.759  0.00  0.00    +0.003 C 
ATOM     20  C   UNL     1      10.992   7.827   0.481  0.00  0.00    -0.031 C 
ATOM     21  C   UNL     1       9.466   7.927   0.421  0.00  0.00    -0.075 C 
ATOM     22  C   UNL     1      11.597   9.232   0.488  0.00  0.00    +0.005 C 
ATOM     23  C   UNL     1      11.245   4.888   0.582  0.00  0.00    +0.005 C 
ATOM     24  N   UNL     1       8.895   6.564   0.412  0.00  0.00    +0.387 N 
ATOM     25  H   UNL     1       9.299   6.038  -0.372  0.00  0.00    -0.081 HD
ENDBRANCH  15  24
ENDBRANCH  12  15
ENDBRANCH   2  11
BRANCH   1  26
ATOM     26  C   UNL     1       2.824   4.213   0.970  0.00  0.00    +0.358 C 
ATOM     27  O   UNL     1       3.083   5.386   1.162  0.00  0.00    -0.243 OA
BRANCH  26  28
ATOM     28  O   UNL     1       1.602   3.732   1.281  0.00  0.00    -0.460 OA
BRANCH  28  30
ATOM     29  C   UNL     1      -0.656   3.934   2.118  0.00  0.00    +0.048 C 
ATOM     30  C   UNL     1       0.662   4.657   1.832  0.00  0.00    +0.229 C 
ENDBRANCH  28  30
ENDBRANCH  26  28
ENDBRANCH   1  26
BRANCH   6  31
ATOM     31  O   UNL     1       6.791  -1.318  -1.588  0.00  0.00    -0.491 OA
ATOM     32  C   UNL     1       5.834  -2.353  -1.355  0.00  0.00    +0.277 C 
ENDBRANCH   6  31
BRANCH   5  33
ATOM     33  O   UNL     1       8.547   0.761  -1.987  0.00  0.00    -0.491 OA
ATOM     34  C   UNL     1       9.411   1.885  -2.166  0.00  0.00    +0.277 C 
ENDBRANCH   5  33
TORSDOF 8
