REMARK  Name = ZINC33942214
REMARK  9 active torsions:
REMARK  status: ('A' for Active; 'I' for Inactive)
REMARK    1  A    between atoms: C_1  and  C_2
REMARK    2  A    between atoms: C_2  and  C_3
REMARK    3  A    between atoms: C_2  and  C_4
REMARK    4  A    between atoms: C_7  and  N_10
REMARK    5  A    between atoms: C_11  and  C_13
REMARK    6  A    between atoms: C_16  and  C_25
REMARK    7  A    between atoms: C_17  and  C_18
REMARK    8  A    between atoms: C_17  and  C_19
REMARK    9  A    between atoms: N_21  and  O_22
REMARK                            x       y       z     vdW  Elec       q    Type
REMARK                         _______ _______ _______ _____ _____    ______ ____
ROOT
ATOM      1  C   UNL     1       4.579  -2.901  -5.799  0.00  0.00    +0.117 C 
ATOM      2  C   UNL     1       3.842  -3.859  -6.785  0.00  0.00    +0.026 C 
ATOM      3  C   UNL     1       4.972  -4.460  -7.653  0.00  0.00    +0.015 C 
ATOM      4  C   UNL     1       6.274  -3.802  -7.101  0.00  0.00    +0.023 C 
ATOM      5  C   UNL     1       5.918  -3.690  -5.576  0.00  0.00    -0.003 C 
ATOM      6  C   UNL     1       6.944  -2.875  -4.784  0.00  0.00    +0.013 C 
ATOM      7  C   UNL     1       5.681  -5.067  -4.953  0.00  0.00    +0.013 C 
ATOM      8  C   UNL     1       6.163  -2.329  -7.520  0.00  0.00    +0.129 C 
ATOM      9  N   UNL     1       6.870  -1.716  -8.415  0.00  0.00    -0.088 NA
ATOM     10  C   UNL     1       5.084  -1.742  -6.671  0.00  0.00    +0.196 C 
ATOM     11  O   UNL     1       4.675  -0.601  -6.678  0.00  0.00    -0.290 OA
ATOM     12  C   UNL     1       7.584  -4.516  -7.442  0.00  0.00    +0.018 C 
ENDROOT
BRANCH   1  14
ATOM     13  N   UNL     1       2.657  -1.834  -4.665  0.00  0.00    -0.285 N 
ATOM     14  C   UNL     1       3.817  -2.513  -4.559  0.00  0.00    +0.232 C 
ATOM     15  O   UNL     1       4.246  -2.811  -3.465  0.00  0.00    -0.274 OA
ATOM     16  H   UNL     1       2.280  -1.653  -5.541  0.00  0.00    +0.155 HD
BRANCH  13  20
ATOM     17  C   UNL     1       0.698  -0.508  -1.236  0.00  0.00    -0.045 A 
ATOM     18  C   UNL     1       1.379  -1.712  -1.220  0.00  0.00    +0.006 A 
ATOM     19  C   UNL     1       2.030  -2.154  -2.355  0.00  0.00    +0.023 A 
ATOM     20  C   UNL     1       1.999  -1.389  -3.514  0.00  0.00    +0.033 A 
ATOM     21  C   UNL     1       1.313  -0.181  -3.527  0.00  0.00    +0.023 A 
ATOM     22  C   UNL     1       0.660   0.253  -2.390  0.00  0.00    +0.006 A 
BRANCH  17  24
ATOM     23  C   UNL     1      -1.069  -1.055   0.415  0.00  0.00    +0.012 C 
ATOM     24  C   UNL     1      -0.011  -0.029   0.004  0.00  0.00    +0.013 C 
ATOM     25  C   UNL     1       1.002   0.141   1.137  0.00  0.00    +0.012 C 
ENDBRANCH  17  24
ENDBRANCH  13  20
ENDBRANCH   1  14
BRANCH   9  26
ATOM     26  O   UNL     1       6.638  -0.345  -8.683  0.00  0.00    -0.409 OA
ATOM     27  H   UNL     1       7.214   0.025  -9.366  0.00  0.00    +0.328 HD
ENDBRANCH   9  26
TORSDOF 4
