REMARK  Name = ZINC36610371
REMARK  9 active torsions:
REMARK  status: ('A' for Active; 'I' for Inactive)
REMARK    1  A    between atoms: C_4  and  N_7
REMARK    2  A    between atoms: N_7  and  C_8
REMARK    3  A    between atoms: C_8  and  C_10
REMARK    4  A    between atoms: C_8  and  C_20
REMARK    5  A    between atoms: C_12  and  N_17
REMARK    6  A    between atoms: N_22  and  C_23
REMARK    7  A    between atoms: C_29  and  C_31
REMARK    8  A    between atoms: C_35  and  O_38
REMARK    9  A    between atoms: C_36  and  O_37
REMARK                            x       y       z     vdW  Elec       q    Type
REMARK                         _______ _______ _______ _____ _____    ______ ____
ROOT
ATOM      1  C   UNL     1       4.079  -2.155   0.836  0.00  0.00    +0.199 C 
ENDROOT
BRANCH   1   2
ATOM      2  C   UNL     1       2.668  -2.471   0.408  0.00  0.00    +0.003 A 
ATOM      3  C   UNL     1       1.740  -2.891   1.343  0.00  0.00    +0.040 A 
ATOM      4  C   UNL     1       0.447  -3.182   0.950  0.00  0.00    +0.127 A 
ATOM      5  C   UNL     1       0.081  -3.053  -0.377  0.00  0.00    +0.034 A 
ATOM      6  C   UNL     1       1.008  -2.632  -1.312  0.00  0.00    +0.022 A 
ATOM      7  C   UNL     1       2.301  -2.336  -0.919  0.00  0.00    +0.047 A 
ATOM      8 CL   UNL     1       3.464  -1.800  -2.091  0.00  0.00    -0.083 Cl
BRANCH   4   9
ATOM      9  N   UNL     1      -0.546  -3.632   1.951  0.00  0.00    +0.056 N 
ATOM     10  O   UNL     1      -0.226  -3.746   3.112  0.00  0.00    -0.126 OA
ATOM     11  O   UNL     1      -1.677  -3.886   1.608  0.00  0.00    -0.126 OA
ENDBRANCH   4   9
ENDBRANCH   1   2
BRANCH   1  12
ATOM     12  C   UNL     1       4.340  -2.759   2.191  0.00  0.00    +0.239 C 
ATOM     13  O   UNL     1       4.320  -2.059   3.182  0.00  0.00    -0.273 OA
ATOM     14  N   UNL     1       4.596  -4.078   2.303  0.00  0.00    -0.311 N 
ATOM     15  H   UNL     1       4.678  -4.625   1.507  0.00  0.00    +0.149 HD
BRANCH  14  16
ATOM     16  C   UNL     1       4.750  -4.684   3.628  0.00  0.00    +0.073 C 
ATOM     17  C   UNL     1       6.194  -4.513   4.102  0.00  0.00    +0.022 C 
ATOM     18  C   UNL     1       6.355  -5.146   5.486  0.00  0.00    +0.002 C 
ATOM     19  C   UNL     1       6.017  -6.636   5.407  0.00  0.00    +0.000 C 
ATOM     20  C   UNL     1       4.573  -6.807   4.933  0.00  0.00    +0.002 C 
ATOM     21  C   UNL     1       4.412  -6.174   3.549  0.00  0.00    +0.022 C 
ENDBRANCH  14  16
ENDBRANCH   1  12
BRANCH   1  22
ATOM     22  N   UNL     1       4.253  -0.702   0.907  0.00  0.00    -0.251 N 
ATOM     23  C   UNL     1       5.252  -0.109   0.224  0.00  0.00    +0.255 C 
ATOM     24  O   UNL     1       5.936  -0.761  -0.541  0.00  0.00    -0.269 OA
BRANCH  22  28
ATOM     25  C   UNL     1       1.662   1.595   3.223  0.00  0.00    +0.000 A 
ATOM     26  C   UNL     1       1.165   0.834   2.180  0.00  0.00    +0.002 A 
ATOM     27  C   UNL     1       2.021   0.071   1.411  0.00  0.00    +0.023 A 
ATOM     28  C   UNL     1       3.383   0.070   1.684  0.00  0.00    +0.038 A 
ATOM     29  C   UNL     1       3.879   0.835   2.732  0.00  0.00    +0.023 A 
ATOM     30  C   UNL     1       3.017   1.595   3.498  0.00  0.00    +0.002 A 
ENDBRANCH  22  28
BRANCH  23  31
ATOM     31  C   UNL     1       5.514   1.332   0.403  0.00  0.00    +0.082 A 
ATOM     32  C   UNL     1       4.452   2.222   0.590  0.00  0.00    +0.017 A 
ATOM     33  C   UNL     1       4.702   3.566   0.757  0.00  0.00    +0.005 A 
ATOM     34  C   UNL     1       6.002   4.044   0.742  0.00  0.00    +0.049 A 
ATOM     35  C   UNL     1       7.064   3.175   0.558  0.00  0.00    +0.159 A 
ATOM     36  C   UNL     1       6.829   1.814   0.393  0.00  0.00    +0.171 A 
BRANCH  36  37
ATOM     37  O   UNL     1       7.868   0.958   0.219  0.00  0.00    -0.503 OA
ATOM     38  H   UNL     1       8.119   0.828  -0.706  0.00  0.00    +0.292 HD
ENDBRANCH  36  37
BRANCH  35  39
ATOM     39  O   UNL     1       8.338   3.652   0.544  0.00  0.00    -0.503 OA
ATOM     40  H   UNL     1       8.760   3.672   1.414  0.00  0.00    +0.292 HD
ENDBRANCH  35  39
ENDBRANCH  23  31
ENDBRANCH   1  22
TORSDOF 9
