REMARK  Name = ZINC13063733
REMARK  12 active torsions:
REMARK  status: ('A' for Active; 'I' for Inactive)
REMARK    1  A    between atoms: C_1  and  C_2
REMARK    2  A    between atoms: C_2  and  C_3
REMARK    3  A    between atoms: C_10  and  C_15
REMARK    4  A    between atoms: C_15  and  N_69
REMARK    5  A    between atoms: C_16  and  C_17
REMARK    6  A    between atoms: C_16  and  N_69
REMARK    7  A    between atoms: C_24  and  C_26
REMARK    8  A    between atoms: C_24  and  C_28
REMARK    9  A    between atoms: C_24  and  N_69
REMARK   10  A    between atoms: C_26  and  C_27
REMARK   11  A    between atoms: N_32  and  C_33
REMARK   12  A    between atoms: C_33  and  C_34
REMARK                            x       y       z     vdW  Elec       q    Type
REMARK                         _______ _______ _______ _____ _____    ______ ____
ROOT
ATOM      1  N   UNL     1       0.862   4.147  -1.166  0.00  0.00    +0.392 N 
ATOM      2  H   UNL     1      -0.044   4.578  -0.946  0.00  0.00    -0.080 HD
ENDROOT
BRANCH   1   3
ATOM      3  C   UNL     1       1.923   5.167  -1.039  0.00  0.00    -0.036 C 
BRANCH   3  11
ATOM      4  C   UNL     1       7.007   3.399  -4.092  0.00  0.00    -0.047 A 
ATOM      5  C   UNL     1       7.644   2.814  -3.006  0.00  0.00    +0.005 A 
ATOM      6  C   UNL     1       7.049   2.802  -1.763  0.00  0.00    +0.026 A 
ATOM      7  C   UNL     1       5.796   3.381  -1.592  0.00  0.00    +0.049 A 
ATOM      8  C   UNL     1       5.152   3.974  -2.695  0.00  0.00    -0.001 A 
ATOM      9  C   UNL     1       5.776   3.974  -3.947  0.00  0.00    +0.013 A 
ATOM     10  C   UNL     1       3.834   4.581  -2.505  0.00  0.00    +0.017 A 
ATOM     11  C   UNL     1       3.279   4.551  -1.268  0.00  0.00    +0.001 A 
ATOM     12  C   UNL     1       3.969   3.950  -0.194  0.00  0.00    +0.251 A 
ATOM     13  O   UNL     1       3.454   3.938   0.910  0.00  0.00    -0.268 OA
ATOM     14  N   UNL     1       5.178   3.384  -0.360  0.00  0.00    -0.322 N 
ATOM     15  H   UNL     1       5.623   2.976   0.399  0.00  0.00    +0.169 HD
BRANCH   4  17
ATOM     16  C   UNL     1       8.531   4.662  -5.586  0.00  0.00    +0.009 C 
ATOM     17  C   UNL     1       7.678   3.400  -5.441  0.00  0.00    +0.032 C 
ENDBRANCH   4  17
ENDBRANCH   3  11
ENDBRANCH   1   3
BRANCH   1  18
ATOM     18  C   UNL     1       0.823   3.627  -2.549  0.00  0.00    -0.042 C 
BRANCH  18  19
ATOM     19  C   UNL     1       0.149   4.648  -3.429  0.00  0.00    -0.064 A 
ATOM     20  C   UNL     1      -1.231   4.697  -3.498  0.00  0.00    +0.004 A 
ATOM     21  C   UNL     1      -1.851   5.636  -4.301  0.00  0.00    +0.038 A 
ATOM     22  C   UNL     1      -1.089   6.520  -5.045  0.00  0.00    +0.123 A 
ATOM     23  C   UNL     1       0.293   6.466  -4.981  0.00  0.00    +0.038 A 
ATOM     24  C   UNL     1       0.910   5.530  -4.173  0.00  0.00    +0.004 A 
ATOM     25  F   UNL     1      -1.693   7.435  -5.835  0.00  0.00    -0.205 F 
ENDBRANCH  18  19
ENDBRANCH   1  18
BRANCH   1  26
ATOM     26  C   UNL     1       1.109   3.040  -0.218  0.00  0.00    +0.003 C 
BRANCH  26  27
ATOM     27  C   UNL     1       0.139   1.922  -0.501  0.00  0.00    +0.138 A 
ATOM     28  N   UNL     1      -1.143   2.041  -0.744  0.00  0.00    -0.115 NA
ATOM     29  N   UNL     1      -1.623   0.861  -0.937  0.00  0.00    -0.023 NA
ATOM     30  N   UNL     1      -0.680  -0.008  -0.824  0.00  0.00    -0.044 NA
ATOM     31  N   UNL     1       0.422   0.607  -0.555  0.00  0.00    -0.226 N 
BRANCH  31  32
ATOM     32  C   UNL     1       1.735  -0.010  -0.348  0.00  0.00    +0.182 C 
BRANCH  32  33
ATOM     33  C   UNL     1       2.458  -0.105  -1.667  0.00  0.00    -0.026 A 
ATOM     34  C   UNL     1       2.315  -1.233  -2.453  0.00  0.00    +0.008 A 
ATOM     35  C   UNL     1       2.974  -1.320  -3.665  0.00  0.00    +0.038 A 
ATOM     36  C   UNL     1       3.786  -0.281  -4.086  0.00  0.00    +0.123 A 
ATOM     37  C   UNL     1       3.933   0.846  -3.295  0.00  0.00    +0.038 A 
ATOM     38  C   UNL     1       3.269   0.933  -2.087  0.00  0.00    +0.008 A 
ATOM     39  F   UNL     1       4.435  -0.366  -5.268  0.00  0.00    -0.205 F 
ENDBRANCH  32  33
ENDBRANCH  31  32
ENDBRANCH  26  27
BRANCH  26  40
ATOM     40  C   UNL     1       0.892   3.554   1.207  0.00  0.00    -0.011 C 
ATOM     41  C   UNL     1       1.254   2.453   2.207  0.00  0.00    +0.002 C 
ENDBRANCH  26  40
ENDBRANCH   1  26
TORSDOF 10
