REMARK  Name = ZINC03251694
REMARK  7 active torsions:
REMARK  status: ('A' for Active; 'I' for Inactive)
REMARK    1  A    between atoms: C_3  and  C_25
REMARK    2  A    between atoms: C_5  and  C_11
REMARK    3  A    between atoms: C_14  and  O_17
REMARK    4  A    between atoms: O_17  and  C_18
REMARK    5  A    between atoms: C_18  and  C_19
REMARK    6  A    between atoms: N_27  and  C_28
REMARK    7  A    between atoms: C_33  and  C_34
REMARK                            x       y       z     vdW  Elec       q    Type
REMARK                         _______ _______ _______ _____ _____    ______ ____
ROOT
ATOM      1  C   UNL     1       3.156   3.019  -2.917  0.00  0.00    +0.029 C 
ATOM      2  C   UNL     1       3.505   2.440  -1.784  0.00  0.00    +0.016 C 
ATOM      3  C   UNL     1       3.054   1.034  -1.443  0.00  0.00    +0.143 C 
ATOM      4  C   UNL     1       2.500   1.059  -0.013  0.00  0.00    +0.120 C 
ATOM      5  N   UNL     1       3.456   1.727   0.869  0.00  0.00    -0.318 N 
ATOM      6  C   UNL     1       4.263   2.708   0.443  0.00  0.00    +0.135 C 
ATOM      7  S   UNL     1       5.275   3.494   1.577  0.00  0.00    -0.019 S 
ATOM      8  N   UNL     1       4.306   3.098  -0.845  0.00  0.00    -0.300 N 
ATOM      9  H   UNL     1       3.508   1.450   1.797  0.00  0.00    +0.148 HD
ATOM     10  H   UNL     1       4.886   3.826  -1.118  0.00  0.00    +0.154 HD
ENDROOT
BRANCH   4  11
ATOM     11  C   UNL     1       1.192   1.806   0.006  0.00  0.00    -0.026 A 
ATOM     12  C   UNL     1      -0.002   1.109   0.012  0.00  0.00    +0.009 A 
ATOM     13  C   UNL     1      -1.203   1.792   0.024  0.00  0.00    +0.046 A 
ATOM     14  C   UNL     1      -1.210   3.179   0.040  0.00  0.00    +0.121 A 
ATOM     15  C   UNL     1      -0.011   3.877   0.033  0.00  0.00    +0.046 A 
ATOM     16  C   UNL     1       1.187   3.189   0.016  0.00  0.00    +0.009 A 
BRANCH  14  17
ATOM     17  O   UNL     1      -2.390   3.854   0.057  0.00  0.00    -0.487 OA
BRANCH  17  18
ATOM     18  C   UNL     1      -3.585   3.070   0.064  0.00  0.00    +0.264 C 
BRANCH  18  19
ATOM     19  C   UNL     1      -4.784   3.983   0.083  0.00  0.00    -0.010 A 
ATOM     20  C   UNL     1      -5.325   4.388   1.288  0.00  0.00    +0.007 A 
ATOM     21  C   UNL     1      -6.422   5.229   1.306  0.00  0.00    +0.000 A 
ATOM     22  C   UNL     1      -6.984   5.657   0.118  0.00  0.00    +0.000 A 
ATOM     23  C   UNL     1      -6.446   5.248  -1.088  0.00  0.00    +0.000 A 
ATOM     24  C   UNL     1      -5.346   4.411  -1.106  0.00  0.00    +0.007 A 
ENDBRANCH  18  19
ENDBRANCH  17  18
ENDBRANCH  14  17
ENDBRANCH   4  11
BRANCH   3  25
ATOM     25  C   UNL     1       4.226   0.088  -1.521  0.00  0.00    +0.228 C 
ATOM     26  O   UNL     1       4.588  -0.511  -0.531  0.00  0.00    -0.275 OA
ATOM     27  N   UNL     1       4.870  -0.090  -2.691  0.00  0.00    -0.284 N 
ATOM     28  H   UNL     1       4.533   0.326  -3.499  0.00  0.00    +0.155 HD
BRANCH  27  29
ATOM     29  C   UNL     1       6.027  -0.877  -2.739  0.00  0.00    +0.045 A 
ATOM     30  C   UNL     1       6.801  -1.046  -1.599  0.00  0.00    +0.024 A 
ATOM     31  C   UNL     1       7.942  -1.823  -1.650  0.00  0.00    +0.002 A 
ATOM     32  C   UNL     1       8.314  -2.432  -2.835  0.00  0.00    +0.001 A 
ATOM     33  C   UNL     1       7.545  -2.265  -3.972  0.00  0.00    +0.014 A 
ATOM     34  C   UNL     1       6.399  -1.494  -3.926  0.00  0.00    +0.076 A 
BRANCH  34  35
ATOM     35  C   UNL     1       5.559  -1.318  -5.164  0.00  0.00    +0.419 C 
ATOM     36  F   UNL     1       6.133  -2.030  -6.223  0.00  0.00    -0.166 F 
ATOM     37  F   UNL     1       4.268  -1.800  -4.923  0.00  0.00    -0.166 F 
ATOM     38  F   UNL     1       5.495   0.040  -5.495  0.00  0.00    -0.166 F 
ENDBRANCH  34  35
ENDBRANCH  27  29
ENDBRANCH   3  25
TORSDOF 7
