REMARK  Name = ZINC39466518
REMARK  5 active torsions:
REMARK  status: ('A' for Active; 'I' for Inactive)
REMARK    1  A    between atoms: C_4  and  C_7
REMARK    2  A    between atoms: C_7  and  P_8
REMARK    3  A    between atoms: C_16  and  O_33
REMARK    4  A    between atoms: C_17  and  C_26
REMARK    5  A    between atoms: C_31  and  O_32
REMARK                            x       y       z     vdW  Elec       q    Type
REMARK                         _______ _______ _______ _____ _____    ______ ____
ROOT
ATOM      1  P   UNL     1       4.260  -1.012   1.674  0.00  0.00    +0.262 P 
ATOM      2  O   UNL     1       4.479   0.271   2.378  0.00  0.00    -0.274 OA
ATOM      3  N   UNL     1       5.640  -1.916   1.680  0.00  0.00    -0.291 NA
ATOM      4  N   UNL     1       5.522  -3.273   1.463  0.00  0.00    +0.397 N 
ATOM      5  C   UNL     1       6.872  -3.832   1.635  0.00  0.00    -0.046 C 
ATOM      6  C   UNL     1       6.872  -5.337   1.399  0.00  0.00    +0.008 C 
ATOM      7  C   UNL     1       6.419  -5.650  -0.002  0.00  0.00    +0.021 C 
ATOM      8  C   UNL     1       5.927  -6.859  -0.280  0.00  0.00    +0.121 C 
ATOM      9  C   UNL     1       5.849  -7.875   0.795  0.00  0.00    +0.023 C 
ATOM     10  C   UNL     1       5.846  -7.482   2.078  0.00  0.00    -0.011 C 
ATOM     11  C   UNL     1       5.921  -6.008   2.394  0.00  0.00    +0.016 C 
ATOM     12  C   UNL     1       4.532  -5.388   2.234  0.00  0.00    -0.003 C 
ATOM     13  C   UNL     1       4.596  -3.869   2.428  0.00  0.00    -0.020 C 
ATOM     14  C   UNL     1       3.170  -3.332   2.244  0.00  0.00    +0.156 C 
ATOM     15  O   UNL     1       3.159  -1.911   2.468  0.00  0.00    -0.319 OA
ATOM     16  H   UNL     1       6.506  -1.507   1.831  0.00  0.00    +0.111 HD
ATOM     17  H   UNL     1       5.189  -3.439   0.525  0.00  0.00    -0.055 HD
ENDROOT
BRANCH   9  18
ATOM     18  C   UNL     1       5.773  -9.317   0.455  0.00  0.00    +0.027 A 
ATOM     19  C   UNL     1       4.565 -10.001   0.571  0.00  0.00    +0.012 A 
ATOM     20  C   UNL     1       4.500 -11.342   0.254  0.00  0.00    +0.001 A 
ATOM     21  C   UNL     1       5.632 -12.012  -0.179  0.00  0.00    +0.004 A 
ATOM     22  C   UNL     1       6.835 -11.343  -0.296  0.00  0.00    +0.046 A 
ATOM     23  C   UNL     1       6.913  -9.995   0.012  0.00  0.00    +0.125 A 
BRANCH  23  24
ATOM     24  O   UNL     1       8.095  -9.335  -0.109  0.00  0.00    -0.506 OA
ATOM     25  H   UNL     1       8.638  -9.351   0.691  0.00  0.00    +0.292 HD
ENDBRANCH  23  24
ENDBRANCH   9  18
BRANCH   8  26
ATOM     26  O   UNL     1       5.502  -7.154  -1.536  0.00  0.00    -0.506 OA
ATOM     27  H   UNL     1       5.595  -6.425  -2.164  0.00  0.00    +0.292 HD
ENDBRANCH   8  26
BRANCH   1  28
ATOM     28  C   UNL     1       3.711  -0.707  -0.038  0.00  0.00    +0.147 C 
BRANCH  28  32
ATOM     29  C   UNL     1      -0.017   1.378   0.010  0.00  0.00    +0.000 A 
ATOM     30  C   UNL     1       1.171   2.086   0.002  0.00  0.00    +0.000 A 
ATOM     31  C   UNL     1       2.377   1.411  -0.013  0.00  0.00    +0.004 A 
ATOM     32  C   UNL     1       2.396   0.029  -0.020  0.00  0.00    -0.037 A 
ATOM     33  C   UNL     1       1.208  -0.679  -0.012  0.00  0.00    +0.004 A 
ATOM     34  C   UNL     1       0.002  -0.004   0.002  0.00  0.00    +0.000 A 
ENDBRANCH  28  32
ENDBRANCH   1  28
TORSDOF 5
