REMARK  Name = ZINC15947096
REMARK  12 active torsions:
REMARK  status: ('A' for Active; 'I' for Inactive)
REMARK    1  A    between atoms: C_1  and  C_2
REMARK    2  A    between atoms: C_2  and  C_3
REMARK    3  A    between atoms: C_2  and  N_4
REMARK    4  A    between atoms: C_12  and  O_36
REMARK    5  A    between atoms: C_14  and  C_17
REMARK    6  A    between atoms: C_20  and  O_25
REMARK    7  A    between atoms: C_21  and  O_23
REMARK    8  A    between atoms: O_23  and  C_24
REMARK    9  A    between atoms: O_25  and  C_26
REMARK   10  A    between atoms: C_26  and  C_28
REMARK   11  A    between atoms: C_31  and  O_34
REMARK   12  A    between atoms: O_34  and  C_35
REMARK                            x       y       z     vdW  Elec       q    Type
REMARK                         _______ _______ _______ _____ _____    ______ ____
ROOT
ATOM      1  N   UNL     1      -1.964   0.605  -0.011  0.00  0.00    +0.384 N 
ATOM      2  C   UNL     1      -1.770  -0.762   0.490  0.00  0.00    -0.073 C 
ATOM      3  C   UNL     1      -2.990  -1.205   1.304  0.00  0.00    +0.018 C 
ATOM      4  C   UNL     1      -4.231  -0.968   0.454  0.00  0.00    -0.027 A 
ATOM      5  C   UNL     1      -4.169  -0.147  -0.622  0.00  0.00    -0.021 A 
ATOM      6  S   UNL     1      -5.804  -0.168  -1.300  0.00  0.00    -0.080 S 
ATOM      7  C   UNL     1      -6.534  -1.197  -0.223  0.00  0.00    +0.080 A 
ATOM      8  C   UNL     1      -5.533  -1.560   0.688  0.00  0.00    +0.067 A 
ATOM      9  C   UNL     1      -5.905  -2.503   1.773  0.00  0.00    +0.220 C 
ATOM     10  N   UNL     1      -7.175  -2.737   1.965  0.00  0.00    -0.223 NA
ATOM     11  C   UNL     1      -8.254  -2.089   1.230  0.00  0.00    +0.224 C 
ATOM     12  N   UNL     1      -7.822  -1.672  -0.116  0.00  0.00    -0.313 N 
ATOM     13  C   UNL     1      -2.962   0.597  -1.097  0.00  0.00    -0.035 C 
ATOM     14  H   UNL     1      -8.412  -1.728  -0.883  0.00  0.00    +0.149 HD
ATOM     15  H   UNL     1      -2.291   1.195   0.740  0.00  0.00    -0.081 HD
ENDROOT
BRANCH  11  16
ATOM     16  C   UNL     1      -8.711  -0.874   1.997  0.00  0.00    -0.002 A 
ATOM     17  C   UNL     1      -9.229   0.214   1.320  0.00  0.00    +0.011 A 
ATOM     18  C   UNL     1      -9.649   1.331   2.018  0.00  0.00    +0.050 A 
ATOM     19  C   UNL     1      -9.551   1.360   3.401  0.00  0.00    +0.173 A 
ATOM     20  C   UNL     1      -9.030   0.265   4.082  0.00  0.00    +0.163 A 
ATOM     21  C   UNL     1      -8.616  -0.854   3.376  0.00  0.00    +0.056 A 
BRANCH  20  22
ATOM     22  O   UNL     1      -8.933   0.289   5.438  0.00  0.00    -0.491 OA
ATOM     23  C   UNL     1      -8.388  -0.872   6.070  0.00  0.00    +0.277 C 
ENDBRANCH  20  22
BRANCH  19  24
ATOM     24  O   UNL     1      -9.964   2.458   4.090  0.00  0.00    -0.419 OA
BRANCH  24  25
ATOM     25  C   UNL     1      -9.028   3.337   4.498  0.00  0.00    +0.345 C 
ATOM     26  O   UNL     1      -7.850   3.095   4.323  0.00  0.00    -0.245 OA
BRANCH  25  27
ATOM     27  C   UNL     1      -9.433   4.592   5.157  0.00  0.00    +0.060 A 
ATOM     28  C   UNL     1     -10.787   4.869   5.365  0.00  0.00    +0.018 A 
ATOM     29  C   UNL     1     -11.162   6.042   5.981  0.00  0.00    +0.046 A 
ATOM     30  C   UNL     1     -10.195   6.951   6.396  0.00  0.00    +0.120 A 
ATOM     31  C   UNL     1      -8.847   6.679   6.192  0.00  0.00    +0.046 A 
ATOM     32  C   UNL     1      -8.464   5.505   5.582  0.00  0.00    +0.018 A 
BRANCH  30  33
ATOM     33  O   UNL     1     -10.568   8.106   7.002  0.00  0.00    -0.495 OA
ATOM     34  C   UNL     1      -9.523   8.995   7.403  0.00  0.00    +0.277 C 
ENDBRANCH  30  33
ENDBRANCH  25  27
ENDBRANCH  24  25
ENDBRANCH  19  24
ENDBRANCH  11  16
BRANCH   1  36
ATOM     35  C   UNL     1      -0.919   2.489  -1.175  0.00  0.00    -0.014 C 
ATOM     36  C   UNL     1      -0.689   1.125  -0.522  0.00  0.00    -0.074 C 
ATOM     37  C   UNL     1       0.301   1.274   0.635  0.00  0.00    -0.014 C 
ENDBRANCH   1  36
BRANCH   9  38
ATOM     38  O   UNL     1      -4.961  -3.100   2.537  0.00  0.00    -0.492 OA
ATOM     39  H   UNL     1      -5.317  -3.694   3.211  0.00  0.00    +0.294 HD
ENDBRANCH   9  38
TORSDOF 8
