REMARK  Name = ZINC07494324
REMARK  6 active torsions:
REMARK  status: ('A' for Active; 'I' for Inactive)
REMARK    1  A    between atoms: C_1  and  C_2
REMARK    2  A    between atoms: C_5  and  N_9
REMARK    3  A    between atoms: C_6  and  C_8
REMARK    4  A    between atoms: C_13  and  C_15
REMARK    5  A    between atoms: C_15  and  N_16
REMARK    6  A    between atoms: C_24  and  C_26
REMARK                            x       y       z     vdW  Elec       q    Type
REMARK                         _______ _______ _______ _____ _____    ______ ____
ROOT
ATOM      1  N   UNL     1       0.171   2.294   7.083  0.00  0.00    -0.269 N 
ATOM      2  C   UNL     1      -0.391   2.464   5.870  0.00  0.00    +0.310 C 
ATOM      3  O   UNL     1      -1.312   3.244   5.731  0.00  0.00    -0.252 OA
ATOM      4  N   UNL     1       0.070   1.769   4.811  0.00  0.00    -0.239 N 
ATOM      5  C   UNL     1      -0.491   1.939   3.598  0.00  0.00    +0.238 C 
ATOM      6  O   UNL     1      -1.411   2.717   3.459  0.00  0.00    -0.274 OA
ATOM      7  H   UNL     1       0.945   1.718   7.183  0.00  0.00    +0.156 HD
ATOM      8  H   UNL     1       0.805   1.147   4.922  0.00  0.00    +0.159 HD
ENDROOT
BRANCH   1  13
ATOM      9  C   UNL     1      -1.993   4.948  11.607  0.00  0.00    +0.044 C 
ATOM     10  C   UNL     1      -1.418   4.244  10.405  0.00  0.00    -0.050 A 
ATOM     11  C   UNL     1      -1.437   4.861   9.168  0.00  0.00    +0.005 A 
ATOM     12  C   UNL     1      -0.911   4.218   8.065  0.00  0.00    +0.024 A 
ATOM     13  C   UNL     1      -0.363   2.949   8.199  0.00  0.00    +0.038 A 
ATOM     14  C   UNL     1      -0.349   2.329   9.442  0.00  0.00    -0.029 A 
ATOM     15  C   UNL     1      -0.872   2.981  10.542  0.00  0.00    +0.008 A 
ATOM     16  C   UNL     1       0.240   0.950   9.591  0.00  0.00    +0.045 C 
ENDBRANCH   1  13
BRANCH   5  17
ATOM     17  C   UNL     1       0.024   1.162   2.414  0.00  0.00    +0.201 C 
BRANCH  17  18
ATOM     18  N   UNL     1      -0.661   1.615   1.195  0.00  0.00    -0.321 N 
ATOM     19  C   UNL     1      -0.309   3.001   0.879  0.00  0.00    +0.106 C 
ATOM     20  C   UNL     1      -1.071   3.430  -0.381  0.00  0.00    +0.024 C 
ATOM     21  C   UNL     1      -2.558   3.507  -0.028  0.00  0.00    +0.038 C 
ATOM     22  C   UNL     1      -2.967   2.264   0.721  0.00  0.00    -0.026 A 
ATOM     23  C   UNL     1      -2.037   1.408   1.285  0.00  0.00    +0.033 A 
ATOM     24  C   UNL     1      -2.477   0.277   1.974  0.00  0.00    +0.023 A 
ATOM     25  C   UNL     1      -3.825   0.009   2.088  0.00  0.00    +0.005 A 
ATOM     26  C   UNL     1      -4.749   0.864   1.518  0.00  0.00    -0.050 A 
ATOM     27  C   UNL     1      -4.320   1.987   0.838  0.00  0.00    +0.008 A 
ATOM     28  C   UNL     1      -6.223   0.572   1.638  0.00  0.00    +0.044 C 
ENDBRANCH  17  18
ENDBRANCH   5  17
TORSDOF 3
