REMARK  Name = ZINC20239500
REMARK  10 active torsions:
REMARK  status: ('A' for Active; 'I' for Inactive)
REMARK    1  A    between atoms: C_1  and  C_2
REMARK    2  A    between atoms: C_3  and  S_14
REMARK    3  A    between atoms: C_4  and  C_7
REMARK    4  A    between atoms: C_8  and  C_9
REMARK    5  A    between atoms: S_14  and  N_17
REMARK    6  A    between atoms: C_20  and  C_23
REMARK    7  A    between atoms: N_25  and  C_26
REMARK    8  A    between atoms: C_26  and  C_27
REMARK    9  A    between atoms: C_27  and  C_28
REMARK   10  A    between atoms: C_28  and  N_29
REMARK                            x       y       z     vdW  Elec       q    Type
REMARK                         _______ _______ _______ _____ _____    ______ ____
ROOT
ATOM      1  N   UNL     1       0.803  -0.460  -1.143  0.00  0.00    -0.176 NA
ATOM      2  C   UNL     1       0.002  -0.004   0.002  0.00  0.00    +0.110 C 
ATOM      3  C   UNL     1      -0.019   1.528   0.010  0.00  0.00    +0.030 C 
ATOM      4  C   UNL     1       1.419   2.053  -0.001  0.00  0.00    +0.077 C 
ATOM      5  C   UNL     1       2.124   1.587  -1.276  0.00  0.00    +0.030 C 
ATOM      6  C   UNL     1       2.170   0.056  -1.299  0.00  0.00    +0.110 C 
ENDROOT
BRANCH   4   7
ATOM      7  C   UNL     1       1.402   3.560   0.042  0.00  0.00    +0.216 C 
ATOM      8  O   UNL     1       0.346   4.154   0.078  0.00  0.00    -0.276 OA
ATOM      9  N   UNL     1       2.562   4.246   0.041  0.00  0.00    -0.315 N 
ATOM     10  H   UNL     1       3.521   3.707   0.009  0.00  0.00    +0.149 HD
BRANCH   9  11
ATOM     11  C   UNL     1       2.546   5.711   0.082  0.00  0.00    +0.102 C 
BRANCH  11  12
ATOM     12  C   UNL     1       3.983   6.237   0.071  0.00  0.00    +0.000 C 
BRANCH  12  13
ATOM     13  C   UNL     1       3.967   7.766   0.115  0.00  0.00    -0.077 C 
BRANCH  13  14
ATOM     14  N   UNL     1       5.346   8.271   0.104  0.00  0.00    +0.380 N 
ATOM     15  C   UNL     1       6.056   7.889   1.332  0.00  0.00    -0.079 C 
ATOM     16  C   UNL     1       7.525   8.303   1.223  0.00  0.00    -0.019 C 
ATOM     17  C   UNL     1       7.609   9.818   1.013  0.00  0.00    -0.004 C 
ATOM     18  C   UNL     1       6.822  10.195  -0.245  0.00  0.00    -0.019 C 
ATOM     19  C   UNL     1       5.373   9.726  -0.094  0.00  0.00    -0.079 C 
ATOM     20  H   UNL     1       5.871   7.808  -0.744  0.00  0.00    -0.082 HD
ENDBRANCH  13  14
ENDBRANCH  12  13
ENDBRANCH  11  12
ENDBRANCH   9  11
ENDBRANCH   4   7
BRANCH   1  21
ATOM     21  S   UNL     1       0.176  -1.534  -2.236  0.00  0.00    +0.066 S 
ATOM     22  O   UNL     1       1.282  -2.187  -2.843  0.00  0.00    -0.153 OA
ATOM     23  O   UNL     1      -0.853  -2.246  -1.562  0.00  0.00    -0.153 OA
BRANCH  21  26
ATOM     24  C   UNL     1      -3.018  -0.411  -2.531  0.00  0.00    +0.071 C 
ATOM     25  C   UNL     1      -1.946  -0.158  -3.559  0.00  0.00    +0.107 A 
ATOM     26  C   UNL     1      -0.609  -0.592  -3.501  0.00  0.00    +0.174 A 
ATOM     27  C   UNL     1      -0.056  -0.108  -4.676  0.00  0.00    +0.187 A 
ATOM     28  O   UNL     1      -1.050   0.547  -5.308  0.00  0.00    -0.353 OA
ATOM     29  N   UNL     1      -2.077   0.508  -4.672  0.00  0.00    -0.081 NA
BRANCH  27  30
ATOM     30  C   UNL     1       1.323  -0.274  -5.136  0.00  0.00    +0.052 C 
ATOM     31  C   UNL     1       1.712   0.262  -6.315  0.00  0.00    +0.019 C 
BRANCH  31  32
ATOM     32  C   UNL     1       3.090   0.096  -6.775  0.00  0.00    +0.012 A 
ATOM     33  C   UNL     1       3.684   0.555  -7.941  0.00  0.00    +0.015 A 
ATOM     34  C   UNL     1       5.012   0.272  -8.152  0.00  0.00    +0.008 A 
ATOM     35  C   UNL     1       5.694  -0.452  -7.225  0.00  0.00    +0.046 A 
ATOM     36  S   UNL     1       4.445  -0.757  -5.986  0.00  0.00    -0.097 S 
ENDBRANCH  31  32
ENDBRANCH  27  30
ENDBRANCH  21  26
ENDBRANCH   1  21
TORSDOF 9
