REMARK  Name = ZINC59011116
REMARK  7 active torsions:
REMARK  status: ('A' for Active; 'I' for Inactive)
REMARK    1  A    between atoms: C_1  and  C_2
REMARK    2  A    between atoms: C_2  and  C_3
REMARK    3  A    between atoms: C_3  and  C_5
REMARK    4  A    between atoms: C_3  and  C_6
REMARK    5  A    between atoms: C_11  and  N_12
REMARK    6  A    between atoms: C_13  and  C_15
REMARK    7  A    between atoms: C_20  and  N_21
REMARK                            x       y       z     vdW  Elec       q    Type
REMARK                         _______ _______ _______ _____ _____    ______ ____
ROOT
ATOM      1  N   UNL     1      -0.252  -1.905   3.548  0.00  0.00    -0.281 N 
ATOM      2  C   UNL     1      -1.198  -2.385   4.379  0.00  0.00    +0.250 C 
ATOM      3  O   UNL     1      -1.614  -3.518   4.238  0.00  0.00    -0.270 OA
ATOM      4  H   UNL     1       0.115  -1.019   3.690  0.00  0.00    +0.155 HD
ENDROOT
BRANCH   2   5
ATOM      5  C   UNL     1      -1.730  -1.532   5.463  0.00  0.00    +0.067 A 
ATOM      6  C   UNL     1      -0.888  -1.091   6.486  0.00  0.00    +0.017 A 
ATOM      7  C   UNL     1      -1.391  -0.296   7.494  0.00  0.00    +0.021 A 
ATOM      8  C   UNL     1      -2.729   0.065   7.493  0.00  0.00    +0.043 A 
ATOM      9  C   UNL     1      -3.568  -0.369   6.481  0.00  0.00    +0.053 A 
ATOM     10  C   UNL     1      -3.076  -1.160   5.464  0.00  0.00    +0.140 A 
ATOM     11 CL   UNL     1      -3.354   1.065   8.766  0.00  0.00    -0.083 Cl
BRANCH  10  12
ATOM     12  N   UNL     1      -3.974  -1.619   4.380  0.00  0.00    +0.057 N 
ATOM     13  O   UNL     1      -5.117  -1.227   4.336  0.00  0.00    -0.126 OA
ATOM     14  O   UNL     1      -3.564  -2.384   3.539  0.00  0.00    -0.126 OA
ENDBRANCH  10  12
ENDBRANCH   2   5
BRANCH   1  20
ATOM     15  C   UNL     1       0.721  -2.079   1.345  0.00  0.00    -0.023 A 
ATOM     16  C   UNL     1       1.173  -2.854   0.294  0.00  0.00    +0.006 A 
ATOM     17  C   UNL     1       1.106  -4.232   0.371  0.00  0.00    +0.000 A 
ATOM     18  C   UNL     1       0.585  -4.841   1.499  0.00  0.00    +0.002 A 
ATOM     19  C   UNL     1       0.131  -4.072   2.552  0.00  0.00    +0.023 A 
ATOM     20  C   UNL     1       0.202  -2.687   2.481  0.00  0.00    +0.037 A 
BRANCH  15  21
ATOM     21  C   UNL     1       0.795  -0.576   1.260  0.00  0.00    +0.017 C 
ATOM     22  C   UNL     1       2.260  -0.140   1.206  0.00  0.00    +0.012 C 
BRANCH  21  24
ATOM     23  C   UNL     1       0.041   1.429  -0.025  0.00  0.00    +0.004 C 
ATOM     24  C   UNL     1       0.074  -0.100  -0.003  0.00  0.00    +0.004 C 
ENDBRANCH  21  24
ENDBRANCH  15  21
ENDBRANCH   1  20
TORSDOF 5
