REMARK  Name = ZINC32180917
REMARK  5 active torsions:
REMARK  status: ('A' for Active; 'I' for Inactive)
REMARK    1  A    between atoms: C_1  and  C_2
REMARK    2  A    between atoms: C_6  and  C_8
REMARK    3  A    between atoms: C_19  and  S_24
REMARK    4  A    between atoms: S_24  and  N_27
REMARK    5  A    between atoms: N_27  and  C_28
REMARK                            x       y       z     vdW  Elec       q    Type
REMARK                         _______ _______ _______ _____ _____    ______ ____
ROOT
ATOM      1  C   UNL     1       1.722   2.196  -0.273  0.00  0.00    +0.105 C 
ATOM      2  C   UNL     1       3.158   2.682  -0.205  0.00  0.00    +0.029 C 
ATOM      3  C   UNL     1       3.363   4.199  -0.242  0.00  0.00    +0.033 C 
ATOM      4  C   UNL     1       4.755   4.288  -0.871  0.00  0.00    -0.030 C 
ATOM      5  C   UNL     1       4.982   3.220  -1.626  0.00  0.00    -0.023 C 
ATOM      6  C   UNL     1       3.775   2.354  -1.597  0.00  0.00    +0.049 C 
ATOM      7  C   UNL     1       3.863   0.883  -1.721  0.00  0.00    -0.018 A 
ATOM      8  C   UNL     1       4.885   0.258  -2.402  0.00  0.00    +0.034 A 
ATOM      9  C   UNL     1       4.903  -1.119  -2.522  0.00  0.00    +0.109 A 
ATOM     10  C   UNL     1       3.893  -1.875  -1.956  0.00  0.00    +0.030 A 
ATOM     11  C   UNL     1       2.870  -1.259  -1.266  0.00  0.00    +0.025 A 
ATOM     12  C   UNL     1       2.845   0.124  -1.134  0.00  0.00    +0.031 A 
ATOM     13  N   UNL     1       1.805   0.726  -0.415  0.00  0.00    -0.336 N 
ATOM     14  H   UNL     1       1.041   0.084   0.048  0.00  0.00    +0.147 HD
ENDROOT
BRANCH   1  20
ATOM     15  C   UNL     1       0.433   1.970  -5.104  0.00  0.00    +0.044 C 
ATOM     16  C   UNL     1       0.409   2.687  -3.779  0.00  0.00    -0.050 A 
ATOM     17  C   UNL     1      -0.252   3.895  -3.659  0.00  0.00    +0.003 A 
ATOM     18  C   UNL     1      -0.274   4.553  -2.443  0.00  0.00    +0.001 A 
ATOM     19  C   UNL     1       0.361   4.001  -1.347  0.00  0.00    +0.005 A 
ATOM     20  C   UNL     1       1.026   2.795  -1.468  0.00  0.00    -0.027 A 
ATOM     21  C   UNL     1       1.047   2.137  -2.683  0.00  0.00    +0.008 A 
ENDBRANCH   1  20
BRANCH   9  22
ATOM     22  S   UNL     1       6.213  -1.911  -3.396  0.00  0.00    +0.072 S 
ATOM     23  O   UNL     1       7.320  -1.021  -3.361  0.00  0.00    -0.150 OA
ATOM     24  O   UNL     1       6.288  -3.240  -2.898  0.00  0.00    -0.150 OA
BRANCH  22  25
ATOM     25  N   UNL     1       5.746  -2.024  -4.980  0.00  0.00    -0.215 N 
ATOM     26  H   UNL     1       5.651  -3.011  -5.457  0.00  0.00    +0.174 HD
BRANCH  25  27
ATOM     27  C   UNL     1       5.473  -0.865  -5.713  0.00  0.00    +0.068 A 
ATOM     28  C   UNL     1       6.164   0.308  -5.442  0.00  0.00    +0.046 A 
ATOM     29  C   UNL     1       5.896   1.451  -6.173  0.00  0.00    +0.043 A 
ATOM     30  C   UNL     1       4.931   1.429  -7.164  0.00  0.00    +0.021 A 
ATOM     31  C   UNL     1       4.236   0.264  -7.432  0.00  0.00    +0.023 A 
ATOM     32  C   UNL     1       4.504  -0.884  -6.709  0.00  0.00    +0.063 A 
ATOM     33 CL   UNL     1       3.631  -2.346  -7.046  0.00  0.00    -0.082 Cl
ATOM     34 CL   UNL     1       6.765   2.916  -5.841  0.00  0.00    -0.083 Cl
ENDBRANCH  25  27
ENDBRANCH  22  25
ENDBRANCH   9  22
TORSDOF 4
