REMARK  Name = ZINC13125482
REMARK  8 active torsions:
REMARK  status: ('A' for Active; 'I' for Inactive)
REMARK    1  A    between atoms: C_1  and  C_2
REMARK    2  A    between atoms: C_3  and  O_26
REMARK    3  A    between atoms: C_6  and  C_9
REMARK    4  A    between atoms: C_7  and  O_8
REMARK    5  A    between atoms: C_10  and  C_15
REMARK    6  A    between atoms: C_11  and  C_14
REMARK    7  A    between atoms: N_18  and  C_20
REMARK    8  A    between atoms: O_26  and  C_27
REMARK                            x       y       z     vdW  Elec       q    Type
REMARK                         _______ _______ _______ _____ _____    ______ ____
ROOT
ATOM      1  C   UNL     1       0.174  -2.868   2.451  0.00  0.00    +0.179 A 
ATOM      2  C   UNL     1      -0.021  -4.229   2.591  0.00  0.00    +0.055 A 
ATOM      3  C   UNL     1      -0.097  -4.506   3.973  0.00  0.00    +0.089 A 
ATOM      4  N   UNL     1       0.042  -3.386   4.623  0.00  0.00    -0.082 NA
ATOM      5  O   UNL     1       0.220  -2.338   3.689  0.00  0.00    -0.354 OA
ATOM      6  C   UNL     1      -0.305  -5.865   4.591  0.00  0.00    +0.070 C 
ENDROOT
BRANCH   1  12
ATOM      7  C   UNL     1      -1.061   1.001  -0.460  0.00  0.00    +0.051 C 
ATOM      8  C   UNL     1      -0.281  -0.267  -0.226  0.00  0.00    +0.033 A 
ATOM      9  C   UNL     1       0.572  -0.747  -1.210  0.00  0.00    +0.126 A 
ATOM     10  C   UNL     1       1.294  -1.916  -1.001  0.00  0.00    +0.047 A 
ATOM     11  C   UNL     1       1.168  -2.607   0.185  0.00  0.00    +0.019 A 
ATOM     12  C   UNL     1       0.312  -2.132   1.181  0.00  0.00    +0.062 A 
ATOM     13  C   UNL     1      -0.412  -0.949   0.971  0.00  0.00    +0.134 A 
BRANCH  13  14
ATOM     14  O   UNL     1      -1.242  -0.477   1.936  0.00  0.00    -0.506 OA
ATOM     15  H   UNL     1      -2.147  -0.812   1.875  0.00  0.00    +0.292 HD
ENDBRANCH  13  14
BRANCH   9  16
ATOM     16  O   UNL     1       0.702  -0.072  -2.381  0.00  0.00    -0.495 OA
ATOM     17  C   UNL     1       1.596  -0.622  -3.351  0.00  0.00    +0.277 C 
ENDBRANCH   9  16
ENDBRANCH   1  12
BRANCH   2  18
ATOM     18  C   UNL     1      -0.130  -5.219   1.490  0.00  0.00    +0.025 A 
ATOM     19  C   UNL     1      -1.164  -5.290   0.535  0.00  0.00    +0.143 A 
ATOM     20  N   UNL     1      -0.912  -6.290  -0.268  0.00  0.00    -0.174 NA
ATOM     21  N   UNL     1       0.285  -6.895   0.135  0.00  0.00    -0.239 N 
ATOM     22  C   UNL     1       0.755  -6.220   1.215  0.00  0.00    +0.123 A 
BRANCH  21  23
ATOM     23  C   UNL     1       0.893  -8.001  -0.473  0.00  0.00    +0.065 A 
ATOM     24  C   UNL     1       2.082  -8.508   0.034  0.00  0.00    +0.028 A 
ATOM     25  C   UNL     1       2.679  -9.599  -0.567  0.00  0.00    +0.002 A 
ATOM     26  C   UNL     1       2.094 -10.186  -1.674  0.00  0.00    +0.000 A 
ATOM     27  C   UNL     1       0.910  -9.684  -2.182  0.00  0.00    +0.002 A 
ATOM     28  C   UNL     1       0.305  -8.597  -1.582  0.00  0.00    +0.028 A 
ENDBRANCH  21  23
ENDBRANCH   2  18
TORSDOF 5
