REMARK  Name = ZINC13498587
REMARK  12 active torsions:
REMARK  status: ('A' for Active; 'I' for Inactive)
REMARK    1  A    between atoms: C_1  and  C_2
REMARK    2  A    between atoms: C_7  and  C_14
REMARK    3  A    between atoms: C_14  and  N_75
REMARK    4  A    between atoms: C_15  and  N_75
REMARK    5  A    between atoms: C_21  and  C_23
REMARK    6  A    between atoms: C_21  and  C_36
REMARK    7  A    between atoms: C_21  and  N_75
REMARK    8  A    between atoms: N_27  and  C_28
REMARK    9  A    between atoms: C_28  and  C_29
REMARK   10  A    between atoms: C_29  and  C_30
REMARK   11  A    between atoms: C_36  and  C_37
REMARK   12  A    between atoms: C_36  and  C_38
REMARK                            x       y       z     vdW  Elec       q    Type
REMARK                         _______ _______ _______ _____ _____    ______ ____
ROOT
ATOM      1  N   UNL     1       1.116   1.037   2.096  0.00  0.00    +0.391 N 
ATOM      2  H   UNL     1       1.885   0.587   2.606  0.00  0.00    -0.080 HD
ENDROOT
BRANCH   1   3
ATOM      3  C   UNL     1       1.216   2.502   2.269  0.00  0.00    -0.067 C 
ATOM      4  C   UNL     1       2.677   2.859   2.549  0.00  0.00    -0.015 C 
ATOM      5  C   UNL     1       2.804   4.371   2.744  0.00  0.00    -0.002 C 
ATOM      6  C   UNL     1       1.937   4.807   3.928  0.00  0.00    -0.000 C 
ATOM      7  C   UNL     1       0.476   4.449   3.648  0.00  0.00    -0.002 C 
ATOM      8  C   UNL     1       0.349   2.937   3.453  0.00  0.00    -0.015 C 
ENDBRANCH   1   3
BRANCH   1   9
ATOM      9  C   UNL     1       1.223   0.690   0.663  0.00  0.00    -0.036 C 
BRANCH   9  16
ATOM     10  C   UNL     1       8.915   0.781  -1.446  0.00  0.00    +0.044 C 
ATOM     11  C   UNL     1       7.498   0.539  -0.996  0.00  0.00    -0.048 A 
ATOM     12  C   UNL     1       7.124  -0.723  -0.553  0.00  0.00    +0.004 A 
ATOM     13  C   UNL     1       5.844  -0.964  -0.141  0.00  0.00    +0.010 A 
ATOM     14  C   UNL     1       4.901   0.070  -0.166  0.00  0.00    -0.001 A 
ATOM     15  C   UNL     1       3.522  -0.152   0.274  0.00  0.00    +0.017 A 
ATOM     16  C   UNL     1       2.651   0.886   0.223  0.00  0.00    +0.001 A 
ATOM     17  C   UNL     1       3.079   2.150  -0.236  0.00  0.00    +0.251 A 
ATOM     18  O   UNL     1       2.281   3.071  -0.269  0.00  0.00    -0.268 OA
ATOM     19  N   UNL     1       4.344   2.365  -0.637  0.00  0.00    -0.322 N 
ATOM     20  H   UNL     1       4.604   3.246  -0.947  0.00  0.00    +0.169 HD
ATOM     21  C   UNL     1       5.276   1.350  -0.615  0.00  0.00    +0.049 A 
ATOM     22  C   UNL     1       6.586   1.571  -1.030  0.00  0.00    +0.029 A 
ENDBRANCH   9  16
ENDBRANCH   1   9
BRANCH   1  23
ATOM     23  C   UNL     1      -0.170   0.551   2.638  0.00  0.00    +0.006 C 
BRANCH  23  24
ATOM     24  C   UNL     1      -1.247   0.629   1.587  0.00  0.00    +0.138 A 
ATOM     25  N   UNL     1      -1.130   0.310   0.321  0.00  0.00    -0.115 NA
ATOM     26  N   UNL     1      -2.268   0.513  -0.247  0.00  0.00    -0.023 NA
ATOM     27  N   UNL     1      -3.108   0.954   0.623  0.00  0.00    -0.044 NA
ATOM     28  N   UNL     1      -2.518   1.034   1.767  0.00  0.00    -0.231 N 
BRANCH  28  29
ATOM     29  C   UNL     1      -3.118   1.484   3.026  0.00  0.00    +0.152 C 
BRANCH  29  30
ATOM     30  C   UNL     1      -3.148   3.013   3.058  0.00  0.00    +0.058 C 
BRANCH  30  31
ATOM     31  C   UNL     1      -3.641   3.478   4.404  0.00  0.00    -0.046 A 
ATOM     32  C   UNL     1      -4.992   3.682   4.613  0.00  0.00    +0.004 A 
ATOM     33  C   UNL     1      -5.444   4.103   5.850  0.00  0.00    +0.000 A 
ATOM     34  C   UNL     1      -4.545   4.330   6.874  0.00  0.00    +0.000 A 
ATOM     35  C   UNL     1      -3.193   4.131   6.664  0.00  0.00    +0.000 A 
ATOM     36  C   UNL     1      -2.741   3.704   5.429  0.00  0.00    +0.004 A 
ENDBRANCH  30  31
ENDBRANCH  29  30
ENDBRANCH  28  29
ENDBRANCH  23  24
BRANCH  23  37
ATOM     37  C   UNL     1       0.006  -0.903   3.081  0.00  0.00    -0.024 C 
ATOM     38  C   UNL     1       1.058  -0.974   4.190  0.00  0.00    +0.006 C 
ATOM     39  C   UNL     1       0.463  -1.747   1.890  0.00  0.00    +0.006 C 
ENDBRANCH  23  37
ENDBRANCH   1  23
TORSDOF 9
