REMARK  Name = ZINC23171492
REMARK  4 active torsions:
REMARK  status: ('A' for Active; 'I' for Inactive)
REMARK    1  A    between atoms: C_3  and  N_12
REMARK    2  A    between atoms: C_13  and  C_15
REMARK    3  A    between atoms: N_18  and  S_21
REMARK    4  A    between atoms: S_21  and  C_24
REMARK                            x       y       z     vdW  Elec       q    Type
REMARK                         _______ _______ _______ _____ _____    ______ ____
ROOT
ATOM      1  C   UNL     1      -3.652  -0.876   0.246  0.00  0.00    +0.078 C 
ATOM      2  C   UNL     1      -3.829  -1.754  -0.994  0.00  0.00    +0.030 C 
ATOM      3  C   UNL     1      -5.112  -2.579  -0.852  0.00  0.00    +0.110 C 
ATOM      4  N   UNL     1      -6.235  -1.667  -0.594  0.00  0.00    -0.177 NA
ATOM      5  C   UNL     1      -6.130  -0.715   0.521  0.00  0.00    +0.110 C 
ATOM      6  C   UNL     1      -4.835   0.088   0.363  0.00  0.00    +0.030 C 
ENDROOT
BRANCH   1   8
ATOM      7  N   UNL     1      -1.194  -0.731   0.009  0.00  0.00    -0.282 N 
ATOM      8  C   UNL     1      -2.373  -0.088   0.125  0.00  0.00    +0.220 C 
ATOM      9  O   UNL     1      -2.404   1.124   0.132  0.00  0.00    -0.275 OA
ATOM     10  H   UNL     1      -1.172  -1.828  -0.071  0.00  0.00    +0.155 HD
BRANCH   7  13
ATOM     11  C   UNL     1       1.261   1.935  -0.600  0.00  0.00    +0.022 A 
ATOM     12  C   UNL     1       0.054   1.252  -0.605  0.00  0.00    +0.028 A 
ATOM     13  C   UNL     1       0.001  -0.003  -0.010  0.00  0.00    +0.078 A 
ATOM     14  C   UNL     1       1.159  -0.526   0.568  0.00  0.00    +0.175 A 
ATOM     15  N   UNL     1       2.288   0.161   0.550  0.00  0.00    -0.235 NA
ATOM     16  C   UNL     1       2.366   1.354  -0.008  0.00  0.00    +0.113 A 
ATOM     17  N   UNL     1       1.124  -1.788   1.171  0.00  0.00    -0.220 N 
ATOM     18  C   UNL     1       2.180  -2.626   1.336  0.00  0.00    +0.116 A 
ATOM     19  C   UNL     1       1.728  -3.736   1.964  0.00  0.00    +0.041 A 
ATOM     20  C   UNL     1       0.355  -3.580   2.181  0.00  0.00    +0.135 A 
ATOM     21  N   UNL     1      -0.008  -2.415   1.708  0.00  0.00    -0.173 NA
ENDBRANCH   7  13
ENDBRANCH   1   8
BRANCH   4  22
ATOM     22  S   UNL     1      -7.592  -1.710  -1.541  0.00  0.00    +0.061 S 
ATOM     23  O   UNL     1      -7.649  -3.010  -2.111  0.00  0.00    -0.153 OA
ATOM     24  O   UNL     1      -8.651  -1.174  -0.759  0.00  0.00    -0.153 OA
BRANCH  22  25
ATOM     25  C   UNL     1      -7.333  -0.586  -2.874  0.00  0.00    +0.106 A 
ATOM     26  C   UNL     1      -7.718   0.737  -2.751  0.00  0.00    +0.029 A 
ATOM     27  C   UNL     1      -7.509   1.611  -3.797  0.00  0.00    +0.006 A 
ATOM     28  C   UNL     1      -6.926   1.171  -4.978  0.00  0.00    -0.044 A 
ATOM     29  C   UNL     1      -6.545  -0.146  -5.102  0.00  0.00    -0.042 A 
ATOM     30  C   UNL     1      -6.752  -1.024  -4.045  0.00  0.00    +0.032 A 
ATOM     31  C   UNL     1      -5.898  -0.690  -6.349  0.00  0.00    +0.035 C 
ATOM     32  C   UNL     1      -6.133   0.250  -7.529  0.00  0.00    +0.005 C 
ATOM     33  C   UNL     1      -5.726   1.667  -7.108  0.00  0.00    +0.005 C 
ATOM     34  C   UNL     1      -6.740   2.176  -6.085  0.00  0.00    +0.035 C 
ENDBRANCH  22  25
ENDBRANCH   4  22
TORSDOF 4
