REMARK  Name = ZINC11440439
REMARK  10 active torsions:
REMARK  status: ('A' for Active; 'I' for Inactive)
REMARK    1  A    between atoms: C_1  and  C_2
REMARK    2  A    between atoms: C_2  and  C_4
REMARK    3  A    between atoms: C_2  and  O_19
REMARK    4  A    between atoms: N_6  and  C_7
REMARK    5  A    between atoms: C_12  and  C_13
REMARK    6  A    between atoms: O_19  and  C_20
REMARK    7  A    between atoms: C_20  and  C_22
REMARK    8  A    between atoms: C_22  and  C_23
REMARK    9  A    between atoms: C_23  and  N_24
REMARK   10  A    between atoms: N_27  and  C_28
REMARK                            x       y       z     vdW  Elec       q    Type
REMARK                         _______ _______ _______ _____ _____    ______ ____
ROOT
ATOM      1  C   UNL     1      -9.552   0.945   3.086  0.00  0.00    +0.309 C 
ATOM      2  O   UNL     1      -9.160   1.646   3.989  0.00  0.00    -0.251 OA
ENDROOT
BRANCH   1   3
ATOM      3  O   UNL     1     -10.809   0.472   3.101  0.00  0.00    -0.452 OA
BRANCH   3   5
ATOM      4  C   UNL     1     -11.483  -0.196   5.344  0.00  0.00    +0.062 C 
ATOM      5  C   UNL     1     -11.640   0.844   4.232  0.00  0.00    +0.259 C 
BRANCH   5   6
ATOM      6  C   UNL     1     -13.082   0.902   3.798  0.00  0.00    +0.258 C 
ATOM      7  O   UNL     1     -13.391   0.567   2.674  0.00  0.00    -0.271 OA
ATOM      8  N   UNL     1     -14.028   1.326   4.659  0.00  0.00    -0.282 N 
ATOM      9  H   UNL     1     -13.794   1.518   5.581  0.00  0.00    +0.155 HD
BRANCH   8  10
ATOM     10  C   UNL     1     -15.346   1.490   4.224  0.00  0.00    +0.041 A 
ATOM     11  C   UNL     1     -15.612   1.728   2.883  0.00  0.00    +0.024 A 
ATOM     12  C   UNL     1     -16.916   1.884   2.454  0.00  0.00    +0.002 A 
ATOM     13  C   UNL     1     -17.962   1.815   3.358  0.00  0.00    +0.001 A 
ATOM     14  C   UNL     1     -17.712   1.585   4.695  0.00  0.00    +0.010 A 
ATOM     15  C   UNL     1     -16.402   1.420   5.139  0.00  0.00    +0.003 A 
BRANCH  15  16
ATOM     16  C   UNL     1     -16.127   1.172   6.576  0.00  0.00    -0.016 A 
ATOM     17  C   UNL     1     -15.309   0.111   6.958  0.00  0.00    +0.008 A 
ATOM     18  C   UNL     1     -15.052  -0.112   8.296  0.00  0.00    +0.001 A 
ATOM     19  C   UNL     1     -15.616   0.708   9.257  0.00  0.00    +0.000 A 
ATOM     20  C   UNL     1     -16.433   1.760   8.883  0.00  0.00    +0.001 A 
ATOM     21  C   UNL     1     -16.692   1.996   7.548  0.00  0.00    +0.008 A 
ENDBRANCH  15  16
ENDBRANCH   8  10
ENDBRANCH   5   6
ENDBRANCH   3   5
ENDBRANCH   1   3
BRANCH   1  22
ATOM     22  C   UNL     1      -8.631   0.601   1.944  0.00  0.00    +0.139 C 
BRANCH  22  23
ATOM     23  C   UNL     1      -7.270   1.261   2.171  0.00  0.00    +0.117 C 
BRANCH  23  24
ATOM     24  N   UNL     1      -6.374   0.926   1.061  0.00  0.00    -0.299 N 
ATOM     25  C   UNL     1      -5.113   1.401   1.046  0.00  0.00    +0.300 C 
ATOM     26  O   UNL     1      -4.718   2.107   1.954  0.00  0.00    -0.253 OA
ATOM     27  N   UNL     1      -4.289   1.093   0.025  0.00  0.00    -0.294 N 
ATOM     28  H   UNL     1      -6.689   0.363   0.336  0.00  0.00    +0.150 HD
ATOM     29  H   UNL     1      -4.604   0.530  -0.700  0.00  0.00    +0.151 HD
BRANCH  27  30
ATOM     30  C   UNL     1      -2.918   1.609   0.009  0.00  0.00    +0.037 C 
ATOM     31  C   UNL     1      -2.202   1.115  -1.250  0.00  0.00    +0.029 C 
ATOM     32  C   UNL     1      -0.770   1.654  -1.267  0.00  0.00    -0.008 C 
ATOM     33  C   UNL     1      -0.023   1.157  -0.027  0.00  0.00    +0.007 C 
ATOM     34  C   UNL     1      -0.739   1.651   1.232  0.00  0.00    -0.008 C 
ATOM     35  C   UNL     1      -2.171   1.112   1.248  0.00  0.00    +0.029 C 
ATOM     36  C   UNL     1      -0.770   3.180   1.234  0.00  0.00    +0.007 C 
ATOM     37  C   UNL     1      -1.516   3.677  -0.006  0.00  0.00    -0.008 C 
ATOM     38  C   UNL     1      -0.800   3.183  -1.264  0.00  0.00    +0.007 C 
ATOM     39  C   UNL     1      -2.948   3.139   0.011  0.00  0.00    +0.029 C 
ENDBRANCH  27  30
ENDBRANCH  23  24
ENDBRANCH  22  23
ENDBRANCH   1  22
TORSDOF 9
