REMARK  Name = ZINC06321344
REMARK  11 active torsions:
REMARK  status: ('A' for Active; 'I' for Inactive)
REMARK    1  A    between atoms: C_1  and  C_2
REMARK    2  A    between atoms: C_6  and  C_15
REMARK    3  A    between atoms: C_13  and  C_14
REMARK    4  A    between atoms: C_15  and  C_17
REMARK    5  A    between atoms: C_15  and  N_29
REMARK    6  A    between atoms: N_21  and  C_22
REMARK    7  A    between atoms: C_22  and  C_23
REMARK    8  A    between atoms: N_29  and  C_30
REMARK    9  A    between atoms: N_29  and  C_37
REMARK   10  A    between atoms: C_30  and  C_31
REMARK   11  A    between atoms: C_37  and  C_38
REMARK                            x       y       z     vdW  Elec       q    Type
REMARK                         _______ _______ _______ _____ _____    ______ ____
ROOT
ATOM      1  C   UNL     1      -0.059  -5.183  -3.555  0.00  0.00    +0.040 C 
ENDROOT
BRANCH   1   7
ATOM      2  C   UNL     1      -1.469   0.638   0.888  0.00  0.00    +0.044 C 
ATOM      3  C   UNL     1      -1.079  -0.805   0.697  0.00  0.00    -0.047 A 
ATOM      4  C   UNL     1      -0.993  -1.321  -0.566  0.00  0.00    +0.013 A 
ATOM      5  C   UNL     1      -0.631  -2.660  -0.744  0.00  0.00    -0.001 A 
ATOM      6  C   UNL     1      -0.528  -3.246  -2.082  0.00  0.00    +0.017 A 
ATOM      7  C   UNL     1      -0.173  -4.550  -2.193  0.00  0.00    +0.011 A 
ATOM      8  C   UNL     1       0.091  -5.316  -1.037  0.00  0.00    +0.251 A 
ATOM      9  O   UNL     1       0.409  -6.486  -1.160  0.00  0.00    -0.268 OA
ATOM     10  N   UNL     1       0.000  -4.787   0.196  0.00  0.00    -0.322 N 
ATOM     11  H   UNL     1       0.189  -5.341   0.969  0.00  0.00    +0.169 HD
ATOM     12  C   UNL     1      -0.357  -3.468   0.377  0.00  0.00    +0.049 A 
ATOM     13  C   UNL     1      -0.452  -2.920   1.652  0.00  0.00    +0.030 A 
ATOM     14  C   UNL     1      -0.804  -1.596   1.804  0.00  0.00    -0.046 A 
ATOM     15  C   UNL     1      -0.900  -1.004   3.186  0.00  0.00    +0.044 C 
ENDBRANCH   1   7
BRANCH   1  16
ATOM     16  C   UNL     1      -1.151  -6.207  -3.726  0.00  0.00    +0.143 A 
ATOM     17  N   UNL     1      -1.202  -7.396  -3.176  0.00  0.00    -0.115 NA
ATOM     18  N   UNL     1      -2.289  -7.968  -3.564  0.00  0.00    -0.023 NA
ATOM     19  N   UNL     1      -2.934  -7.175  -4.348  0.00  0.00    -0.044 NA
ATOM     20  N   UNL     1      -2.267  -6.077  -4.468  0.00  0.00    -0.228 N 
BRANCH  20  21
ATOM     21  C   UNL     1      -2.650  -4.909  -5.264  0.00  0.00    +0.178 C 
BRANCH  21  22
ATOM     22  C   UNL     1      -2.090  -5.052  -6.681  0.00  0.00    +0.140 C 
ATOM     23  C   UNL     1      -2.560  -3.871  -7.567  0.00  0.00    +0.035 C 
ATOM     24  C   UNL     1      -1.438  -3.843  -8.641  0.00  0.00    +0.031 C 
ATOM     25  C   UNL     1      -0.196  -4.266  -7.828  0.00  0.00    +0.160 C 
ATOM     26  O   UNL     1      -0.657  -4.962  -6.662  0.00  0.00    -0.375 OA
ENDBRANCH  21  22
ENDBRANCH  20  21
ENDBRANCH   1  16
BRANCH   1  27
ATOM     27  N   UNL     1       1.250  -5.837  -3.683  0.00  0.00    +0.397 N 
ATOM     28  H   UNL     1       1.337  -6.557  -2.981  0.00  0.00    -0.079 HD
BRANCH  27  29
ATOM     29  C   UNL     1       2.315  -4.843  -3.498  0.00  0.00    -0.041 C 
BRANCH  29  30
ATOM     30  C   UNL     1       2.194  -3.775  -4.555  0.00  0.00    -0.064 A 
ATOM     31  C   UNL     1       2.781  -3.958  -5.793  0.00  0.00    +0.002 A 
ATOM     32  C   UNL     1       2.670  -2.979  -6.763  0.00  0.00    +0.000 A 
ATOM     33  C   UNL     1       1.972  -1.817  -6.494  0.00  0.00    +0.000 A 
ATOM     34  C   UNL     1       1.384  -1.634  -5.256  0.00  0.00    +0.000 A 
ATOM     35  C   UNL     1       1.491  -2.615  -4.288  0.00  0.00    +0.002 A 
ENDBRANCH  29  30
ENDBRANCH  27  29
BRANCH  27  36
ATOM     36  C   UNL     1       1.369  -6.439  -5.018  0.00  0.00    -0.001 C 
BRANCH  36  37
ATOM     37  C   UNL     1       2.627  -7.265  -5.087  0.00  0.00    +0.089 A 
ATOM     38  C   UNL     1       2.711  -8.590  -4.870  0.00  0.00    +0.042 A 
ATOM     39  C   UNL     1       4.068  -8.947  -5.038  0.00  0.00    +0.041 A 
ATOM     40  C   UNL     1       4.733  -7.819  -5.347  0.00  0.00    +0.195 A 
ATOM     41  O   UNL     1       3.854  -6.805  -5.381  0.00  0.00    -0.470 OA
ENDBRANCH  36  37
ENDBRANCH  27  36
ENDBRANCH   1  27
TORSDOF 9
