REMARK  Name = ZINC39037424
REMARK  10 active torsions:
REMARK  status: ('A' for Active; 'I' for Inactive)
REMARK    1  A    between atoms: C_1  and  S_2
REMARK    2  A    between atoms: S_2  and  C_3
REMARK    3  A    between atoms: C_3  and  C_4
REMARK    4  A    between atoms: C_4  and  C_5
REMARK    5  A    between atoms: C_5  and  C_7
REMARK    6  A    between atoms: C_5  and  N_24
REMARK    7  A    between atoms: C_25  and  C_27
REMARK    8  A    between atoms: C_27  and  C_28
REMARK    9  A    between atoms: C_28  and  C_29
REMARK   10  A    between atoms: C_29  and  C_30
REMARK                            x       y       z     vdW  Elec       q    Type
REMARK                         _______ _______ _______ _____ _____    ______ ____
ROOT
ATOM      1  C   UNL     1      -3.359  -2.382   0.022  0.00  0.00    +0.160 C 
ENDROOT
BRANCH   1   2
ATOM      2  C   UNL     1      -3.480  -3.884   0.014  0.00  0.00    +0.236 C 
ATOM      3  O   UNL     1      -3.629  -4.475  -1.034  0.00  0.00    -0.274 OA
ATOM      4  N   UNL     1      -3.422  -4.570   1.173  0.00  0.00    -0.300 N 
ATOM      5  C   UNL     1      -3.356  -3.863   2.459  0.00  0.00    +0.106 C 
ATOM      6  C   UNL     1      -4.483  -4.376   3.362  0.00  0.00    +0.009 C 
ATOM      7  C   UNL     1      -4.389  -5.898   3.474  0.00  0.00    -0.037 C 
ATOM      8  C   UNL     1      -4.550  -6.530   2.091  0.00  0.00    +0.009 C 
ATOM      9  C   UNL     1      -3.431  -6.039   1.174  0.00  0.00    +0.106 C 
ATOM     10  C   UNL     1      -5.486  -6.413   4.407  0.00  0.00    +0.140 C 
ATOM     11  C   UNL     1      -5.162  -5.836   5.782  0.00  0.00    +0.042 C 
ATOM     12  N   UNL     1      -6.202  -5.196   6.151  0.00  0.00    -0.243 NA
ATOM     13  C   UNL     1      -7.151  -5.179   5.182  0.00  0.00    +0.216 C 
ATOM     14  N   UNL     1      -6.805  -5.853   4.105  0.00  0.00    -0.264 NA
ATOM     15  C   UNL     1      -3.788  -5.972   6.387  0.00  0.00    +0.034 C 
ATOM     16  C   UNL     1      -2.796  -5.555   5.284  0.00  0.00    -0.076 C 
ATOM     17  N   UNL     1      -3.085  -6.272   4.040  0.00  0.00    +0.385 N 
ATOM     18  H   UNL     1      -3.081  -7.264   4.225  0.00  0.00    -0.085 HD
ATOM     19  H   UNL     1      -2.364  -6.063   3.366  0.00  0.00    -0.085 HD
ENDBRANCH   1   2
BRANCH   1  20
ATOM     20  N   UNL     1      -3.971  -1.837  -1.193  0.00  0.00    -0.304 N 
ATOM     21  C   UNL     1      -4.440  -0.573  -1.202  0.00  0.00    +0.214 C 
ATOM     22  O   UNL     1      -4.354   0.113  -0.206  0.00  0.00    -0.276 OA
ATOM     23  H   UNL     1      -4.039  -2.385  -1.990  0.00  0.00    +0.149 HD
BRANCH  21  24
ATOM     24  C   UNL     1      -5.069  -0.013  -2.451  0.00  0.00    +0.096 C 
BRANCH  24  25
ATOM     25  C   UNL     1      -5.513   1.429  -2.196  0.00  0.00    +0.014 C 
BRANCH  25  26
ATOM     26  C   UNL     1      -6.153   1.998  -3.464  0.00  0.00    +0.035 C 
BRANCH  26  27
ATOM     27  C   UNL     1      -6.590   3.418  -3.212  0.00  0.00    -0.047 A 
ATOM     28  C   UNL     1      -7.860   3.675  -2.728  0.00  0.00    +0.003 A 
ATOM     29  C   UNL     1      -8.261   4.978  -2.497  0.00  0.00    +0.000 A 
ATOM     30  C   UNL     1      -7.393   6.023  -2.750  0.00  0.00    +0.000 A 
ATOM     31  C   UNL     1      -6.123   5.766  -3.233  0.00  0.00    +0.000 A 
ATOM     32  C   UNL     1      -5.721   4.464  -3.460  0.00  0.00    +0.003 A 
ENDBRANCH  26  27
ENDBRANCH  25  26
ENDBRANCH  24  25
ENDBRANCH  21  24
ENDBRANCH   1  20
BRANCH   1  33
ATOM     33  C   UNL     1      -1.881  -1.989   0.068  0.00  0.00    +0.042 C 
BRANCH  33  34
ATOM     34  C   UNL     1      -1.761  -0.472   0.228  0.00  0.00    +0.071 C 
BRANCH  34  36
ATOM     35  C   UNL     1      -0.039   1.797   0.473  0.00  0.00    +0.084 C 
ATOM     36  S   UNL     1      -0.008  -0.007   0.283  0.00  0.00    -0.164 S 
ENDBRANCH  34  36
ENDBRANCH  33  34
ENDBRANCH   1  33
TORSDOF 9
