REMARK  Name = ZINC13120061
REMARK  9 active torsions:
REMARK  status: ('A' for Active; 'I' for Inactive)
REMARK    1  A    between atoms: C_1  and  O_2
REMARK    2  A    between atoms: O_2  and  C_3
REMARK    3  A    between atoms: C_7  and  C_10
REMARK    4  A    between atoms: C_8  and  O_9
REMARK    5  A    between atoms: N_11  and  C_12
REMARK    6  A    between atoms: C_13  and  C_21
REMARK    7  A    between atoms: C_24  and  O_29
REMARK    8  A    between atoms: C_25  and  O_27
REMARK    9  A    between atoms: O_27  and  C_28
REMARK                            x       y       z     vdW  Elec       q    Type
REMARK                         _______ _______ _______ _____ _____    ______ ____
ROOT
ATOM      1  C   UNL     1      -1.534  -6.196   0.007  0.00  0.00    +0.163 A 
ATOM      2  C   UNL     1      -1.571  -7.030   1.123  0.00  0.00    +0.091 A 
ATOM      3  N   UNL     1      -1.633  -8.294   0.690  0.00  0.00    -0.338 N 
ATOM      4  C   UNL     1      -1.637  -8.310  -0.637  0.00  0.00    +0.117 A 
ATOM      5  N   UNL     1      -1.582  -7.019  -1.096  0.00  0.00    -0.286 N 
ATOM      6  C   UNL     1      -1.580  -6.758  -2.436  0.00  0.00    +0.094 A 
ATOM      7  C   UNL     1      -1.636  -7.766  -3.332  0.00  0.00    +0.018 A 
ATOM      8  C   UNL     1      -1.696  -9.099  -2.895  0.00  0.00    +0.005 A 
ATOM      9  C   UNL     1      -1.690  -9.373  -1.561  0.00  0.00    +0.045 A 
ATOM     10  H   UNL     1      -1.669  -9.079   1.258  0.00  0.00    +0.167 HD
ENDROOT
BRANCH   2  11
ATOM     11  C   UNL     1      -1.546  -6.594   2.538  0.00  0.00    +0.006 A 
ATOM     12  C   UNL     1      -0.647  -5.611   2.951  0.00  0.00    +0.014 A 
ATOM     13  C   UNL     1      -0.624  -5.206   4.269  0.00  0.00    +0.050 A 
ATOM     14  C   UNL     1      -1.495  -5.774   5.188  0.00  0.00    +0.158 A 
ATOM     15  C   UNL     1      -2.395  -6.757   4.782  0.00  0.00    +0.162 A 
ATOM     16  C   UNL     1      -2.426  -7.162   3.460  0.00  0.00    +0.059 A 
BRANCH  15  17
ATOM     17  O   UNL     1      -3.246  -7.313   5.684  0.00  0.00    -0.491 OA
ATOM     18  C   UNL     1      -4.143  -8.315   5.199  0.00  0.00    +0.277 C 
ENDBRANCH  15  17
BRANCH  14  19
ATOM     19  O   UNL     1      -1.469  -5.372   6.486  0.00  0.00    -0.503 OA
ATOM     20  H   UNL     1      -2.060  -4.632   6.681  0.00  0.00    +0.292 HD
ENDBRANCH  14  19
ENDBRANCH   2  11
BRANCH   1  22
ATOM     21  C   UNL     1      -2.570  -4.140   0.017  0.00  0.00    +0.124 C 
ATOM     22  N   UNL     1      -1.470  -4.847   0.008  0.00  0.00    -0.235 NA
BRANCH  21  27
ATOM     23  C   UNL     1      -1.201  -0.638   0.010  0.00  0.00    +0.162 A 
ATOM     24  C   UNL     1      -2.374   0.102   0.019  0.00  0.00    +0.049 A 
ATOM     25  C   UNL     1      -3.603  -0.536   0.028  0.00  0.00    +0.004 A 
ATOM     26  C   UNL     1      -3.674  -1.912   0.027  0.00  0.00    +0.013 A 
ATOM     27  C   UNL     1      -2.499  -2.673   0.018  0.00  0.00    +0.038 A 
ATOM     28  C   UNL     1      -1.255  -2.026   0.003  0.00  0.00    +0.167 A 
BRANCH  23  30
ATOM     29  C   UNL     1      -0.017   1.425   0.010  0.00  0.00    +0.277 C 
ATOM     30  O   UNL     1       0.002  -0.004   0.002  0.00  0.00    -0.491 OA
ENDBRANCH  23  30
BRANCH  28  31
ATOM     31  O   UNL     1      -0.107  -2.754  -0.012  0.00  0.00    -0.503 OA
ATOM     32  H   UNL     1       0.233  -2.969   0.867  0.00  0.00    +0.292 HD
ENDBRANCH  28  31
ENDBRANCH  21  27
ENDBRANCH   1  22
TORSDOF 7
