REMARK  Name = ZINC01152917
REMARK  8 active torsions:
REMARK  status: ('A' for Active; 'I' for Inactive)
REMARK    1  A    between atoms: C_1  and  O_2
REMARK    2  A    between atoms: O_2  and  C_3
REMARK    3  A    between atoms: C_5  and  C_12
REMARK    4  A    between atoms: C_8  and  O_9
REMARK    5  A    between atoms: O_9  and  C_10
REMARK    6  A    between atoms: C_15  and  C_26
REMARK    7  A    between atoms: C_21  and  N_25
REMARK    8  A    between atoms: C_22  and  C_23
REMARK                            x       y       z     vdW  Elec       q    Type
REMARK                         _______ _______ _______ _____ _____    ______ ____
ROOT
ATOM      1  C   UNL     1       2.343   0.285   3.800  0.00  0.00    +0.103 C 
ATOM      2  C   UNL     1       3.546   1.127   3.465  0.00  0.00    +0.054 A 
ATOM      3  C   UNL     1       4.864   0.730   3.220  0.00  0.00    +0.102 A 
ATOM      4  N   UNL     1       5.574   1.813   2.967  0.00  0.00    -0.171 NA
ATOM      5  N   UNL     1       4.724   2.927   3.045  0.00  0.00    -0.246 N 
ATOM      6  H   UNL     1       4.981   3.852   2.903  0.00  0.00    +0.192 HD
ATOM      7  C   UNL     1       3.487   2.486   3.352  0.00  0.00    +0.223 A 
ATOM      8  O   UNL     1       2.340   3.187   3.535  0.00  0.00    -0.423 OA
ATOM      9  C   UNL     1       1.299   2.544   4.103  0.00  0.00    +0.200 C 
ATOM     10  C   UNL     1       1.238   1.202   4.260  0.00  0.00    +0.098 C 
ENDROOT
BRANCH   1  13
ATOM     11  C   UNL     1       1.255  -0.497   0.268  0.00  0.00    +0.162 A 
ATOM     12  C   UNL     1       1.664   0.200   1.393  0.00  0.00    +0.055 A 
ATOM     13  C   UNL     1       1.897  -0.475   2.577  0.00  0.00    -0.017 A 
ATOM     14  C   UNL     1       1.723  -1.846   2.641  0.00  0.00    +0.026 A 
ATOM     15  C   UNL     1       1.315  -2.547   1.521  0.00  0.00    +0.065 A 
ATOM     16  C   UNL     1       1.074  -1.875   0.333  0.00  0.00    +0.163 A 
ATOM     17 BR   UNL     1       2.044  -2.763   4.264  0.00  0.00    -0.050 Br
BRANCH  11  19
ATOM     18  C   UNL     1       1.232   1.580  -0.892  0.00  0.00    +0.277 C 
ATOM     19  O   UNL     1       1.025   0.166  -0.898  0.00  0.00    -0.491 OA
ENDBRANCH  11  19
BRANCH  16  20
ATOM     20  O   UNL     1       0.667  -2.562  -0.767  0.00  0.00    -0.491 OA
ATOM     21  C   UNL     1       0.502  -3.974  -0.626  0.00  0.00    +0.277 C 
ENDBRANCH  16  20
ENDBRANCH   1  13
BRANCH   3  22
ATOM     22  C   UNL     1       5.374  -0.663   3.241  0.00  0.00    +0.021 A 
ATOM     23  C   UNL     1       5.082  -1.499   4.317  0.00  0.00    +0.011 A 
ATOM     24  C   UNL     1       5.558  -2.794   4.331  0.00  0.00    +0.001 A 
ATOM     25  C   UNL     1       6.325  -3.264   3.280  0.00  0.00    +0.001 A 
ATOM     26  C   UNL     1       6.619  -2.440   2.209  0.00  0.00    +0.020 A 
ATOM     27  C   UNL     1       6.143  -1.143   2.181  0.00  0.00    +0.050 A 
ATOM     28 CL   UNL     1       6.506  -0.112   0.833  0.00  0.00    -0.083 Cl
ENDBRANCH   3  22
BRANCH   9  29
ATOM     29  N   UNL     1       0.241   3.296   4.550  0.00  0.00    -0.328 N 
ATOM     30  H   UNL     1       0.256   4.261   4.453  0.00  0.00    +0.145 HD
ATOM     31  H   UNL     1      -0.522   2.862   4.963  0.00  0.00    +0.145 HD
ENDBRANCH   9  29
BRANCH  10  32
ATOM     32  C   UNL     1       0.082   0.631   4.884  0.00  0.00    +0.101 C 
ATOM     33  N   UNL     1      -0.835   0.178   5.378  0.00  0.00    -0.191 NA
ENDBRANCH  10  32
TORSDOF 6
