REMARK  Name = ZINC08691774
REMARK  7 active torsions:
REMARK  status: ('A' for Active; 'I' for Inactive)
REMARK    1  A    between atoms: C_4  and  N_35
REMARK    2  A    between atoms: C_5  and  C_7
REMARK    3  A    between atoms: C_10  and  C_12
REMARK    4  A    between atoms: C_14  and  C_26
REMARK    5  A    between atoms: C_16  and  C_21
REMARK    6  A    between atoms: C_16  and  O_25
REMARK    7  A    between atoms: C_26  and  C_28
REMARK                            x       y       z     vdW  Elec       q    Type
REMARK                         _______ _______ _______ _____ _____    ______ ____
ROOT
ATOM      1  C   UNL     1       2.321  -6.020  -0.593  0.00  0.00    +0.156 C 
ATOM      2  C   UNL     1       3.726  -6.273  -0.036  0.00  0.00    +0.147 C 
ATOM      3  C   UNL     1       4.648  -5.143  -0.506  0.00  0.00    +0.243 C 
ATOM      4  N   UNL     1       4.599  -5.059  -1.966  0.00  0.00    -0.264 N 
ATOM      5  C   UNL     1       3.503  -5.421  -2.650  0.00  0.00    +0.302 C 
ATOM      6  O   UNL     1       3.511  -5.321  -3.861  0.00  0.00    -0.253 OA
ATOM      7  N   UNL     1       2.397  -5.889  -2.049  0.00  0.00    -0.289 N 
ATOM      8  H   UNL     1       5.375  -4.735  -2.450  0.00  0.00    +0.153 HD
ATOM      9  H   UNL     1       1.633  -6.146  -2.590  0.00  0.00    +0.151 HD
ENDROOT
BRANCH   1  13
ATOM     10  C   UNL     1       1.333  -3.143   1.430  0.00  0.00    +0.137 A 
ATOM     11  C   UNL     1       0.685  -2.835   0.276  0.00  0.00    +0.050 A 
ATOM     12  C   UNL     1       0.967  -3.871  -0.637  0.00  0.00    +0.047 A 
ATOM     13  C   UNL     1       1.766  -4.750  -0.002  0.00  0.00    +0.127 A 
ATOM     14  O   UNL     1       1.989  -4.305   1.246  0.00  0.00    -0.458 OA
BRANCH  10  19
ATOM     15  C   UNL     1       1.739  -0.264   3.807  0.00  0.00    +0.001 A 
ATOM     16  C   UNL     1       1.312  -0.833   4.994  0.00  0.00    +0.002 A 
ATOM     17  C   UNL     1       0.892  -2.150   5.025  0.00  0.00    +0.033 A 
ATOM     18  C   UNL     1       0.896  -2.906   3.871  0.00  0.00    +0.137 A 
ATOM     19  C   UNL     1       1.325  -2.339   2.670  0.00  0.00    +0.047 A 
ATOM     20  C   UNL     1       1.748  -1.008   2.646  0.00  0.00    +0.014 A 
BRANCH  18  21
ATOM     21  N   UNL     1       0.447  -4.316   3.906  0.00  0.00    +0.057 N 
ATOM     22  O   UNL     1       0.200  -4.846   4.964  0.00  0.00    -0.126 OA
ATOM     23  O   UNL     1       0.328  -4.939   2.876  0.00  0.00    -0.126 OA
ENDBRANCH  18  21
ENDBRANCH  10  19
ENDBRANCH   1  13
BRANCH   3  24
ATOM     24  C   UNL     1       4.181  -3.817   0.099  0.00  0.00    +0.436 C 
ATOM     25  F   UNL     1       3.925  -3.992   1.463  0.00  0.00    -0.166 F 
ATOM     26  F   UNL     1       5.179  -2.851  -0.069  0.00  0.00    -0.166 F 
ATOM     27  F   UNL     1       3.012  -3.398  -0.545  0.00  0.00    -0.166 F 
ENDBRANCH   3  24
BRANCH   3  28
ATOM     28  O   UNL     1       5.987  -5.415  -0.088  0.00  0.00    -0.364 OA
ATOM     29  H   UNL     1       6.627  -4.739  -0.352  0.00  0.00    +0.212 HD
ENDBRANCH   3  28
BRANCH   2  30
ATOM     30  C   UNL     1       4.241  -7.596  -0.543  0.00  0.00    +0.173 C 
ATOM     31  O   UNL     1       4.942  -7.634  -1.532  0.00  0.00    -0.292 OA
BRANCH  30  32
ATOM     32  C   UNL     1       3.893  -8.839   0.160  0.00  0.00    +0.018 A 
ATOM     33  C   UNL     1       3.079  -8.798   1.298  0.00  0.00    +0.014 A 
ATOM     34  C   UNL     1       2.757  -9.967   1.952  0.00  0.00    +0.039 A 
ATOM     35  C   UNL     1       3.238 -11.182   1.486  0.00  0.00    +0.123 A 
ATOM     36  C   UNL     1       4.045 -11.229   0.359  0.00  0.00    +0.039 A 
ATOM     37  C   UNL     1       4.370 -10.068  -0.308  0.00  0.00    +0.014 A 
ATOM     38  F   UNL     1       2.919 -12.324   2.134  0.00  0.00    -0.205 F 
ENDBRANCH  30  32
ENDBRANCH   2  30
TORSDOF 7
