REMARK  Name = ZINC18279661
REMARK  6 active torsions:
REMARK  status: ('A' for Active; 'I' for Inactive)
REMARK    1  A    between atoms: C_1  and  C_2
REMARK    2  A    between atoms: C_5  and  C_8
REMARK    3  A    between atoms: C_17  and  N_20
REMARK    4  A    between atoms: N_23  and  N_24
REMARK    5  A    between atoms: C_25  and  C_26
REMARK    6  A    between atoms: C_31  and  N_32
REMARK                            x       y       z     vdW  Elec       q    Type
REMARK                         _______ _______ _______ _____ _____    ______ ____
ROOT
ATOM      1  C   UNL     1       6.864   4.067  -1.171  0.00  0.00    -0.002 C 
ATOM      2  C   UNL     1       7.625   3.726   0.112  0.00  0.00    +0.015 C 
ATOM      3  C   UNL     1       6.804   4.169   1.324  0.00  0.00    -0.008 C 
ATOM      4  C   UNL     1       6.569   5.679   1.257  0.00  0.00    +0.007 C 
ATOM      5  C   UNL     1       5.809   6.021  -0.026  0.00  0.00    -0.008 C 
ATOM      6  C   UNL     1       6.630   5.577  -1.239  0.00  0.00    +0.015 C 
ATOM      7  C   UNL     1       4.462   5.294  -0.029  0.00  0.00    +0.029 C 
ATOM      8  C   UNL     1       4.697   3.784   0.038  0.00  0.00    +0.037 C 
ATOM      9  C   UNL     1       5.458   3.443   1.321  0.00  0.00    +0.029 C 
ATOM     10  C   UNL     1       5.518   3.341  -1.174  0.00  0.00    +0.037 C 
ENDROOT
BRANCH   1  15
ATOM     11  C   UNL     1       9.966   2.392  -5.751  0.00  0.00    +0.044 C 
ATOM     12  C   UNL     1       9.157   2.829  -4.557  0.00  0.00    -0.050 A 
ATOM     13  C   UNL     1       9.676   3.755  -3.671  0.00  0.00    +0.003 A 
ATOM     14  C   UNL     1       8.934   4.156  -2.576  0.00  0.00    +0.004 A 
ATOM     15  C   UNL     1       7.673   3.631  -2.366  0.00  0.00    -0.041 A 
ATOM     16  C   UNL     1       7.156   2.701  -3.249  0.00  0.00    +0.004 A 
ATOM     17  C   UNL     1       7.895   2.304  -4.347  0.00  0.00    +0.003 A 
ENDBRANCH   1  15
BRANCH   8  18
ATOM     18  N   UNL     1       3.408   3.089   0.036  0.00  0.00    -0.292 N 
ATOM     19  C   UNL     1       3.368   1.743   0.090  0.00  0.00    +0.320 C 
ATOM     20  O   UNL     1       4.396   1.109   0.232  0.00  0.00    -0.251 OA
ATOM     21  N   UNL     1       2.188   1.099  -0.014  0.00  0.00    -0.191 N 
ATOM     22  H   UNL     1       2.472   3.665  -0.011  0.00  0.00    +0.151 HD
ATOM     23  H   UNL     1       2.163  -0.000  -0.053  0.00  0.00    +0.179 HD
BRANCH  21  24
ATOM     24  N   UNL     1       0.994   1.829  -0.073  0.00  0.00    -0.186 NA
ATOM     25  C   UNL     1      -0.146   1.210  -0.075  0.00  0.00    +0.140 C 
BRANCH  25  26
ATOM     26  C   UNL     1      -1.403   1.979  -0.032  0.00  0.00    +0.025 A 
ATOM     27  C   UNL     1      -1.378   3.372  -0.138  0.00  0.00    +0.012 A 
ATOM     28  C   UNL     1      -2.558   4.085  -0.101  0.00  0.00    +0.001 A 
ATOM     29  C   UNL     1      -3.765   3.424   0.051  0.00  0.00    +0.002 A 
ATOM     30  C   UNL     1      -3.797   2.046   0.162  0.00  0.00    +0.033 A 
ATOM     31  C   UNL     1      -2.625   1.319   0.122  0.00  0.00    +0.135 A 
BRANCH  31  32
ATOM     32  N   UNL     1      -2.661  -0.156   0.241  0.00  0.00    +0.057 N 
ATOM     33  O   UNL     1      -3.730  -0.740   0.251  0.00  0.00    -0.126 OA
ATOM     34  O   UNL     1      -1.622  -0.785   0.329  0.00  0.00    -0.126 OA
ENDBRANCH  31  32
ENDBRANCH  25  26
ENDBRANCH  21  24
ENDBRANCH   8  18
TORSDOF 5
