REMARK  Name = ZINC57506024
REMARK  8 active torsions:
REMARK  status: ('A' for Active; 'I' for Inactive)
REMARK    1  A    between atoms: C_1  and  C_2
REMARK    2  A    between atoms: C_2  and  C_3
REMARK    3  A    between atoms: C_3  and  C_4
REMARK    4  A    between atoms: C_4  and  C_5
REMARK    5  A    between atoms: C_8  and  N_11
REMARK    6  A    between atoms: C_12  and  C_14
REMARK    7  A    between atoms: C_14  and  N_15
REMARK    8  A    between atoms: C_22  and  C_35
REMARK                            x       y       z     vdW  Elec       q    Type
REMARK                         _______ _______ _______ _____ _____    ______ ____
ROOT
ATOM      1  N   UNL     1       3.019  -4.684   9.703  0.00  0.00    -0.203 N 
ATOM      2  C   UNL     1       2.261  -5.758  10.007  0.00  0.00    +0.354 A 
ATOM      3  O   UNL     1       2.366  -6.871   9.521  0.00  0.00    -0.244 OA
ATOM      4  N   UNL     1       1.368  -5.383  10.942  0.00  0.00    -0.214 N 
ATOM      5  C   UNL     1       1.577  -4.042  11.225  0.00  0.00    +0.166 A 
ATOM      6  N   UNL     1       2.571  -3.613  10.490  0.00  0.00    -0.148 NA
ATOM      7  C   UNL     1       0.747  -3.417  12.192  0.00  0.00    +0.071 A 
ATOM      8  C   UNL     1      -0.215  -4.157  12.797  0.00  0.00    +0.045 A 
ATOM      9  N   UNL     1      -0.379  -5.449  12.490  0.00  0.00    -0.220 NA
ATOM     10  C   UNL     1       0.371  -6.057  11.601  0.00  0.00    +0.208 A 
ATOM     11  N   UNL     1       0.155  -7.383  11.328  0.00  0.00    -0.296 N 
ATOM     12  C   UNL     1      -0.189  -8.339  12.394  0.00  0.00    +0.113 C 
ATOM     13  C   UNL     1      -1.597  -8.864  12.118  0.00  0.00    +0.054 C 
ATOM     14  C   UNL     1      -1.741  -9.280  10.678  0.00  0.00    -0.041 A 
ATOM     15  C   UNL     1      -2.774 -10.153  10.359  0.00  0.00    +0.004 A 
ATOM     16  C   UNL     1      -2.968 -10.565   9.058  0.00  0.00    +0.000 A 
ATOM     17  C   UNL     1      -2.129 -10.107   8.059  0.00  0.00    +0.000 A 
ATOM     18  C   UNL     1      -1.100  -9.243   8.373  0.00  0.00    +0.005 A 
ATOM     19  C   UNL     1      -0.900  -8.832   9.684  0.00  0.00    -0.027 A 
ATOM     20  C   UNL     1       0.253  -7.906   9.961  0.00  0.00    +0.143 C 
ATOM     21  C   UNL     1      -1.109  -3.516  13.828  0.00  0.00    +0.066 C 
ENDROOT
BRANCH   1  22
ATOM     22  C   UNL     1       4.115  -4.645   8.732  0.00  0.00    +0.244 C 
BRANCH  22  24
ATOM     23  N   UNL     1       4.407  -4.168   6.323  0.00  0.00    -0.284 N 
ATOM     24  C   UNL     1       3.574  -4.266   7.378  0.00  0.00    +0.239 C 
ATOM     25  O   UNL     1       2.389  -4.050   7.238  0.00  0.00    -0.273 OA
ATOM     26  H   UNL     1       5.340  -4.414   6.417  0.00  0.00    +0.155 HD
BRANCH  23  30
ATOM     27  C   UNL     1       2.972  -2.806   2.656  0.00  0.00    -0.047 A 
ATOM     28  C   UNL     1       2.349  -2.417   3.829  0.00  0.00    +0.005 A 
ATOM     29  C   UNL     1       2.823  -2.866   5.046  0.00  0.00    +0.023 A 
ATOM     30  C   UNL     1       3.924  -3.711   5.091  0.00  0.00    +0.033 A 
ATOM     31  C   UNL     1       4.546  -4.100   3.913  0.00  0.00    +0.023 A 
ATOM     32  C   UNL     1       4.066  -3.651   2.699  0.00  0.00    +0.005 A 
BRANCH  27  33
ATOM     33  C   UNL     1       2.453  -2.313   1.330  0.00  0.00    +0.035 C 
BRANCH  33  34
ATOM     34  C   UNL     1       1.398  -3.288   0.801  0.00  0.00    +0.004 C 
BRANCH  34  36
ATOM     35  C   UNL     1      -0.183  -3.762  -1.074  0.00  0.00    +0.004 C 
ATOM     36  C   UNL     1       0.871  -2.788  -0.545  0.00  0.00    -0.003 C 
ENDBRANCH  34  36
ENDBRANCH  33  34
ENDBRANCH  27  33
ENDBRANCH  23  30
ENDBRANCH  22  24
ENDBRANCH   1  22
TORSDOF 6
