REMARK  Name = ZINC16886544
REMARK  10 active torsions:
REMARK  status: ('A' for Active; 'I' for Inactive)
REMARK    1  A    between atoms: C_1  and  C_2
REMARK    2  A    between atoms: C_5  and  C_9
REMARK    3  A    between atoms: C_6  and  C_8
REMARK    4  A    between atoms: C_9  and  C_10
REMARK    5  A    between atoms: C_11  and  C_28
REMARK    6  A    between atoms: N_14  and  C_17
REMARK    7  A    between atoms: C_17  and  C_18
REMARK    8  A    between atoms: C_19  and  C_26
REMARK    9  A    between atoms: C_21  and  C_25
REMARK   10  A    between atoms: C_23  and  C_24
REMARK                            x       y       z     vdW  Elec       q    Type
REMARK                         _______ _______ _______ _____ _____    ______ ____
ROOT
ATOM      1  C   UNL     1       0.812   1.152  -0.697  0.00  0.00    +0.047 A 
ATOM      2  C   UNL     1      -0.002   2.236  -0.992  0.00  0.00    +0.083 A 
ATOM      3  N   UNL     1      -1.290   2.219  -0.624  0.00  0.00    -0.216 NA
ATOM      4  C   UNL     1      -1.803   1.190   0.015  0.00  0.00    +0.197 A 
ATOM      5  N   UNL     1      -1.050   0.100   0.325  0.00  0.00    -0.277 N 
ATOM      6  C   UNL     1       0.256   0.059  -0.014  0.00  0.00    +0.260 A 
ATOM      7  O   UNL     1       0.940  -0.913   0.263  0.00  0.00    -0.267 OA
ATOM      8  N   UNL     1      -3.125   1.214   0.373  0.00  0.00    -0.329 N 
ATOM      9  H   UNL     1      -3.684   1.962   0.111  0.00  0.00    +0.145 HD
ATOM     10  H   UNL     1      -3.502   0.484   0.888  0.00  0.00    +0.145 HD
ENDROOT
BRANCH   2  11
ATOM     11  C   UNL     1       0.552   3.407  -1.712  0.00  0.00    +0.001 A 
ATOM     12  C   UNL     1       1.622   4.120  -1.170  0.00  0.00    +0.010 A 
ATOM     13  C   UNL     1       2.136   5.207  -1.847  0.00  0.00    +0.001 A 
ATOM     14  C   UNL     1       1.585   5.596  -3.055  0.00  0.00    +0.000 A 
ATOM     15  C   UNL     1       0.521   4.897  -3.594  0.00  0.00    +0.001 A 
ATOM     16  C   UNL     1       0.001   3.805  -2.929  0.00  0.00    +0.010 A 
ENDBRANCH   2  11
BRANCH   1  17
ATOM     17  C   UNL     1       2.264   1.148  -1.101  0.00  0.00    +0.078 C 
BRANCH  17  22
ATOM     18  C   UNL     1       2.878  -1.792  -6.038  0.00  0.00    +0.044 C 
ATOM     19  C   UNL     1       2.719  -1.025  -4.750  0.00  0.00    -0.050 A 
ATOM     20  C   UNL     1       2.241  -1.663  -3.621  0.00  0.00    +0.003 A 
ATOM     21  C   UNL     1       2.094  -0.960  -2.440  0.00  0.00    +0.004 A 
ATOM     22  C   UNL     1       2.424   0.381  -2.388  0.00  0.00    -0.040 A 
ATOM     23  C   UNL     1       2.897   1.020  -3.519  0.00  0.00    -0.047 A 
ATOM     24  C   UNL     1       3.049   0.316  -4.699  0.00  0.00    +0.007 A 
ATOM     25  C   UNL     1       3.252   2.484  -3.464  0.00  0.00    +0.044 C 
ENDBRANCH  17  22
ENDBRANCH   1  17
BRANCH   5  26
ATOM     26  C   UNL     1      -1.656  -1.031   1.032  0.00  0.00    +0.163 C 
BRANCH  26  27
ATOM     27  C   UNL     1      -1.123  -1.087   2.440  0.00  0.00    -0.022 A 
ATOM     28  C   UNL     1      -0.222  -2.072   2.800  0.00  0.00    -0.045 A 
ATOM     29  C   UNL     1       0.271  -2.120   4.090  0.00  0.00    +0.007 A 
ATOM     30  C   UNL     1      -0.144  -1.190   5.024  0.00  0.00    -0.050 A 
ATOM     31  C   UNL     1      -1.048  -0.207   4.666  0.00  0.00    +0.007 A 
ATOM     32  C   UNL     1      -1.538  -0.156   3.374  0.00  0.00    -0.045 A 
ATOM     33  C   UNL     1      -2.524   0.915   2.984  0.00  0.00    +0.044 C 
ATOM     34  C   UNL     1       0.390  -1.245   6.432  0.00  0.00    +0.044 C 
ATOM     35  C   UNL     1       0.226  -3.090   1.783  0.00  0.00    +0.044 C 
ENDBRANCH  26  27
ENDBRANCH   5  26
TORSDOF 5
