REMARK  Name = ZINC20727862
REMARK  15 active torsions:
REMARK  status: ('A' for Active; 'I' for Inactive)
REMARK    1  A    between atoms: C_1  and  C_2
REMARK    2  A    between atoms: C_2  and  C_3
REMARK    3  A    between atoms: C_2  and  C_4
REMARK    4  A    between atoms: C_4  and  N_5
REMARK    5  A    between atoms: N_5  and  C_6
REMARK    6  A    between atoms: N_5  and  C_34
REMARK    7  A    between atoms: C_6  and  C_7
REMARK    8  A    between atoms: C_7  and  N_8
REMARK    9  A    between atoms: C_9  and  C_11
REMARK   10  A    between atoms: C_11  and  N_12
REMARK   11  A    between atoms: C_21  and  C_22
REMARK   12  A    between atoms: C_25  and  C_28
REMARK   13  A    between atoms: C_34  and  C_35
REMARK   14  A    between atoms: C_35  and  C_36
REMARK   15  A    between atoms: C_35  and  C_37
REMARK                            x       y       z     vdW  Elec       q    Type
REMARK                         _______ _______ _______ _____ _____    ______ ____
ROOT
ATOM      1  N   UNL     1       2.777   5.975  -0.976  0.00  0.00    -0.257 N 
ATOM      2  C   UNL     1       3.350   6.155   0.276  0.00  0.00    +0.051 A 
ATOM      3  C   UNL     1       2.876   5.391   1.342  0.00  0.00    +0.024 A 
ATOM      4  C   UNL     1       3.417   5.537   2.602  0.00  0.00    +0.002 A 
ATOM      5  C   UNL     1       4.439   6.442   2.828  0.00  0.00    +0.001 A 
ATOM      6  C   UNL     1       4.925   7.198   1.784  0.00  0.00    +0.017 A 
ATOM      7  C   UNL     1       4.383   7.061   0.516  0.00  0.00    +0.034 A 
ATOM      8  S   UNL     1       4.995   8.048  -0.816  0.00  0.00    -0.082 S 
ATOM      9  C   UNL     1       4.603   7.031  -2.215  0.00  0.00    +0.076 C 
ATOM     10  C   UNL     1       5.436   6.920  -3.278  0.00  0.00    +0.028 C 
ATOM     11  C   UNL     1       3.312   6.309  -2.153  0.00  0.00    +0.258 C 
ATOM     12  O   UNL     1       2.734   6.016  -3.183  0.00  0.00    -0.269 OA
ENDROOT
BRANCH  10  13
ATOM     13  C   UNL     1       6.629   7.774  -3.368  0.00  0.00    -0.024 A 
ATOM     14  C   UNL     1       6.561   9.120  -2.992  0.00  0.00    +0.008 A 
ATOM     15  C   UNL     1       7.686   9.913  -3.074  0.00  0.00    +0.013 A 
ATOM     16  C   UNL     1       8.878   9.383  -3.538  0.00  0.00    +0.055 A 
ATOM     17  C   UNL     1       8.952   8.054  -3.917  0.00  0.00    +0.013 A 
ATOM     18  C   UNL     1       7.838   7.247  -3.836  0.00  0.00    +0.008 A 
BRANCH  16  19
ATOM     19  C   UNL     1      10.101  10.258  -3.630  0.00  0.00    +0.417 C 
ATOM     20  F   UNL     1      10.149  10.862  -4.891  0.00  0.00    -0.166 F 
ATOM     21  F   UNL     1      10.044  11.246  -2.642  0.00  0.00    -0.166 F 
ATOM     22  F   UNL     1      11.248   9.478  -3.443  0.00  0.00    -0.166 F 
ENDBRANCH  16  19
ENDBRANCH  10  13
BRANCH   1  23
ATOM     23  C   UNL     1       1.447   5.361  -1.008  0.00  0.00    +0.209 C 
BRANCH  23  25
ATOM     24  N   UNL     1       0.488   3.085  -1.158  0.00  0.00    -0.316 N 
ATOM     25  C   UNL     1       1.588   3.864  -1.113  0.00  0.00    +0.231 C 
ATOM     26  O   UNL     1       2.690   3.360  -1.156  0.00  0.00    -0.274 OA
ATOM     27  H   UNL     1      -0.511   3.542  -1.118  0.00  0.00    +0.149 HD
BRANCH  24  28
ATOM     28  C   UNL     1       0.625   1.630  -1.260  0.00  0.00    +0.086 C 
BRANCH  28  29
ATOM     29  C   UNL     1      -0.764   0.989  -1.293  0.00  0.00    -0.060 C 
BRANCH  29  30
ATOM     30  N   UNL     1      -0.627  -0.470  -1.395  0.00  0.00    +0.381 N 
ATOM     31  H   UNL     1       0.040  -0.689  -2.242  0.00  0.00    -0.082 HD
BRANCH  30  32
ATOM     32  C   UNL     1      -0.014  -1.028  -0.182  0.00  0.00    -0.076 C 
BRANCH  32  34
ATOM     33  C   UNL     1      -2.109  -0.831   1.165  0.00  0.00    +0.005 C 
ATOM     34  C   UNL     1      -0.650  -0.385   1.052  0.00  0.00    -0.034 C 
ATOM     35  C   UNL     1       0.114  -0.820   2.304  0.00  0.00    +0.005 C 
ENDBRANCH  32  34
ENDBRANCH  30  32
BRANCH  30  36
ATOM     36  C   UNL     1      -1.924  -1.103  -1.667  0.00  0.00    -0.076 C 
BRANCH  36  37
ATOM     37  C   UNL     1      -1.723  -2.603  -1.893  0.00  0.00    -0.034 C 
ATOM     38  C   UNL     1      -3.080  -3.271  -2.120  0.00  0.00    +0.005 C 
ATOM     39  C   UNL     1      -0.836  -2.819  -3.121  0.00  0.00    +0.005 C 
ENDBRANCH  36  37
ENDBRANCH  30  36
ENDBRANCH  29  30
ENDBRANCH  28  29
ENDBRANCH  24  28
ENDBRANCH  23  25
ENDBRANCH   1  23
TORSDOF 11
