REMARK  Name = ZINC17377922
REMARK  6 active torsions:
REMARK  status: ('A' for Active; 'I' for Inactive)
REMARK    1  A    between atoms: C_4  and  C_7
REMARK    2  A    between atoms: C_8  and  C_33
REMARK    3  A    between atoms: C_10  and  N_13
REMARK    4  A    between atoms: N_14  and  C_15
REMARK    5  A    between atoms: C_18  and  C_27
REMARK    6  A    between atoms: C_19  and  C_21
REMARK                            x       y       z     vdW  Elec       q    Type
REMARK                         _______ _______ _______ _____ _____    ______ ____
ROOT
ATOM      1  N   UNL     1      -1.164   1.677   0.474  0.00  0.00    -0.107 NA
ATOM      2  N   UNL     1      -0.896   2.931   0.329  0.00  0.00    -0.107 NA
ENDROOT
BRANCH   1   6
ATOM      3  C   UNL     1       0.612   0.261   3.155  0.00  0.00    +0.075 A 
ATOM      4  C   UNL     1       0.689  -0.720   2.172  0.00  0.00    +0.099 A 
ATOM      5  N   UNL     1       0.037  -0.272   1.094  0.00  0.00    -0.209 NA
ATOM      6  C   UNL     1      -0.447   0.930   1.339  0.00  0.00    +0.249 A 
ATOM      7  N   UNL     1      -0.108   1.296   2.615  0.00  0.00    -0.321 N 
ATOM      8  H   UNL     1      -0.342   2.157   3.067  0.00  0.00    +0.169 HD
BRANCH   3  12
ATOM      9  C   UNL     1       2.273   0.085   7.057  0.00  0.00    +0.000 A 
ATOM     10  C   UNL     1       0.971   0.521   6.882  0.00  0.00    +0.001 A 
ATOM     11  C   UNL     1       0.425   0.581   5.617  0.00  0.00    +0.010 A 
ATOM     12  C   UNL     1       1.189   0.200   4.511  0.00  0.00    +0.000 A 
ATOM     13  C   UNL     1       2.501  -0.245   4.696  0.00  0.00    +0.010 A 
ATOM     14  C   UNL     1       3.036  -0.294   5.966  0.00  0.00    +0.001 A 
ENDBRANCH   3  12
BRANCH   4  15
ATOM     15  C   UNL     1       1.373  -2.029   2.297  0.00  0.00    +0.002 A 
ATOM     16  C   UNL     1       2.104  -2.542   1.226  0.00  0.00    +0.010 A 
ATOM     17  C   UNL     1       2.744  -3.758   1.351  0.00  0.00    +0.001 A 
ATOM     18  C   UNL     1       2.651  -4.474   2.531  0.00  0.00    +0.000 A 
ATOM     19  C   UNL     1       1.923  -3.973   3.595  0.00  0.00    +0.001 A 
ATOM     20  C   UNL     1       1.284  -2.755   3.484  0.00  0.00    +0.010 A 
ENDBRANCH   4  15
ENDBRANCH   1   6
BRANCH   2  21
ATOM     21  C   UNL     1       0.190   3.462   0.927  0.00  0.00    +0.249 A 
ATOM     22  N   UNL     1       0.260   4.713   1.482  0.00  0.00    -0.321 N 
ATOM     23  H   UNL     1      -0.476   5.389   1.517  0.00  0.00    +0.169 HD
ATOM     24  C   UNL     1       1.530   4.863   1.980  0.00  0.00    +0.075 A 
ATOM     25  C   UNL     1       2.203   3.677   1.707  0.00  0.00    +0.099 A 
ATOM     26  N   UNL     1       1.354   2.860   1.075  0.00  0.00    -0.209 NA
BRANCH  25  27
ATOM     27  C   UNL     1       3.610   3.372   2.059  0.00  0.00    +0.002 A 
ATOM     28  C   UNL     1       4.433   2.715   1.145  0.00  0.00    +0.010 A 
ATOM     29  C   UNL     1       5.744   2.439   1.476  0.00  0.00    +0.001 A 
ATOM     30  C   UNL     1       6.238   2.801   2.716  0.00  0.00    +0.000 A 
ATOM     31  C   UNL     1       5.424   3.447   3.629  0.00  0.00    +0.001 A 
ATOM     32  C   UNL     1       4.114   3.735   3.307  0.00  0.00    +0.010 A 
ENDBRANCH  25  27
BRANCH  24  33
ATOM     33  C   UNL     1       2.073   6.048   2.670  0.00  0.00    +0.000 A 
ATOM     34  C   UNL     1       3.324   6.557   2.312  0.00  0.00    +0.010 A 
ATOM     35  C   UNL     1       3.823   7.669   2.957  0.00  0.00    +0.001 A 
ATOM     36  C   UNL     1       3.092   8.274   3.965  0.00  0.00    +0.000 A 
ATOM     37  C   UNL     1       1.855   7.772   4.329  0.00  0.00    +0.001 A 
ATOM     38  C   UNL     1       1.341   6.665   3.688  0.00  0.00    +0.010 A 
ENDBRANCH  24  33
ENDBRANCH   2  21
TORSDOF 6
