REMARK  Name = ZINC10106614
REMARK  10 active torsions:
REMARK  status: ('A' for Active; 'I' for Inactive)
REMARK    1  A    between atoms: C_1  and  C_2
REMARK    2  A    between atoms: C_5  and  N_8
REMARK    3  A    between atoms: C_9  and  C_36
REMARK    4  A    between atoms: N_18  and  C_23
REMARK    5  A    between atoms: N_21  and  C_22
REMARK    6  A    between atoms: C_23  and  C_24
REMARK    7  A    between atoms: C_24  and  C_26
REMARK    8  A    between atoms: C_24  and  C_27
REMARK    9  A    between atoms: C_27  and  N_69
REMARK   10  A    between atoms: C_30  and  C_33
REMARK                            x       y       z     vdW  Elec       q    Type
REMARK                         _______ _______ _______ _____ _____    ______ ____
ROOT
ATOM      1  N   UNL     1      -4.694   1.408  -5.371  0.00  0.00    -0.283 N 
ATOM      2  C   UNL     1      -5.138   0.206  -4.851  0.00  0.00    +0.040 A 
ATOM      3  C   UNL     1      -4.391  -0.087  -3.790  0.00  0.00    +0.116 A 
ATOM      4  N   UNL     1      -3.461   0.923  -3.619  0.00  0.00    -0.277 N 
ATOM      5  C   UNL     1      -3.650   1.842  -4.594  0.00  0.00    +0.223 A 
ATOM      6  N   UNL     1      -2.769   2.821  -4.449  0.00  0.00    -0.193 NA
ATOM      7  C   UNL     1      -1.991   2.579  -3.398  0.00  0.00    +0.170 A 
ATOM      8  C   UNL     1      -2.405   1.371  -2.839  0.00  0.00    +0.157 A 
ATOM      9  C   UNL     1      -1.738   0.875  -1.706  0.00  0.00    +0.283 A 
ATOM     10  O   UNL     1      -2.079  -0.182  -1.205  0.00  0.00    -0.265 OA
ATOM     11  N   UNL     1      -0.719   1.584  -1.177  0.00  0.00    -0.259 N 
ATOM     12  C   UNL     1      -0.328   2.748  -1.722  0.00  0.00    +0.333 A 
ATOM     13  O   UNL     1       0.598   3.356  -1.219  0.00  0.00    -0.246 OA
ATOM     14  N   UNL     1      -0.934   3.258  -2.811  0.00  0.00    -0.279 N 
ATOM     15  C   UNL     1      -0.476   4.530  -3.375  0.00  0.00    +0.155 C 
ATOM     16  C   UNL     1      -6.271  -0.627  -5.391  0.00  0.00    +0.065 C 
ENDROOT
BRANCH   1  21
ATOM     17  C   UNL     1      -6.812   4.072  -9.912  0.00  0.00    +0.044 C 
ATOM     18  C   UNL     1      -6.250   3.364  -8.706  0.00  0.00    -0.050 A 
ATOM     19  C   UNL     1      -7.029   3.203  -7.575  0.00  0.00    +0.005 A 
ATOM     20  C   UNL     1      -6.516   2.555  -6.468  0.00  0.00    +0.026 A 
ATOM     21  C   UNL     1      -5.217   2.065  -6.492  0.00  0.00    +0.050 A 
ATOM     22  C   UNL     1      -4.436   2.233  -7.628  0.00  0.00    +0.026 A 
ATOM     23  C   UNL     1      -4.956   2.877  -8.733  0.00  0.00    +0.005 A 
ENDBRANCH   1  21
BRANCH  11  24
ATOM     24  C   UNL     1      -0.025   1.072   0.007  0.00  0.00    +0.131 C 
BRANCH  24  25
ATOM     25  C   UNL     1      -0.710   1.603   1.268  0.00  0.00    -0.011 C 
ATOM     26  C   UNL     1      -0.553   3.124   1.333  0.00  0.00    +0.007 C 
BRANCH  25  27
ATOM     27  C   UNL     1      -0.064   0.971   2.503  0.00  0.00    -0.074 C 
BRANCH  27  33
ATOM     28  C   UNL     1      -2.203   1.250   3.603  0.00  0.00    -0.078 C 
ATOM     29  C   UNL     1      -2.897   1.884   4.810  0.00  0.00    -0.006 C 
ATOM     30  C   UNL     1      -2.371   1.235   6.094  0.00  0.00    +0.071 C 
ATOM     31  C   UNL     1      -0.851   1.411   6.159  0.00  0.00    -0.006 C 
ATOM     32  C   UNL     1      -0.216   0.790   4.913  0.00  0.00    -0.078 C 
ATOM     33  N   UNL     1      -0.746   1.474   3.714  0.00  0.00    +0.380 N 
ATOM     34  H   UNL     1      -0.570   2.482   3.801  0.00  0.00    -0.082 HD
BRANCH  30  35
ATOM     35  C   UNL     1      -3.006   1.897   7.289  0.00  0.00    +0.213 C 
ATOM     36  O   UNL     1      -2.313   2.454   8.114  0.00  0.00    -0.276 OA
ATOM     37  N   UNL     1      -4.345   1.869   7.442  0.00  0.00    -0.329 N 
ATOM     38  H   UNL     1      -4.899   1.423   6.783  0.00  0.00    +0.145 HD
ATOM     39  H   UNL     1      -4.754   2.295   8.212  0.00  0.00    +0.145 HD
ENDBRANCH  30  35
ENDBRANCH  27  33
ENDBRANCH  25  27
ENDBRANCH  24  25
ENDBRANCH  11  24
TORSDOF 6
