REMARK  Name = ZINC38689097
REMARK  10 active torsions:
REMARK  status: ('A' for Active; 'I' for Inactive)
REMARK    1  A    between atoms: C_1  and  C_2
REMARK    2  A    between atoms: C_2  and  O_3
REMARK    3  A    between atoms: O_3  and  C_4
REMARK    4  A    between atoms: C_9  and  C_30
REMARK    5  A    between atoms: C_11  and  N_14
REMARK    6  A    between atoms: C_15  and  C_17
REMARK    7  A    between atoms: C_17  and  N_18
REMARK    8  A    between atoms: C_30  and  O_32
REMARK    9  A    between atoms: O_32  and  C_33
REMARK   10  A    between atoms: C_33  and  C_34
REMARK                            x       y       z     vdW  Elec       q    Type
REMARK                         _______ _______ _______ _____ _____    ______ ____
ROOT
ATOM      1  C   UNL     1       1.797  -8.197  -3.527  0.00  0.00    +0.121 A 
ATOM      2  C   UNL     1       1.179  -8.273  -2.271  0.00  0.00    +0.047 A 
ATOM      3  C   UNL     1       0.844  -7.163  -1.571  0.00  0.00    +0.029 A 
ATOM      4  C   UNL     1       1.117  -5.878  -2.109  0.00  0.00    +0.045 A 
ATOM      5  N   UNL     1       0.892  -4.669  -1.634  0.00  0.00    -0.367 N 
ATOM      6  C   UNL     1       1.375  -3.678  -2.601  0.00  0.00    +0.234 C 
ATOM      7  C   UNL     1       1.940  -4.467  -3.760  0.00  0.00    +0.053 C 
ATOM      8  C   UNL     1       1.767  -5.799  -3.428  0.00  0.00    +0.021 A 
ATOM      9  C   UNL     1       2.095  -7.002  -4.101  0.00  0.00    +0.057 A 
ATOM     10  H   UNL     1       0.474  -4.467  -0.782  0.00  0.00    +0.161 HD
ENDROOT
BRANCH   7  11
ATOM     11  N   UNL     1       2.503  -3.970  -4.899  0.00  0.00    -0.285 N 
ATOM     12  C   UNL     1       2.756  -2.650  -5.004  0.00  0.00    +0.231 C 
ATOM     13  O   UNL     1       2.581  -1.921  -4.051  0.00  0.00    -0.274 OA
ATOM     14  H   UNL     1       2.722  -4.565  -5.632  0.00  0.00    +0.155 HD
BRANCH  12  15
ATOM     15  C   UNL     1       3.256  -2.080  -6.306  0.00  0.00    +0.180 C 
BRANCH  15  16
ATOM     16  N   UNL     1       3.453  -0.631  -6.163  0.00  0.00    -0.291 NA
ATOM     17  C   UNL     1       4.530  -0.338  -5.209  0.00  0.00    +0.104 C 
ATOM     18  C   UNL     1       4.583   1.171  -4.951  0.00  0.00    +0.122 C 
ATOM     19  N   UNL     1       4.694   1.862  -6.245  0.00  0.00    -0.314 N 
ATOM     20  C   UNL     1       3.729   1.519  -7.301  0.00  0.00    +0.122 C 
ATOM     21  C   UNL     1       3.710  -0.004  -7.467  0.00  0.00    +0.104 C 
ATOM     22  C   UNL     1       5.683   2.814  -6.463  0.00  0.00    +0.099 A 
ATOM     23  C   UNL     1       5.830   3.378  -7.727  0.00  0.00    +0.042 A 
ATOM     24  C   UNL     1       6.818   4.324  -7.930  0.00  0.00    +0.005 A 
ATOM     25  C   UNL     1       7.629   4.676  -6.859  0.00  0.00    +0.018 A 
ATOM     26  C   UNL     1       7.427   4.076  -5.633  0.00  0.00    +0.084 A 
ATOM     27  N   UNL     1       6.473   3.180  -5.466  0.00  0.00    -0.350 N 
ATOM     28  H   UNL     1       6.349   2.777  -4.593  0.00  0.00    +0.166 HD
ENDBRANCH  15  16
ENDBRANCH  12  15
ENDBRANCH   7  11
BRANCH   6  29
ATOM     29  C   UNL     1       0.235  -2.810  -3.068  0.00  0.00    +0.336 C 
ATOM     30  O   UNL     1      -0.898  -3.226  -3.024  0.00  0.00    -0.248 OA
BRANCH  29  31
ATOM     31  O   UNL     1       0.479  -1.575  -3.533  0.00  0.00    -0.463 OA
BRANCH  31  32
ATOM     32  C   UNL     1      -0.649  -0.808  -3.959  0.00  0.00    +0.229 C 
ATOM     33  C   UNL     1      -0.178   0.562  -4.452  0.00  0.00    +0.048 C 
ENDBRANCH  31  32
ENDBRANCH  29  31
ENDBRANCH   6  29
BRANCH   1  34
ATOM     34  O   UNL     1       2.111  -9.346  -4.183  0.00  0.00    -0.492 OA
BRANCH  34  36
ATOM     35  C   UNL     1       2.204 -11.749  -4.419  0.00  0.00    +0.048 C 
ATOM     36  C   UNL     1       1.777 -10.575  -3.536  0.00  0.00    +0.225 C 
ENDBRANCH  34  36
ENDBRANCH   1  34
TORSDOF 8
