REMARK  Name = ZINC13637325
REMARK  6 active torsions:
REMARK  status: ('A' for Active; 'I' for Inactive)
REMARK    1  A    between atoms: C_4  and  C_7
REMARK    2  A    between atoms: C_7  and  C_8
REMARK    3  A    between atoms: C_8  and  N_9
REMARK    4  A    between atoms: C_10  and  C_12
REMARK    5  A    between atoms: C_19  and  C_28
REMARK    6  A    between atoms: C_31  and  O_34
REMARK                            x       y       z     vdW  Elec       q    Type
REMARK                         _______ _______ _______ _____ _____    ______ ____
ROOT
ATOM      1  C   UNL     1      -2.646   7.916  -1.387  0.00  0.00    +0.058 A 
ATOM      2  C   UNL     1      -3.168   9.190  -1.167  0.00  0.00    +0.015 A 
ATOM      3  C   UNL     1      -2.695   9.959  -0.127  0.00  0.00    +0.001 A 
ATOM      4  C   UNL     1      -1.695   9.467   0.696  0.00  0.00    +0.006 A 
ATOM      5  C   UNL     1      -1.164   8.213   0.490  0.00  0.00    -0.019 A 
ATOM      6  C   UNL     1      -1.634   7.404  -0.550  0.00  0.00    +0.044 A 
ATOM      7  N   UNL     1      -1.184   6.119  -0.800  0.00  0.00    -0.336 N 
ATOM      8  C   UNL     1      -0.074   5.628   0.032  0.00  0.00    +0.105 C 
ATOM      9  C   UNL     1      -0.316   6.133   1.439  0.00  0.00    +0.029 C 
ATOM     10  C   UNL     1      -0.086   7.674   1.348  0.00  0.00    +0.049 C 
ATOM     11  C   UNL     1       0.084   8.073   2.766  0.00  0.00    -0.023 C 
ATOM     12  C   UNL     1       0.582   7.040   3.438  0.00  0.00    -0.030 C 
ATOM     13  C   UNL     1       0.749   5.841   2.502  0.00  0.00    +0.033 C 
ATOM     14  H   UNL     1      -0.985   5.990  -1.781  0.00  0.00    +0.147 HD
ENDROOT
BRANCH   8  15
ATOM     15  C   UNL     1      -0.054   4.121   0.024  0.00  0.00    -0.027 A 
ATOM     16  C   UNL     1       1.153   3.447   0.009  0.00  0.00    +0.009 A 
ATOM     17  C   UNL     1       1.175   2.066   0.002  0.00  0.00    +0.046 A 
ATOM     18  C   UNL     1      -0.016   1.355   0.009  0.00  0.00    +0.117 A 
ATOM     19  C   UNL     1      -1.226   2.033   0.019  0.00  0.00    +0.046 A 
ATOM     20  C   UNL     1      -1.242   3.414   0.031  0.00  0.00    +0.009 A 
BRANCH  18  21
ATOM     21  O   UNL     1       0.002  -0.004   0.002  0.00  0.00    -0.507 OA
ATOM     22  H   UNL     1       0.016  -0.402   0.883  0.00  0.00    +0.292 HD
ENDBRANCH  18  21
ENDBRANCH   8  15
BRANCH   1  24
ATOM     23  N   UNL     1      -4.125   7.583  -3.306  0.00  0.00    -0.311 N 
ATOM     24  C   UNL     1      -3.156   7.099  -2.503  0.00  0.00    +0.246 C 
ATOM     25  O   UNL     1      -2.704   5.987  -2.699  0.00  0.00    -0.270 OA
ATOM     26  H   UNL     1      -4.486   8.470  -3.150  0.00  0.00    +0.149 HD
BRANCH  23  27
ATOM     27  C   UNL     1      -4.631   6.771  -4.415  0.00  0.00    +0.109 C 
BRANCH  27  28
ATOM     28  C   UNL     1      -5.716   7.549  -5.162  0.00  0.00    +0.054 C 
BRANCH  28  32
ATOM     29  C   UNL     1      -7.194   5.181  -8.396  0.00  0.00    +0.000 A 
ATOM     30  C   UNL     1      -7.788   5.097  -7.150  0.00  0.00    +0.000 A 
ATOM     31  C   UNL     1      -7.309   5.864  -6.104  0.00  0.00    +0.004 A 
ATOM     32  C   UNL     1      -6.238   6.713  -6.303  0.00  0.00    -0.046 A 
ATOM     33  C   UNL     1      -5.648   6.801  -7.550  0.00  0.00    +0.004 A 
ATOM     34  C   UNL     1      -6.123   6.030  -8.595  0.00  0.00    +0.000 A 
ENDBRANCH  28  32
ENDBRANCH  27  28
ENDBRANCH  23  27
ENDBRANCH   1  24
TORSDOF 6
