REMARK  Name = ZINC08835937
REMARK  6 active torsions:
REMARK  status: ('A' for Active; 'I' for Inactive)
REMARK    1  A    between atoms: C_9  and  C_23
REMARK    2  A    between atoms: C_10  and  N_22
REMARK    3  A    between atoms: N_11  and  C_14
REMARK    4  A    between atoms: N_25  and  C_26
REMARK    5  A    between atoms: C_26  and  C_27
REMARK    6  A    between atoms: C_27  and  C_28
REMARK                            x       y       z     vdW  Elec       q    Type
REMARK                         _______ _______ _______ _____ _____    ______ ____
ROOT
ATOM      1  C   UNL     1      -0.332  -6.884  -0.029  0.00  0.00    +0.002 A 
ATOM      2  C   UNL     1       1.059  -6.797  -0.041  0.00  0.00    +0.002 A 
ATOM      3  C   UNL     1       1.685  -5.590  -0.042  0.00  0.00    +0.030 A 
ATOM      4  C   UNL     1       0.924  -4.406  -0.029  0.00  0.00    +0.092 A 
ATOM      5  C   UNL     1      -0.490  -4.494  -0.016  0.00  0.00    +0.090 A 
ATOM      6  C   UNL     1      -1.101  -5.762  -0.016  0.00  0.00    +0.030 A 
ATOM      7  N   UNL     1      -1.237  -3.384  -0.003  0.00  0.00    -0.241 NA
ATOM      8  C   UNL     1      -0.649  -2.204  -0.003  0.00  0.00    +0.123 A 
ATOM      9  C   UNL     1      -1.129  -0.813   0.015  0.00  0.00    +0.104 A 
ATOM     10  C   UNL     1       0.002  -0.004   0.002  0.00  0.00    +0.117 A 
ATOM     11  N   UNL     1       1.132  -0.766  -0.013  0.00  0.00    -0.280 N 
ATOM     12  C   UNL     1       0.814  -2.111  -0.017  0.00  0.00    +0.166 A 
ATOM     13  N   UNL     1       1.532  -3.213  -0.029  0.00  0.00    -0.225 NA
ENDROOT
BRANCH  11  14
ATOM     14  C   UNL     1       2.437  -0.257  -0.023  0.00  0.00    +0.053 A 
ATOM     15  C   UNL     1       3.260  -0.476  -1.119  0.00  0.00    +0.046 A 
ATOM     16  C   UNL     1       4.546   0.032  -1.129  0.00  0.00    +0.044 A 
ATOM     17  C   UNL     1       5.016   0.750  -0.043  0.00  0.00    +0.040 A 
ATOM     18  C   UNL     1       4.199   0.965   1.053  0.00  0.00    +0.044 A 
ATOM     19  C   UNL     1       2.911   0.464   1.065  0.00  0.00    +0.046 A 
ATOM     20 CL   UNL     1       4.792   1.865   2.414  0.00  0.00    -0.083 Cl
ATOM     21 CL   UNL     1       5.574  -0.236  -2.501  0.00  0.00    -0.083 Cl
ENDBRANCH  11  14
BRANCH   9  22
ATOM     22  C   UNL     1      -2.521  -0.369   0.037  0.00  0.00    +0.250 C 
ATOM     23  O   UNL     1      -3.116  -0.179  -1.008  0.00  0.00    -0.270 OA
ATOM     24  N   UNL     1      -3.146  -0.169   1.214  0.00  0.00    -0.311 N 
ATOM     25  H   UNL     1      -2.671  -0.321   2.047  0.00  0.00    +0.149 HD
BRANCH  24  26
ATOM     26  C   UNL     1      -4.541   0.276   1.237  0.00  0.00    +0.109 C 
BRANCH  26  27
ATOM     27  C   UNL     1      -5.006   0.424   2.687  0.00  0.00    +0.049 C 
BRANCH  27  28
ATOM     28  C   UNL     1      -6.441   0.882   2.711  0.00  0.00    -0.072 C 
ATOM     29  C   UNL     1      -7.364  -0.019   2.820  0.00  0.00    -0.028 C 
ATOM     30  C   UNL     1      -8.834   0.282   2.847  0.00  0.00    +0.027 C 
ATOM     31  C   UNL     1      -9.063   1.763   3.155  0.00  0.00    +0.004 C 
ATOM     32  C   UNL     1      -8.174   2.596   2.223  0.00  0.00    +0.005 C 
ATOM     33  C   UNL     1      -6.712   2.355   2.612  0.00  0.00    +0.030 C 
ENDBRANCH  27  28
ENDBRANCH  26  27
ENDBRANCH  24  26
ENDBRANCH   9  22
BRANCH  10  34
ATOM     34  N   UNL     1      -0.017   1.367   0.010  0.00  0.00    -0.343 N 
ATOM     35  H   UNL     1       0.817   1.863   0.004  0.00  0.00    +0.144 HD
ATOM     36  H   UNL     1      -0.863   1.840   0.016  0.00  0.00    +0.144 HD
ENDBRANCH  10  34
TORSDOF 6
