REMARK  Name = ZINC38152265
REMARK  12 active torsions:
REMARK  status: ('A' for Active; 'I' for Inactive)
REMARK    1  A    between atoms: C_1  and  C_2
REMARK    2  A    between atoms: C_7  and  C_9
REMARK    3  A    between atoms: C_7  and  C_10
REMARK    4  A    between atoms: N_11  and  S_13
REMARK    5  A    between atoms: S_13  and  C_16
REMARK    6  A    between atoms: C_20  and  C_22
REMARK    7  A    between atoms: N_24  and  C_25
REMARK    8  A    between atoms: C_25  and  C_26
REMARK    9  A    between atoms: C_26  and  C_28
REMARK   10  A    between atoms: C_26  and  N_33
REMARK   11  A    between atoms: N_33  and  C_34
REMARK   12  A    between atoms: N_33  and  C_35
REMARK                            x       y       z     vdW  Elec       q    Type
REMARK                         _______ _______ _______ _____ _____    ______ ____
ROOT
ATOM      1  C   UNL     1      -2.352  -3.125   0.802  0.00  0.00    +0.106 A 
ATOM      2  C   UNL     1      -1.481  -4.193   0.674  0.00  0.00    +0.028 A 
ATOM      3  C   UNL     1      -1.461  -5.195   1.627  0.00  0.00    +0.003 A 
ATOM      4  C   UNL     1      -2.311  -5.136   2.712  0.00  0.00    +0.013 A 
ATOM      5  C   UNL     1      -3.191  -4.062   2.848  0.00  0.00    +0.039 A 
ATOM      6  C   UNL     1      -3.202  -3.051   1.885  0.00  0.00    +0.041 A 
ENDROOT
BRANCH   5   7
ATOM      7  C   UNL     1      -4.105  -3.993   4.008  0.00  0.00    +0.244 C 
ATOM      8  O   UNL     1      -4.870  -3.056   4.124  0.00  0.00    -0.270 OA
ATOM      9  N   UNL     1      -4.088  -4.968   4.938  0.00  0.00    -0.312 N 
ATOM     10  H   UNL     1      -3.477  -5.715   4.846  0.00  0.00    +0.149 HD
BRANCH   9  11
ATOM     11  C   UNL     1      -4.993  -4.899   6.088  0.00  0.00    +0.097 C 
BRANCH  11  12
ATOM     12  C   UNL     1      -4.844  -6.167   6.931  0.00  0.00    +0.016 C 
BRANCH  12  13
ATOM     13  C   UNL     1      -5.296  -7.360   6.129  0.00  0.00    +0.093 A 
ATOM     14  C   UNL     1      -6.495  -7.963   6.224  0.00  0.00    +0.043 A 
ATOM     15  C   UNL     1      -6.491  -9.030   5.295  0.00  0.00    +0.041 A 
ATOM     16  C   UNL     1      -5.290  -9.014   4.689  0.00  0.00    +0.195 A 
ATOM     17  O   UNL     1      -4.573  -7.997   5.193  0.00  0.00    -0.469 OA
ENDBRANCH  12  13
BRANCH  12  18
ATOM     18  N   UNL     1      -3.436  -6.339   7.313  0.00  0.00    +0.384 N 
ATOM     19  C   UNL     1      -2.987  -5.163   8.071  0.00  0.00    -0.096 C 
ATOM     20  C   UNL     1      -3.297  -7.541   8.146  0.00  0.00    -0.096 C 
ATOM     21  H   UNL     1      -2.872  -6.438   6.482  0.00  0.00    -0.082 HD
ENDBRANCH  12  18
ENDBRANCH  11  12
ENDBRANCH   9  11
ENDBRANCH   5   7
BRANCH   1  22
ATOM     22  S   UNL     1      -2.369  -1.853  -0.418  0.00  0.00    +0.061 S 
ATOM     23  O   UNL     1      -3.650  -1.242  -0.349  0.00  0.00    -0.153 OA
ATOM     24  O   UNL     1      -1.864  -2.431  -1.614  0.00  0.00    -0.153 OA
BRANCH  22  34
ATOM     25  C   UNL     1      -0.345   2.669   1.357  0.00  0.00    +0.012 C 
ATOM     26  C   UNL     1      -0.199   1.153   1.157  0.00  0.00    -0.016 C 
ATOM     27  C   UNL     1       0.591   0.801  -0.133  0.00  0.00    +0.028 C 
ATOM     28  C   UNL     1       0.161  -0.678  -0.305  0.00  0.00    +0.081 C 
ATOM     29  C   UNL     1       0.943  -1.493   0.724  0.00  0.00    +0.027 C 
ATOM     30  C   UNL     1       0.733  -1.021   2.152  0.00  0.00    -0.033 C 
ATOM     31  C   UNL     1       0.508   0.469   2.326  0.00  0.00    +0.014 C 
ATOM     32  C   UNL     1       2.012  -1.387   2.946  0.00  0.00    +0.011 C 
ATOM     33  C   UNL     1      -0.418  -1.808   2.795  0.00  0.00    +0.011 C 
ATOM     34  N   UNL     1      -1.271  -0.707   0.055  0.00  0.00    -0.173 NA
ATOM     35  C   UNL     1      -1.556   0.460   0.904  0.00  0.00    +0.116 C 
ENDBRANCH  22  34
ENDBRANCH   1  22
TORSDOF 7
