REMARK  Name = ZINC63722078
REMARK  10 active torsions:
REMARK  status: ('A' for Active; 'I' for Inactive)
REMARK    1  A    between atoms: C_1  and  C_2
REMARK    2  A    between atoms: C_2  and  N_3
REMARK    3  A    between atoms: N_3  and  C_4
REMARK    4  A    between atoms: N_3  and  S_10
REMARK    5  A    between atoms: S_10  and  C_13
REMARK    6  A    between atoms: C_16  and  O_32
REMARK    7  A    between atoms: C_17  and  N_19
REMARK    8  A    between atoms: C_20  and  C_22
REMARK    9  A    between atoms: C_22  and  C_23
REMARK   10  A    between atoms: O_32  and  C_33
REMARK                            x       y       z     vdW  Elec       q    Type
REMARK                         _______ _______ _______ _____ _____    ______ ____
ROOT
ATOM      1  C   UNL     1      -0.029   0.050  -3.564  0.00  0.00    +0.111 A 
ATOM      2  C   UNL     1      -1.069   0.961  -3.537  0.00  0.00    +0.032 A 
ATOM      3  C   UNL     1      -1.097   2.011  -4.436  0.00  0.00    +0.049 A 
ATOM      4  C   UNL     1      -0.082   2.152  -5.368  0.00  0.00    +0.141 A 
ATOM      5  C   UNL     1       0.966   1.235  -5.396  0.00  0.00    +0.077 A 
ATOM      6  C   UNL     1       0.990   0.188  -4.487  0.00  0.00    +0.055 A 
ENDROOT
BRANCH   5   7
ATOM      7  N   UNL     1       1.996   1.373  -6.336  0.00  0.00    -0.282 N 
ATOM      8  C   UNL     1       2.756   0.310  -6.665  0.00  0.00    +0.221 C 
ATOM      9  O   UNL     1       2.488  -0.787  -6.221  0.00  0.00    -0.275 OA
ATOM     10  H   UNL     1       2.162   2.235  -6.750  0.00  0.00    +0.155 HD
BRANCH   8  11
ATOM     11  C   UNL     1       3.937   0.483  -7.584  0.00  0.00    +0.129 C 
BRANCH  11  12
ATOM     12  C   UNL     1       4.613  -0.848  -7.790  0.00  0.00    -0.033 C 
ATOM     13  C   UNL     1       4.411  -1.713  -8.810  0.00  0.00    -0.001 A 
ATOM     14  C   UNL     1       3.535  -1.675  -9.988  0.00  0.00    +0.010 A 
ATOM     15  C   UNL     1       3.554  -2.714 -10.853  0.00  0.00    +0.001 A 
ATOM     16  C   UNL     1       4.386  -3.825 -10.653  0.00  0.00    +0.002 A 
ATOM     17  C   UNL     1       5.217  -3.932  -9.595  0.00  0.00    +0.026 A 
ATOM     18  C   UNL     1       5.280  -2.897  -8.623  0.00  0.00    +0.043 A 
ATOM     19  N   UNL     1       5.991  -2.769  -7.529  0.00  0.00    -0.380 N 
ATOM     20  C   UNL     1       5.658  -1.485  -6.901  0.00  0.00    +0.145 C 
ATOM     21  H   UNL     1       6.634  -3.413  -7.193  0.00  0.00    +0.160 HD
ENDBRANCH  11  12
ENDBRANCH   8  11
ENDBRANCH   5   7
BRANCH   1  22
ATOM     22  S   UNL     1      -0.001  -1.286  -2.416  0.00  0.00    +0.075 S 
ATOM     23  O   UNL     1       0.897  -2.254  -2.940  0.00  0.00    -0.150 OA
ATOM     24  O   UNL     1      -1.356  -1.590  -2.112  0.00  0.00    -0.150 OA
BRANCH  22  25
ATOM     25  N   UNL     1       0.681  -0.716  -1.018  0.00  0.00    -0.203 N 
BRANCH  25  26
ATOM     26  C   UNL     1       2.063  -0.795  -0.833  0.00  0.00    +0.051 A 
ATOM     27  C   UNL     1       2.913  -0.803  -1.931  0.00  0.00    +0.025 A 
ATOM     28  C   UNL     1       4.279  -0.882  -1.743  0.00  0.00    +0.002 A 
ATOM     29  C   UNL     1       4.801  -0.952  -0.464  0.00  0.00    +0.000 A 
ATOM     30  C   UNL     1       3.957  -0.944   0.631  0.00  0.00    +0.002 A 
ATOM     31  C   UNL     1       2.590  -0.861   0.451  0.00  0.00    +0.025 A 
ENDBRANCH  25  26
BRANCH  25  33
ATOM     32  C   UNL     1      -0.203   1.392  -0.148  0.00  0.00    +0.026 C 
ATOM     33  C   UNL     1      -0.166  -0.128   0.023  0.00  0.00    +0.128 C 
ENDBRANCH  25  33
ENDBRANCH  22  25
ENDBRANCH   1  22
BRANCH   4  34
ATOM     34  O   UNL     1      -0.108   3.184  -6.253  0.00  0.00    -0.493 OA
ATOM     35  C   UNL     1      -1.214   4.085  -6.166  0.00  0.00    +0.277 C 
ENDBRANCH   4  34
TORSDOF 8
