REMARK  Name = ZINC41584106
REMARK  10 active torsions:
REMARK  status: ('A' for Active; 'I' for Inactive)
REMARK    1  A    between atoms: C_1  and  C_2
REMARK    2  A    between atoms: C_2  and  C_3
REMARK    3  A    between atoms: C_3  and  C_4
REMARK    4  A    between atoms: C_4  and  N_5
REMARK    5  A    between atoms: N_5  and  C_6
REMARK    6  A    between atoms: N_5  and  C_7
REMARK    7  A    between atoms: C_7  and  C_8
REMARK    8  A    between atoms: C_9  and  O_30
REMARK    9  A    between atoms: C_17  and  C_19
REMARK   10  A    between atoms: C_21  and  C_24
REMARK                            x       y       z     vdW  Elec       q    Type
REMARK                         _______ _______ _______ _____ _____    ______ ____
ROOT
ATOM      1  C   UNL     1      -4.182  -4.549   0.262  0.00  0.00    +0.020 A 
ATOM      2  C   UNL     1      -4.755  -4.686   1.516  0.00  0.00    +0.122 A 
ATOM      3  C   UNL     1      -6.062  -5.153   1.649  0.00  0.00    +0.046 A 
ATOM      4  C   UNL     1      -6.790  -5.494   0.547  0.00  0.00    +0.015 A 
ATOM      5  C   UNL     1      -6.220  -5.385  -0.729  0.00  0.00    +0.019 A 
ATOM      6  C   UNL     1      -4.913  -4.877  -0.869  0.00  0.00    +0.144 A 
ATOM      7  O   UNL     1      -4.381  -4.699  -2.103  0.00  0.00    -0.421 OA
ATOM      8  C   UNL     1      -4.849  -5.495  -3.091  0.00  0.00    +0.347 A 
ATOM      9  O   UNL     1      -4.106  -5.938  -3.947  0.00  0.00    -0.244 OA
ATOM     10  C   UNL     1      -6.290  -5.808  -3.096  0.00  0.00    +0.092 A 
ATOM     11  C   UNL     1      -6.953  -5.767  -1.881  0.00  0.00    +0.029 A 
ENDROOT
BRANCH  10  12
ATOM     12  C   UNL     1      -6.993  -6.161  -4.343  0.00  0.00    +0.116 A 
ATOM     13  N   UNL     1      -6.516  -6.262  -5.575  0.00  0.00    -0.239 NA
ATOM     14  C   UNL     1      -7.297  -6.593  -6.587  0.00  0.00    +0.079 A 
ATOM     15  C   UNL     1      -8.626  -6.837  -6.360  0.00  0.00    +0.075 A 
ATOM     16  S   UNL     1      -8.714  -6.575  -4.593  0.00  0.00    -0.075 S 
BRANCH  14  17
ATOM     17  C   UNL     1      -6.740  -6.699  -7.958  0.00  0.00    +0.001 A 
ATOM     18  C   UNL     1      -7.569  -7.042  -9.025  0.00  0.00    +0.010 A 
ATOM     19  C   UNL     1      -7.046  -7.139 -10.298  0.00  0.00    +0.001 A 
ATOM     20  C   UNL     1      -5.702  -6.896 -10.517  0.00  0.00    +0.000 A 
ATOM     21  C   UNL     1      -4.875  -6.555  -9.462  0.00  0.00    +0.001 A 
ATOM     22  C   UNL     1      -5.388  -6.449  -8.185  0.00  0.00    +0.010 A 
ENDBRANCH  14  17
ENDBRANCH  10  12
BRANCH   2  23
ATOM     23  O   UNL     1      -4.039  -4.365   2.624  0.00  0.00    -0.506 OA
ATOM     24  H   UNL     1      -4.132  -3.443   2.898  0.00  0.00    +0.292 HD
ENDBRANCH   2  23
BRANCH   1  25
ATOM     25  C   UNL     1      -2.772  -4.037   0.128  0.00  0.00    -0.036 C 
BRANCH  25  26
ATOM     26  N   UNL     1      -2.791  -2.572   0.015  0.00  0.00    +0.381 N 
ATOM     27  C   UNL     1      -3.465  -2.186  -1.232  0.00  0.00    -0.096 C 
ATOM     28  H   UNL     1      -3.288  -2.181   0.801  0.00  0.00    -0.082 HD
BRANCH  26  29
ATOM     29  C   UNL     1      -1.413  -2.063   0.004  0.00  0.00    -0.079 C 
BRANCH  29  30
ATOM     30  C   UNL     1      -1.433  -0.534   0.013  0.00  0.00    -0.019 C 
BRANCH  30  32
ATOM     31  C   UNL     1      -0.019   1.526   0.010  0.00  0.00    +0.004 C 
ATOM     32  C   UNL     1       0.002  -0.004   0.002  0.00  0.00    -0.005 C 
ENDBRANCH  30  32
ENDBRANCH  29  30
ENDBRANCH  26  29
ENDBRANCH  25  26
ENDBRANCH   1  25
TORSDOF 8
