REMARK  Name = ZINC34735001
REMARK  8 active torsions:
REMARK  status: ('A' for Active; 'I' for Inactive)
REMARK    1  A    between atoms: C_1  and  C_2
REMARK    2  A    between atoms: C_2  and  C_36
REMARK    3  A    between atoms: N_11  and  C_26
REMARK    4  A    between atoms: N_17  and  C_20
REMARK    5  A    between atoms: C_20  and  C_21
REMARK    6  A    between atoms: N_23  and  C_24
REMARK    7  A    between atoms: N_23  and  C_25
REMARK    8  A    between atoms: C_26  and  C_27
REMARK                            x       y       z     vdW  Elec       q    Type
REMARK                         _______ _______ _______ _____ _____    ______ ____
ROOT
ATOM      1  C   UNL     1      -0.566   1.786  -0.845  0.00  0.00    +0.041 C 
ATOM      2  C   UNL     1      -0.227   0.338  -0.487  0.00  0.00    +0.068 C 
ATOM      3  C   UNL     1      -1.521  -0.434  -0.215  0.00  0.00    +0.071 C 
ATOM      4  C   UNL     1      -2.120   0.086   1.090  0.00  0.00    -0.018 A 
ATOM      5  C   UNL     1      -1.339   0.787   1.946  0.00  0.00    +0.021 A 
ATOM      6  S   UNL     1      -2.396   1.199   3.308  0.00  0.00    -0.071 S 
ATOM      7  C   UNL     1      -3.879   0.434   2.730  0.00  0.00    +0.118 A 
ATOM      8  C   UNL     1      -3.500  -0.121   1.485  0.00  0.00    +0.076 A 
ATOM      9  C   UNL     1      -4.509  -0.826   0.750  0.00  0.00    +0.264 A 
ATOM     10  O   UNL     1      -4.281  -1.340  -0.331  0.00  0.00    -0.267 OA
ATOM     11  N   UNL     1      -5.731  -0.885   1.330  0.00  0.00    -0.276 N 
ATOM     12  C   UNL     1      -6.007  -0.319   2.536  0.00  0.00    +0.202 A 
ATOM     13  N   UNL     1      -5.099   0.340   3.243  0.00  0.00    -0.208 NA
ATOM     14  N   UNL     1      -7.278  -0.434   3.042  0.00  0.00    -0.304 N 
ATOM     15  C   UNL     1      -7.508  -0.951   4.399  0.00  0.00    +0.089 C 
ATOM     16  C   UNL     1      -8.428   0.024   5.141  0.00  0.00    -0.059 C 
ATOM     17  N   UNL     1      -9.652   0.234   4.357  0.00  0.00    +0.387 N 
ATOM     18  C   UNL     1      -9.324   0.890   3.085  0.00  0.00    -0.059 C 
ATOM     19  C   UNL     1      -8.448  -0.037   2.243  0.00  0.00    +0.089 C 
ATOM     20  C   UNL     1       0.107   1.124   1.752  0.00  0.00    +0.203 C 
ATOM     21  O   UNL     1       0.609   0.320   0.673  0.00  0.00    -0.368 OA
ATOM     22  C   UNL     1       0.513  -0.314  -1.656  0.00  0.00    +0.041 C 
ATOM     23  H   UNL     1     -10.088  -0.657   4.172  0.00  0.00    -0.081 HD
ENDROOT
BRANCH  17  24
ATOM     24  C   UNL     1     -10.580   1.081   5.118  0.00  0.00    +0.019 C 
BRANCH  24  25
ATOM     25  C   UNL     1     -11.883   1.196   4.370  0.00  0.00    +0.199 C 
ATOM     26  O   UNL     1     -12.024   0.629   3.307  0.00  0.00    -0.278 OA
ATOM     27  N   UNL     1     -12.891   1.930   4.882  0.00  0.00    -0.309 N 
ATOM     28  C   UNL     1     -14.158   2.043   4.154  0.00  0.00    +0.131 C 
ATOM     29  C   UNL     1     -12.720   2.615   6.165  0.00  0.00    +0.131 C 
ENDBRANCH  24  25
ENDBRANCH  17  24
BRANCH  11  30
ATOM     30  C   UNL     1      -6.805  -1.591   0.627  0.00  0.00    +0.163 C 
BRANCH  30  31
ATOM     31  C   UNL     1      -6.876  -3.014   1.118  0.00  0.00    -0.027 A 
ATOM     32  C   UNL     1      -6.041  -3.974   0.577  0.00  0.00    +0.007 A 
ATOM     33  C   UNL     1      -6.106  -5.279   1.027  0.00  0.00    +0.020 A 
ATOM     34  C   UNL     1      -7.006  -5.625   2.019  0.00  0.00    +0.041 A 
ATOM     35  C   UNL     1      -7.842  -4.664   2.560  0.00  0.00    +0.020 A 
ATOM     36  C   UNL     1      -7.772  -3.358   2.113  0.00  0.00    +0.007 A 
ATOM     37 CL   UNL     1      -7.089  -7.264   2.584  0.00  0.00    -0.084 Cl
ENDBRANCH  30  31
ENDBRANCH  11  30
TORSDOF 4
