REMARK  Name = ZINC08767944
REMARK  8 active torsions:
REMARK  status: ('A' for Active; 'I' for Inactive)
REMARK    1  A    between atoms: C_1  and  C_2
REMARK    2  A    between atoms: C_2  and  C_34
REMARK    3  A    between atoms: C_8  and  O_11
REMARK    4  A    between atoms: O_11  and  C_12
REMARK    5  A    between atoms: C_12  and  C_13
REMARK    6  A    between atoms: C_13  and  O_15
REMARK    7  A    between atoms: O_15  and  C_16
REMARK    8  A    between atoms: C_16  and  C_17
REMARK                            x       y       z     vdW  Elec       q    Type
REMARK                         _______ _______ _______ _____ _____    ______ ____
ROOT
ATOM      1  C   UNL     1       3.479   3.441   0.540  0.00  0.00    +0.258 C 
ATOM      2  O   UNL     1       4.522   4.038   0.379  0.00  0.00    -0.271 OA
ATOM      3  N   UNL     1       2.331   3.945   0.045  0.00  0.00    -0.252 N 
ATOM      4  C   UNL     1       1.177   3.152  -0.077  0.00  0.00    +0.059 A 
ATOM      5  C   UNL     1       1.264   1.791  -0.304  0.00  0.00    +0.025 A 
ATOM      6  C   UNL     1       0.108   1.042  -0.434  0.00  0.00    +0.002 A 
ATOM      7  C   UNL     1      -1.130   1.654  -0.347  0.00  0.00    +0.002 A 
ATOM      8  C   UNL     1      -1.223   3.014  -0.114  0.00  0.00    +0.025 A 
ATOM      9  C   UNL     1      -0.071   3.770   0.025  0.00  0.00    +0.055 A 
ATOM     10  N   UNL     1      -0.143   5.146   0.275  0.00  0.00    -0.282 N 
ATOM     11  C   UNL     1       0.934   5.934   0.080  0.00  0.00    +0.241 C 
ATOM     12  O   UNL     1       0.853   7.126   0.284  0.00  0.00    -0.273 OA
ATOM     13  C   UNL     1       2.236   5.344  -0.390  0.00  0.00    +0.118 C 
ATOM     14  C   UNL     1       2.326   5.419  -1.924  0.00  0.00    +0.036 C 
ATOM     15  C   UNL     1       3.146   6.707  -2.191  0.00  0.00    +0.003 C 
ATOM     16  C   UNL     1       4.193   6.690  -1.050  0.00  0.00    +0.003 C 
ATOM     17  C   UNL     1       3.417   6.149   0.170  0.00  0.00    +0.036 C 
ATOM     18  H   UNL     1      -0.973   5.535   0.590  0.00  0.00    +0.155 HD
ENDROOT
BRANCH   1  19
ATOM     19  C   UNL     1       3.466   2.137   1.295  0.00  0.00    +0.328 C 
BRANCH  19  20
ATOM     20  O   UNL     1       4.771   1.906   1.887  0.00  0.00    -0.453 OA
BRANCH  20  21
ATOM     21  C   UNL     1       4.928   0.778   2.597  0.00  0.00    +0.346 C 
ATOM     22  O   UNL     1       4.004   0.009   2.721  0.00  0.00    -0.247 OA
BRANCH  21  23
ATOM     23  C   UNL     1       6.255   0.472   3.241  0.00  0.00    +0.349 C 
BRANCH  23  24
ATOM     24  O   UNL     1       6.171  -0.774   3.936  0.00  0.00    -0.477 OA
BRANCH  24  32
ATOM     25  C   UNL     1       7.102  -5.441   4.636  0.00  0.00    +0.056 C 
ATOM     26  C   UNL     1       6.813  -4.568   5.859  0.00  0.00    +0.109 C 
ATOM     27  C   UNL     1       8.129  -4.163   6.565  0.00  0.00    +0.086 C 
ATOM     28  C   UNL     1       8.436  -2.827   5.916  0.00  0.00    +0.002 A 
ATOM     29  C   UNL     1       9.581  -2.060   5.875  0.00  0.00    +0.007 A 
ATOM     30  C   UNL     1       9.588  -0.862   5.186  0.00  0.00    +0.004 A 
ATOM     31  C   UNL     1       8.444  -0.435   4.536  0.00  0.00    +0.049 A 
ATOM     32  C   UNL     1       7.292  -1.200   4.578  0.00  0.00    +0.163 A 
ATOM     33  C   UNL     1       7.276  -2.407   5.281  0.00  0.00    +0.166 A 
ATOM     34  O   UNL     1       6.263  -3.300   5.461  0.00  0.00    -0.482 OA
ATOM     35  C   UNL     1       5.874  -5.285   6.830  0.00  0.00    +0.056 C 
ENDBRANCH  24  32
ENDBRANCH  23  24
ENDBRANCH  21  23
ENDBRANCH  20  21
ENDBRANCH  19  20
ENDBRANCH   1  19
TORSDOF 6
