REMARK  Name = ZINC14547905
REMARK  3 active torsions:
REMARK  status: ('A' for Active; 'I' for Inactive)
REMARK    1  A    between atoms: C_9  and  O_31
REMARK    2  A    between atoms: C_10  and  C_11
REMARK    3  A    between atoms: C_21  and  N_28
REMARK                            x       y       z     vdW  Elec       q    Type
REMARK                         _______ _______ _______ _____ _____    ______ ____
ROOT
ATOM      1  C   UNL     1      -0.073  -3.184  -0.149  0.00  0.00    +0.109 C 
ATOM      2  C   UNL     1      -0.215  -3.947  -1.456  0.00  0.00    +0.029 C 
ATOM      3  C   UNL     1      -1.293  -5.050  -1.321  0.00  0.00    +0.033 C 
ATOM      4  C   UNL     1      -0.802  -6.131  -2.266  0.00  0.00    -0.030 C 
ATOM      5  C   UNL     1       0.482  -6.001  -2.485  0.00  0.00    -0.023 C 
ATOM      6  C   UNL     1       1.035  -4.811  -1.718  0.00  0.00    +0.051 C 
ATOM      7  C   UNL     1       1.628  -5.322  -0.431  0.00  0.00    +0.014 A 
ATOM      8  C   UNL     1       2.718  -6.179  -0.520  0.00  0.00    +0.132 A 
ATOM      9  C   UNL     1       3.311  -6.683   0.619  0.00  0.00    +0.036 A 
ATOM     10  C   UNL     1       2.822  -6.336   1.866  0.00  0.00    +0.042 A 
ATOM     11  C   UNL     1       1.739  -5.486   1.965  0.00  0.00    +0.145 A 
ATOM     12  C   UNL     1       1.137  -4.976   0.813  0.00  0.00    +0.069 A 
ATOM     13  N   UNL     1       0.044  -4.124   0.968  0.00  0.00    -0.334 N 
ATOM     14  F   UNL     1       1.259  -5.147   3.182  0.00  0.00    -0.204 F 
ATOM     15  H   UNL     1       0.091  -3.635   1.849  0.00  0.00    +0.147 HD
ENDROOT
BRANCH   1  25
ATOM     16  C   UNL     1       1.764   0.350  -3.363  0.00  0.00    +0.001 A 
ATOM     17  C   UNL     1       0.617  -0.442  -3.327  0.00  0.00    +0.001 A 
ATOM     18  C   UNL     1       0.402  -1.318  -2.308  0.00  0.00    +0.009 A 
ATOM     19  C   UNL     1       1.349  -1.428  -1.274  0.00  0.00    -0.009 A 
ATOM     20  C   UNL     1       2.515  -0.622  -1.311  0.00  0.00    -0.017 A 
ATOM     21  C   UNL     1       2.702   0.270  -2.380  0.00  0.00    +0.008 A 
ATOM     22  C   UNL     1       3.462  -0.730  -0.278  0.00  0.00    +0.012 A 
ATOM     23  C   UNL     1       3.251  -1.604   0.743  0.00  0.00    +0.046 A 
ATOM     24  C   UNL     1       2.102  -2.400   0.781  0.00  0.00    +0.122 A 
ATOM     25  C   UNL     1       1.160  -2.320  -0.206  0.00  0.00    +0.022 A 
BRANCH  24  26
ATOM     26  O   UNL     1       1.919  -3.264   1.813  0.00  0.00    -0.506 OA
ATOM     27  H   UNL     1       1.525  -2.860   2.599  0.00  0.00    +0.292 HD
ENDBRANCH  24  26
ENDBRANCH   1  25
BRANCH   8  28
ATOM     28  N   UNL     1       3.248  -6.555  -1.850  0.00  0.00    +0.057 N 
ATOM     29  O   UNL     1       3.645  -7.689  -2.049  0.00  0.00    -0.126 OA
ATOM     30  O   UNL     1       3.286  -5.730  -2.745  0.00  0.00    -0.126 OA
ENDBRANCH   8  28
TORSDOF 3
