REMARK  Name = ZINC09995147
REMARK  5 active torsions:
REMARK  status: ('A' for Active; 'I' for Inactive)
REMARK    1  A    between atoms: C_4  and  C_7
REMARK    2  A    between atoms: C_7  and  C_29
REMARK    3  A    between atoms: N_10  and  N_14
REMARK    4  A    between atoms: C_15  and  C_17
REMARK    5  A    between atoms: C_17  and  N_60
REMARK                            x       y       z     vdW  Elec       q    Type
REMARK                         _______ _______ _______ _____ _____    ______ ____
ROOT
ATOM      1  C   UNL     1       1.248  -4.252  -0.880  0.00  0.00    +0.165 C 
ATOM      2  C   UNL     1       2.008  -3.339   0.061  0.00  0.00    +0.272 C 
ATOM      3  O   UNL     1       2.886  -3.652   0.835  0.00  0.00    -0.270 OA
ATOM      4  N   UNL     1       1.503  -2.106  -0.141  0.00  0.00    -0.137 N 
ATOM      5  C   UNL     1       0.544  -2.112  -1.075  0.00  0.00    +0.327 C 
ATOM      6  O   UNL     1      -0.057  -1.118  -1.432  0.00  0.00    -0.251 OA
ATOM      7  N   UNL     1       0.321  -3.341  -1.574  0.00  0.00    -0.276 N 
ATOM      8  H   UNL     1      -0.324  -3.581  -2.257  0.00  0.00    +0.152 HD
ENDROOT
BRANCH   1  12
ATOM      9  C   UNL     1      -0.913  -7.219   1.304  0.00  0.00    +0.000 A 
ATOM     10  C   UNL     1       0.421  -6.990   1.584  0.00  0.00    +0.000 A 
ATOM     11  C   UNL     1       1.120  -6.029   0.878  0.00  0.00    +0.006 A 
ATOM     12  C   UNL     1       0.486  -5.299  -0.110  0.00  0.00    -0.011 A 
ATOM     13  C   UNL     1      -0.850  -5.525  -0.387  0.00  0.00    +0.006 A 
ATOM     14  C   UNL     1      -1.548  -6.489   0.317  0.00  0.00    +0.000 A 
ENDBRANCH   1  12
BRANCH   1  15
ATOM     15  C   UNL     1       2.189  -4.900  -1.863  0.00  0.00    -0.011 A 
ATOM     16  C   UNL     1       3.301  -5.583  -1.408  0.00  0.00    +0.006 A 
ATOM     17  C   UNL     1       4.162  -6.181  -2.310  0.00  0.00    +0.000 A 
ATOM     18  C   UNL     1       3.915  -6.088  -3.667  0.00  0.00    +0.000 A 
ATOM     19  C   UNL     1       2.806  -5.401  -4.122  0.00  0.00    +0.000 A 
ATOM     20  C   UNL     1       1.943  -4.807  -3.220  0.00  0.00    +0.006 A 
ENDBRANCH   1  15
BRANCH   4  21
ATOM     21  N   UNL     1       1.932  -0.958   0.538  0.00  0.00    -0.225 N 
ATOM     22  C   UNL     1       1.164  -0.422   1.508  0.00  0.00    +0.213 C 
ATOM     23  O   UNL     1       0.101  -0.934   1.792  0.00  0.00    -0.276 OA
ATOM     24  H   UNL     1       2.782  -0.550   0.311  0.00  0.00    +0.173 HD
BRANCH  22  25
ATOM     25  C   UNL     1       1.626   0.812   2.239  0.00  0.00    +0.020 C 
BRANCH  25  37
ATOM     26  C   UNL     1      -0.629   1.621   2.593  0.00  0.00    -0.059 C 
ATOM     27  C   UNL     1      -1.675   1.933   3.666  0.00  0.00    +0.089 C 
ATOM     28  N   UNL     1      -1.160   2.983   4.556  0.00  0.00    -0.303 N 
ATOM     29  C   UNL     1       0.089   2.556   5.202  0.00  0.00    +0.089 C 
ATOM     30  C   UNL     1       1.134   2.244   4.129  0.00  0.00    -0.059 C 
ATOM     31  C   UNL     1      -2.108   3.343   5.498  0.00  0.00    +0.218 A 
ATOM     32  N   UNL     1      -1.804   3.262   6.785  0.00  0.00    -0.223 NA
ATOM     33  C   UNL     1      -2.685   3.603   7.711  0.00  0.00    +0.116 A 
ATOM     34  C   UNL     1      -3.942   4.040   7.321  0.00  0.00    +0.039 A 
ATOM     35  C   UNL     1      -4.228   4.107   5.966  0.00  0.00    +0.116 A 
ATOM     36  N   UNL     1      -3.300   3.756   5.092  0.00  0.00    -0.223 NA
ATOM     37  N   UNL     1       0.614   1.172   3.255  0.00  0.00    +0.387 N 
ATOM     38  H   UNL     1       0.407   0.345   3.827  0.00  0.00    -0.081 HD
ENDBRANCH  25  37
ENDBRANCH  22  25
ENDBRANCH   4  21
TORSDOF 5
