REMARK  Name = ZINC63571466
REMARK  4 active torsions:
REMARK  status: ('A' for Active; 'I' for Inactive)
REMARK    1  A    between atoms: C_1  and  C_2
REMARK    2  A    between atoms: C_5  and  C_8
REMARK    3  A    between atoms: N_25  and  C_26
REMARK    4  A    between atoms: C_29  and  C_33
REMARK                            x       y       z     vdW  Elec       q    Type
REMARK                         _______ _______ _______ _____ _____    ______ ____
ROOT
ATOM      1  C   UNL     1      -0.796  -4.600  -0.416  0.00  0.00    +0.134 C 
ATOM      2  C   UNL     1       0.717  -4.783  -0.581  0.00  0.00    +0.131 C 
ATOM      3  C   UNL     1       1.046  -6.174  -0.054  0.00  0.00    -0.035 C 
ATOM      4  C   UNL     1       1.661  -6.813  -1.042  0.00  0.00    -0.001 A 
ATOM      5  C   UNL     1       2.272  -8.151  -1.113  0.00  0.00    +0.010 A 
ATOM      6  C   UNL     1       2.817  -8.498  -2.309  0.00  0.00    +0.001 A 
ATOM      7  C   UNL     1       2.815  -7.660  -3.428  0.00  0.00    +0.002 A 
ATOM      8  C   UNL     1       2.280  -6.413  -3.451  0.00  0.00    +0.026 A 
ATOM      9  C   UNL     1       1.681  -5.933  -2.250  0.00  0.00    +0.043 A 
ATOM     10  N   UNL     1       1.117  -4.767  -1.989  0.00  0.00    -0.375 N 
ATOM     11  C   UNL     1       0.626  -6.642   1.318  0.00  0.00    +0.052 C 
ATOM     12  C   UNL     1      -0.880  -6.345   1.445  0.00  0.00    +0.114 C 
ATOM     13  N   UNL     1      -1.152  -4.988   0.957  0.00  0.00    -0.276 N 
ATOM     14  C   UNL     1      -1.732  -4.088   1.776  0.00  0.00    +0.307 C 
ATOM     15  O   UNL     1      -2.086  -3.010   1.341  0.00  0.00    -0.252 OA
ATOM     16  N   UNL     1      -1.919  -4.385   3.078  0.00  0.00    -0.268 N 
ATOM     17  H   UNL     1      -1.564  -5.210   3.444  0.00  0.00    +0.156 HD
ATOM     18  H   UNL     1       0.983  -4.033  -2.608  0.00  0.00    +0.160 HD
ENDROOT
BRANCH  16  19
ATOM     19  C   UNL     1      -2.626  -3.501   3.902  0.00  0.00    +0.053 A 
ATOM     20  C   UNL     1      -2.611  -2.138   3.636  0.00  0.00    +0.025 A 
ATOM     21  C   UNL     1      -3.310  -1.269   4.450  0.00  0.00    +0.005 A 
ATOM     22  C   UNL     1      -4.024  -1.754   5.531  0.00  0.00    -0.049 A 
ATOM     23  C   UNL     1      -4.041  -3.110   5.800  0.00  0.00    +0.025 A 
ATOM     24  C   UNL     1      -3.349  -3.986   4.985  0.00  0.00    +0.062 A 
ATOM     25 CL   UNL     1      -3.377  -5.690   5.318  0.00  0.00    -0.082 Cl
ATOM     26  C   UNL     1      -4.785  -0.802   6.417  0.00  0.00    +0.044 C 
ENDBRANCH  16  19
BRANCH   1  31
ATOM     27  C   UNL     1      -2.202   0.933  -1.314  0.00  0.00    +0.044 C 
ATOM     28  C   UNL     1      -1.835  -0.510  -1.080  0.00  0.00    -0.050 A 
ATOM     29  C   UNL     1      -0.720  -0.826  -0.327  0.00  0.00    +0.004 A 
ATOM     30  C   UNL     1      -0.384  -2.150  -0.112  0.00  0.00    +0.006 A 
ATOM     31  C   UNL     1      -1.163  -3.157  -0.650  0.00  0.00    -0.025 A 
ATOM     32  C   UNL     1      -2.279  -2.841  -1.402  0.00  0.00    +0.006 A 
ATOM     33  C   UNL     1      -2.618  -1.517  -1.613  0.00  0.00    +0.004 A 
ENDBRANCH   1  31
TORSDOF 2
