REMARK  Name = ZINC08868399
REMARK  4 active torsions:
REMARK  status: ('A' for Active; 'I' for Inactive)
REMARK    1  A    between atoms: C_3  and  C_6
REMARK    2  A    between atoms: C_7  and  C_25
REMARK    3  A    between atoms: C_7  and  C_29
REMARK    4  A    between atoms: N_15  and  C_18
REMARK                            x       y       z     vdW  Elec       q    Type
REMARK                         _______ _______ _______ _____ _____    ______ ____
ROOT
ATOM      1  C   UNL     1       1.643   5.850  -1.960  0.00  0.00    +0.113 C 
ATOM      2  C   UNL     1       1.499   8.021  -0.896  0.00  0.00    +0.264 C 
ATOM      3  C   UNL     1       2.309   7.406   0.209  0.00  0.00    +0.098 A 
ATOM      4  C   UNL     1       2.513   8.103   1.412  0.00  0.00    +0.262 A 
ATOM      5  O   UNL     1       2.029   9.210   1.570  0.00  0.00    -0.267 OA
ATOM      6  N   UNL     1       3.246   7.537   2.391  0.00  0.00    -0.274 N 
ATOM      7  H   UNL     1       3.392   8.030   3.249  0.00  0.00    +0.173 HD
ATOM      8  C   UNL     1       3.785   6.315   2.226  0.00  0.00    +0.335 A 
ATOM      9  O   UNL     1       4.446   5.826   3.122  0.00  0.00    -0.246 OA
ATOM     10  N   UNL     1       3.603   5.626   1.083  0.00  0.00    -0.250 N 
ATOM     11  C   UNL     1       2.859   6.166   0.062  0.00  0.00    +0.124 A 
ATOM     12  N   UNL     1       2.654   5.464  -1.100  0.00  0.00    -0.286 N 
ATOM     13  H   UNL     1       3.217   4.705  -1.316  0.00  0.00    +0.155 HD
ATOM     14  N   UNL     1       1.025   7.041  -1.935  0.00  0.00    -0.348 N 
ATOM     15  H   UNL     1       0.268   7.271  -2.589  0.00  0.00    +0.162 HD
ENDROOT
BRANCH  10  16
ATOM     16  C   UNL     1       4.175   4.356   0.935  0.00  0.00    +0.053 A 
ATOM     17  C   UNL     1       3.463   3.224   1.309  0.00  0.00    +0.028 A 
ATOM     18  C   UNL     1       4.026   1.973   1.156  0.00  0.00    +0.022 A 
ATOM     19  C   UNL     1       5.305   1.847   0.641  0.00  0.00    +0.041 A 
ATOM     20  C   UNL     1       6.019   2.973   0.273  0.00  0.00    +0.022 A 
ATOM     21  C   UNL     1       5.458   4.226   0.418  0.00  0.00    +0.028 A 
ATOM     22 CL   UNL     1       6.013   0.272   0.456  0.00  0.00    -0.084 Cl
ENDBRANCH  10  16
BRANCH   1  25
ATOM     23  C   UNL     1      -0.045   4.028  -4.798  0.00  0.00    +0.008 A 
ATOM     24  C   UNL     1       0.188   5.079  -3.943  0.00  0.00    +0.019 A 
ATOM     25  C   UNL     1       1.177   4.909  -2.991  0.00  0.00    +0.050 A 
ATOM     26  S   UNL     1       1.741   3.253  -3.339  0.00  0.00    -0.094 S 
ATOM     27  C   UNL     1       0.685   2.892  -4.665  0.00  0.00    +0.046 A 
ENDBRANCH   1  25
BRANCH   2  28
ATOM     28  C   UNL     1       2.338   9.094  -1.594  0.00  0.00    +0.426 C 
ATOM     29  F   UNL     1       1.576   9.702  -2.597  0.00  0.00    -0.167 F 
ATOM     30  F   UNL     1       2.733  10.058  -0.660  0.00  0.00    -0.167 F 
ATOM     31  F   UNL     1       3.471   8.504  -2.162  0.00  0.00    -0.167 F 
ENDBRANCH   2  28
BRANCH   2  32
ATOM     32  C   UNL     1       0.251   8.673  -0.297  0.00  0.00    +0.426 C 
ATOM     33  F   UNL     1      -0.320   7.809   0.644  0.00  0.00    -0.167 F 
ATOM     34  F   UNL     1       0.606   9.873   0.327  0.00  0.00    -0.167 F 
ATOM     35  F   UNL     1      -0.674   8.931  -1.314  0.00  0.00    -0.167 F 
ENDBRANCH   2  32
TORSDOF 4
