REMARK  Name = ZINC10509579
REMARK  9 active torsions:
REMARK  status: ('A' for Active; 'I' for Inactive)
REMARK    1  A    between atoms: C_4  and  C_7
REMARK    2  A    between atoms: C_7  and  C_8
REMARK    3  A    between atoms: C_8  and  O_9
REMARK    4  A    between atoms: O_9  and  C_10
REMARK    5  A    between atoms: C_15  and  C_16
REMARK    6  A    between atoms: N_18  and  C_19
REMARK    7  A    between atoms: C_19  and  N_21
REMARK    8  A    between atoms: N_21  and  C_22
REMARK    9  A    between atoms: C_27  and  C_28
REMARK                            x       y       z     vdW  Elec       q    Type
REMARK                         _______ _______ _______ _____ _____    ______ ____
ROOT
ATOM      1  C   UNL     1       8.130  -2.677  -1.691  0.00  0.00    +0.253 C 
ATOM      2  O   UNL     1       7.773  -2.216  -0.624  0.00  0.00    -0.270 OA
ATOM      3  N   UNL     1       9.171  -3.531  -1.742  0.00  0.00    -0.263 N 
ATOM      4  H   UNL     1       9.456  -3.898  -2.593  0.00  0.00    +0.157 HD
ENDROOT
BRANCH   1  10
ATOM      5  C   UNL     1       6.339  -1.413  -2.881  0.00  0.00    +0.133 A 
ATOM      6  C   UNL     1       5.678  -1.072  -4.051  0.00  0.00    +0.046 A 
ATOM      7  C   UNL     1       6.093  -1.596  -5.259  0.00  0.00    +0.004 A 
ATOM      8  C   UNL     1       7.164  -2.474  -5.311  0.00  0.00    +0.001 A 
ATOM      9  C   UNL     1       7.829  -2.828  -4.158  0.00  0.00    +0.017 A 
ATOM     10  C   UNL     1       7.423  -2.301  -2.929  0.00  0.00    +0.079 A 
BRANCH   5  11
ATOM     11  O   UNL     1       5.936  -0.895  -1.694  0.00  0.00    -0.491 OA
BRANCH  11  12
ATOM     12  C   UNL     1       4.824   0.003  -1.722  0.00  0.00    +0.233 C 
BRANCH  12  13
ATOM     13  C   UNL     1       4.518   0.480  -0.301  0.00  0.00    +0.076 C 
BRANCH  13  17
ATOM     14  C   UNL     1       1.195   3.164  -0.386  0.00  0.00    +0.000 A 
ATOM     15  C   UNL     1       2.482   3.652  -0.521  0.00  0.00    +0.000 A 
ATOM     16  C   UNL     1       3.557   2.783  -0.494  0.00  0.00    +0.004 A 
ATOM     17  C   UNL     1       3.345   1.427  -0.331  0.00  0.00    -0.044 A 
ATOM     18  C   UNL     1       2.059   0.939  -0.197  0.00  0.00    +0.004 A 
ATOM     19  C   UNL     1       0.984   1.807  -0.224  0.00  0.00    +0.000 A 
ENDBRANCH  13  17
ENDBRANCH  12  13
ENDBRANCH  11  12
ENDBRANCH   5  11
ENDBRANCH   1  10
BRANCH   3  20
ATOM     20  C   UNL     1       9.818  -3.874  -0.610  0.00  0.00    +0.141 C 
ATOM     21  S   UNL     1       9.316  -3.225   0.893  0.00  0.00    -0.018 S 
BRANCH  20  22
ATOM     22  N   UNL     1      10.859  -4.728  -0.661  0.00  0.00    -0.296 N 
ATOM     23  H   UNL     1      11.101  -5.149  -1.501  0.00  0.00    +0.154 HD
BRANCH  22  24
ATOM     24  C   UNL     1      11.589  -5.005   0.491  0.00  0.00    +0.045 A 
ATOM     25  C   UNL     1      10.932  -5.315   1.675  0.00  0.00    +0.024 A 
ATOM     26  C   UNL     1      11.658  -5.595   2.815  0.00  0.00    +0.002 A 
ATOM     27  C   UNL     1      13.043  -5.559   2.792  0.00  0.00    +0.001 A 
ATOM     28  C   UNL     1      13.711  -5.249   1.628  0.00  0.00    +0.015 A 
ATOM     29  C   UNL     1      12.991  -4.968   0.464  0.00  0.00    +0.058 A 
BRANCH  29  30
ATOM     30  C   UNL     1      13.700  -4.635  -0.785  0.00  0.00    +0.243 C 
ATOM     31  O   UNL     1      13.072  -4.293  -1.769  0.00  0.00    -0.270 OA
ATOM     32  N   UNL     1      15.045  -4.708  -0.837  0.00  0.00    -0.325 N 
ATOM     33  H   UNL     1      15.546  -4.981  -0.052  0.00  0.00    +0.145 HD
ATOM     34  H   UNL     1      15.512  -4.489  -1.659  0.00  0.00    +0.145 HD
ENDBRANCH  29  30
ENDBRANCH  22  24
ENDBRANCH  20  22
ENDBRANCH   3  20
TORSDOF 9
