REMARK  Name = ZINC15376731
REMARK  12 active torsions:
REMARK  status: ('A' for Active; 'I' for Inactive)
REMARK    1  A    between atoms: C_1  and  C_2
REMARK    2  A    between atoms: C_2  and  C_3
REMARK    3  A    between atoms: C_3  and  C_4
REMARK    4  A    between atoms: C_4  and  N_5
REMARK    5  A    between atoms: C_6  and  N_32
REMARK    6  A    between atoms: C_7  and  N_14
REMARK    7  A    between atoms: N_14  and  C_15
REMARK    8  A    between atoms: C_15  and  C_16
REMARK    9  A    between atoms: C_22  and  C_24
REMARK   10  A    between atoms: C_24  and  N_67
REMARK   11  A    between atoms: C_25  and  N_67
REMARK   12  A    between atoms: C_26  and  N_67
REMARK                            x       y       z     vdW  Elec       q    Type
REMARK                         _______ _______ _______ _____ _____    ______ ____
ROOT
ATOM      1  N   UNL     1       1.040   3.630  -0.063  0.00  0.00    -0.261 N 
ATOM      2  C   UNL     1      -0.115   4.106   0.448  0.00  0.00    +0.204 C 
ATOM      3  O   UNL     1      -1.081   3.378   0.545  0.00  0.00    -0.277 OA
ENDROOT
BRANCH   1   6
ATOM      4  N   UNL     1       2.095   0.110  -0.035  0.00  0.00    -0.280 N 
ATOM      5  C   UNL     1       2.006   1.438   0.312  0.00  0.00    +0.127 A 
ATOM      6  C   UNL     1       1.154   2.263  -0.395  0.00  0.00    +0.140 A 
ATOM      7  C   UNL     1       0.402   1.718  -1.452  0.00  0.00    +0.277 A 
ATOM      8  O   UNL     1      -0.359   2.424  -2.092  0.00  0.00    -0.266 OA
ATOM      9  N   UNL     1       0.526   0.410  -1.750  0.00  0.00    -0.273 N 
ATOM     10  H   UNL     1      -0.008   0.021  -2.501  0.00  0.00    +0.173 HD
ATOM     11  C   UNL     1       1.361  -0.379  -1.051  0.00  0.00    +0.331 A 
ATOM     12  O   UNL     1       1.455  -1.556  -1.342  0.00  0.00    -0.246 OA
BRANCH   5  13
ATOM     13  N   UNL     1       2.751   1.937   1.353  0.00  0.00    -0.343 N 
ATOM     14  H   UNL     1       3.287   1.337   1.896  0.00  0.00    +0.144 HD
ATOM     15  H   UNL     1       2.742   2.887   1.545  0.00  0.00    +0.144 HD
ENDBRANCH   5  13
BRANCH   4  16
ATOM     16  C   UNL     1       2.995  -0.777   0.706  0.00  0.00    +0.128 C 
BRANCH  16  17
ATOM     17  C   UNL     1       2.241  -1.398   1.885  0.00  0.00    +0.021 C 
BRANCH  17  19
ATOM     18  C   UNL     1       2.428  -2.946   3.837  0.00  0.00    +0.004 C 
ATOM     19  C   UNL     1       3.181  -2.325   2.659  0.00  0.00    -0.002 C 
ENDBRANCH  17  19
ENDBRANCH  16  17
ENDBRANCH   4  16
ENDBRANCH   1   6
BRANCH   1  20
ATOM     20  C   UNL     1       2.175   4.532  -0.273  0.00  0.00    +0.149 C 
BRANCH  20  21
ATOM     21  C   UNL     1       2.193   4.992  -1.708  0.00  0.00    -0.030 A 
ATOM     22  C   UNL     1       2.802   4.214  -2.675  0.00  0.00    +0.005 A 
ATOM     23  C   UNL     1       2.814   4.633  -3.992  0.00  0.00    +0.000 A 
ATOM     24  C   UNL     1       2.226   5.835  -4.340  0.00  0.00    +0.000 A 
ATOM     25  C   UNL     1       1.621   6.615  -3.372  0.00  0.00    +0.000 A 
ATOM     26  C   UNL     1       1.605   6.193  -2.056  0.00  0.00    +0.005 A 
ENDBRANCH  20  21
ENDBRANCH   1  20
BRANCH   2  27
ATOM     27  C   UNL     1      -0.205   5.541   0.897  0.00  0.00    +0.019 C 
BRANCH  27  29
ATOM     28  C   UNL     1      -2.547   5.725   0.311  0.00  0.00    -0.095 C 
ATOM     29  N   UNL     1      -1.566   5.795   1.415  0.00  0.00    +0.385 N 
ATOM     30  H   UNL     1      -1.797   5.077   2.111  0.00  0.00    -0.081 HD
BRANCH  29  31
ATOM     31  C   UNL     1      -1.623   7.124   2.058  0.00  0.00    -0.068 C 
ATOM     32  C   UNL     1      -0.652   7.144   3.240  0.00  0.00    -0.015 C 
ATOM     33  C   UNL     1      -0.718   8.508   3.931  0.00  0.00    -0.002 C 
ATOM     34  C   UNL     1      -2.140   8.757   4.435  0.00  0.00    -0.000 C 
ATOM     35  C   UNL     1      -3.111   8.736   3.252  0.00  0.00    -0.002 C 
ATOM     36  C   UNL     1      -3.046   7.372   2.562  0.00  0.00    -0.015 C 
ENDBRANCH  29  31
ENDBRANCH  27  29
ENDBRANCH   2  27
TORSDOF 10
