REMARK  Name = ZINC13101405
REMARK  2 active torsions:
REMARK  status: ('A' for Active; 'I' for Inactive)
REMARK    1  A    between atoms: C_1  and  C_2
REMARK    2  A    between atoms: N_7  and  C_8
REMARK                            x       y       z     vdW  Elec       q    Type
REMARK                         _______ _______ _______ _____ _____    ______ ____
ROOT
ATOM      1  C   UNL     1      -1.419   4.766   0.045  0.00  0.00    +0.065 C 
ATOM      2  C   UNL     1      -0.602   3.500   0.029  0.00  0.00    +0.034 A 
ATOM      3  C   UNL     1       0.796   3.429   0.014  0.00  0.00    +0.070 A 
ATOM      4  C   UNL     1       1.143   2.125   0.003  0.00  0.00    +0.156 A 
ATOM      5  N   UNL     1       2.401   1.523  -0.014  0.00  0.00    -0.211 NA
ATOM      6  C   UNL     1       2.444   0.203   0.435  0.00  0.00    +0.139 A 
ATOM      7  N   UNL     1       3.501  -0.275   1.032  0.00  0.00    -0.365 N 
ATOM      8  C   UNL     1       1.244  -0.635   0.208  0.00  0.00    +0.042 A 
ATOM      9  C   UNL     1       1.319  -2.024   0.199  0.00  0.00    +0.013 A 
ATOM     10  C   UNL     1       0.176  -2.769  -0.005  0.00  0.00    +0.001 A 
ATOM     11  C   UNL     1      -1.045  -2.143  -0.202  0.00  0.00    +0.002 A 
ATOM     12  C   UNL     1      -1.135  -0.764  -0.199  0.00  0.00    +0.028 A 
ATOM     13  C   UNL     1       0.002  -0.004   0.002  0.00  0.00    +0.076 A 
ATOM     14  N   UNL     1      -0.017   1.388   0.010  0.00  0.00    -0.236 N 
ATOM     15  N   UNL     1      -1.084   2.278   0.030  0.00  0.00    -0.296 N 
ATOM     16  H   UNL     1      -2.171   2.115   0.046  0.00  0.00    +0.187 HD
ATOM     17  H   UNL     1       3.513  -1.319   1.378  0.00  0.00    +0.161 HD
ENDROOT
BRANCH   7  18
ATOM     18  C   UNL     1       4.673   0.579   1.242  0.00  0.00    +0.103 C 
ATOM     19  C   UNL     1       4.969   0.694   2.747  0.00  0.00    +0.049 C 
ATOM     20  C   UNL     1       6.370   1.317   2.963  0.00  0.00    +0.168 C 
ATOM     21  S   UNL     1       7.275   0.813   1.443  0.00  0.00    -0.029 S 
ATOM     22  O   UNL     1       7.638   1.977   0.714  0.00  0.00    -0.174 OA
ATOM     23  O   UNL     1       8.275  -0.134   1.793  0.00  0.00    -0.174 OA
ATOM     24  C   UNL     1       5.915  -0.053   0.551  0.00  0.00    +0.190 C 
ENDBRANCH   7  18
TORSDOF 1
