REMARK  Name = ZINC51429614
REMARK  8 active torsions:
REMARK  status: ('A' for Active; 'I' for Inactive)
REMARK    1  A    between atoms: C_1  and  C_2
REMARK    2  A    between atoms: N_16  and  C_17
REMARK    3  A    between atoms: C_17  and  C_18
REMARK    4  A    between atoms: C_18  and  C_20
REMARK    5  A    between atoms: C_18  and  O_31
REMARK    6  A    between atoms: C_20  and  O_21
REMARK    7  A    between atoms: O_21  and  C_22
REMARK    8  A    between atoms: C_26  and  N_28
REMARK                            x       y       z     vdW  Elec       q    Type
REMARK                         _______ _______ _______ _____ _____    ______ ____
ROOT
ATOM      1  C   UNL     1      -0.019   1.526   0.010  0.00  0.00    -0.007 C 
ATOM      2  C   UNL     1       0.002  -0.004   0.002  0.00  0.00    -0.024 C 
ATOM      3  C   UNL     1      -1.413  -0.530   0.021  0.00  0.00    +0.006 A 
ATOM      4  C   UNL     1      -1.799  -1.575   0.790  0.00  0.00    -0.022 A 
ATOM      5  C   UNL     1      -3.208  -1.786   0.550  0.00  0.00    +0.003 A 
ATOM      6  C   UNL     1      -4.133  -2.705   1.055  0.00  0.00    +0.010 A 
ATOM      7  C   UNL     1      -5.421  -2.610   0.591  0.00  0.00    +0.001 A 
ATOM      8  C   UNL     1      -5.801  -1.652  -0.335  0.00  0.00    +0.002 A 
ATOM      9  C   UNL     1      -4.908  -0.730  -0.852  0.00  0.00    +0.026 A 
ATOM     10  C   UNL     1      -3.593  -0.803  -0.399  0.00  0.00    +0.047 A 
ATOM     11  N   UNL     1      -2.482  -0.065  -0.695  0.00  0.00    -0.359 N 
ATOM     12  H   UNL     1      -2.455   0.678  -1.318  0.00  0.00    +0.166 HD
ATOM     13  C   UNL     1      -0.857  -2.323   1.700  0.00  0.00    +0.019 C 
ATOM     14  C   UNL     1       0.578  -1.956   1.295  0.00  0.00    -0.073 C 
ATOM     15  N   UNL     1       0.706  -0.495   1.197  0.00  0.00    +0.387 N 
ATOM     16  H   UNL     1       0.304  -0.070   2.019  0.00  0.00    -0.081 HD
ENDROOT
BRANCH  15  17
ATOM     17  C   UNL     1       2.126  -0.132   1.109  0.00  0.00    -0.043 C 
BRANCH  17  18
ATOM     18  C   UNL     1       2.836  -0.530   2.405  0.00  0.00    +0.135 C 
BRANCH  18  19
ATOM     19  O   UNL     1       2.236   0.155   3.506  0.00  0.00    -0.390 OA
ATOM     20  H   UNL     1       2.281   1.119   3.441  0.00  0.00    +0.210 HD
ENDBRANCH  18  19
BRANCH  18  21
ATOM     21  C   UNL     1       4.316  -0.152   2.313  0.00  0.00    +0.258 C 
BRANCH  21  22
ATOM     22  O   UNL     1       5.002  -0.627   3.473  0.00  0.00    -0.489 OA
BRANCH  22  23
ATOM     23  C   UNL     1       6.334  -0.373   3.549  0.00  0.00    +0.123 A 
ATOM     24  C   UNL     1       6.968   0.326   2.531  0.00  0.00    +0.046 A 
ATOM     25  C   UNL     1       8.322   0.584   2.611  0.00  0.00    +0.006 A 
ATOM     26  C   UNL     1       9.047   0.147   3.705  0.00  0.00    +0.033 A 
ATOM     27  C   UNL     1       8.418  -0.550   4.720  0.00  0.00    +0.130 A 
ATOM     28  C   UNL     1       7.063  -0.806   4.647  0.00  0.00    +0.078 A 
BRANCH  27  29
ATOM     29  N   UNL     1       9.197  -1.017   5.889  0.00  0.00    +0.057 N 
ATOM     30  O   UNL     1      10.383  -0.789   5.955  0.00  0.00    -0.126 OA
ATOM     31  O   UNL     1       8.648  -1.626   6.777  0.00  0.00    -0.126 OA
ENDBRANCH  27  29
ENDBRANCH  22  23
ENDBRANCH  21  22
ENDBRANCH  18  21
ENDBRANCH  17  18
ENDBRANCH  15  17
TORSDOF 7
