REMARK  Name = ZINC07072142
REMARK  7 active torsions:
REMARK  status: ('A' for Active; 'I' for Inactive)
REMARK    1  A    between atoms: C_1  and  C_2
REMARK    2  A    between atoms: C_2  and  C_3
REMARK    3  A    between atoms: C_2  and  C_4
REMARK    4  A    between atoms: C_4  and  C_6
REMARK    5  A    between atoms: C_4  and  S_12
REMARK    6  A    between atoms: S_12  and  C_13
REMARK    7  A    between atoms: N_17  and  C_18
REMARK                            x       y       z     vdW  Elec       q    Type
REMARK                         _______ _______ _______ _____ _____    ______ ____
ROOT
ATOM      1  C   UNL     1      -0.960  -2.768   1.226  0.00  0.00    +0.198 A 
ATOM      2  N   UNL     1      -1.914  -1.955   1.609  0.00  0.00    -0.120 NA
ATOM      3  N   UNL     1      -3.066  -2.717   1.843  0.00  0.00    -0.112 NA
ATOM      4  C   UNL     1      -2.781  -3.971   1.595  0.00  0.00    +0.225 A 
ATOM      5  N   UNL     1      -1.472  -4.038   1.202  0.00  0.00    -0.259 N 
ATOM      6  N   UNL     1      -3.655  -5.045   1.708  0.00  0.00    -0.299 N 
ATOM      7  C   UNL     1      -3.173  -6.423   1.546  0.00  0.00    +0.108 C 
ATOM      8  C   UNL     1      -3.589  -7.239   2.774  0.00  0.00    +0.019 C 
ATOM      9  C   UNL     1      -5.103  -7.121   2.971  0.00  0.00    +0.003 C 
ATOM     10  C   UNL     1      -5.475  -5.657   3.214  0.00  0.00    +0.019 C 
ATOM     11  C   UNL     1      -5.079  -4.824   1.997  0.00  0.00    +0.108 C 
ENDROOT
BRANCH   5  12
ATOM     12  C   UNL     1      -0.777  -5.201   0.841  0.00  0.00    +0.052 A 
ATOM     13  C   UNL     1      -1.045  -5.824  -0.371  0.00  0.00    +0.026 A 
ATOM     14  C   UNL     1      -0.359  -6.969  -0.724  0.00  0.00    +0.002 A 
ATOM     15  C   UNL     1       0.595  -7.496   0.128  0.00  0.00    +0.000 A 
ATOM     16  C   UNL     1       0.864  -6.878   1.335  0.00  0.00    +0.002 A 
ATOM     17  C   UNL     1       0.185  -5.729   1.691  0.00  0.00    +0.026 A 
ENDBRANCH   5  12
BRANCH   1  18
ATOM     18  S   UNL     1       0.689  -2.308   0.808  0.00  0.00    -0.073 S 
BRANCH  18  19
ATOM     19  C   UNL     1       0.716  -0.510   1.046  0.00  0.00    +0.143 C 
BRANCH  19  20
ATOM     20  C   UNL     1       2.117   0.004   0.838  0.00  0.00    +0.234 C 
ATOM     21  O   UNL     1       2.893  -0.618   0.143  0.00  0.00    -0.274 OA
ATOM     22  N   UNL     1       2.508   1.153   1.423  0.00  0.00    -0.239 N 
ATOM     23  C   UNL     1       3.761   1.612   1.236  0.00  0.00    +0.303 C 
ATOM     24  O   UNL     1       4.539   0.989   0.541  0.00  0.00    -0.253 OA
ATOM     25  N   UNL     1       4.152   2.761   1.822  0.00  0.00    -0.313 N 
ATOM     26  H   UNL     1       1.887   1.650   1.978  0.00  0.00    +0.159 HD
ATOM     27  H   UNL     1       3.531   3.258   2.377  0.00  0.00    +0.146 HD
ATOM     28  H   UNL     1       5.054   3.092   1.688  0.00  0.00    +0.146 HD
ENDBRANCH  19  20
BRANCH  19  30
ATOM     29  C   UNL     1      -0.202   1.669   0.238  0.00  0.00    +0.009 C 
ATOM     30  C   UNL     1      -0.225   0.152   0.037  0.00  0.00    +0.005 C 
ATOM     31  C   UNL     1       0.234  -0.181  -1.384  0.00  0.00    +0.009 C 
ENDBRANCH  19  30
ENDBRANCH  18  19
ENDBRANCH   1  18
TORSDOF 5
