REMARK  Name = ZINC60198106
REMARK  12 active torsions:
REMARK  status: ('A' for Active; 'I' for Inactive)
REMARK    1  A    between atoms: C_1  and  C_2
REMARK    2  A    between atoms: C_2  and  C_3
REMARK    3  A    between atoms: C_2  and  C_4
REMARK    4  A    between atoms: C_2  and  O_5
REMARK    5  A    between atoms: O_5  and  C_6
REMARK    6  A    between atoms: N_8  and  C_9
REMARK    7  A    between atoms: C_9  and  C_10
REMARK    8  A    between atoms: N_16  and  C_17
REMARK    9  A    between atoms: C_17  and  C_18
REMARK   10  A    between atoms: N_20  and  C_21
REMARK   11  A    between atoms: C_21  and  C_23
REMARK   12  A    between atoms: C_21  and  C_30
REMARK                            x       y       z     vdW  Elec       q    Type
REMARK                         _______ _______ _______ _____ _____    ______ ____
ROOT
ATOM      1  C   UNL     1       3.044  -2.331  -3.942  0.00  0.00    +0.019 C 
ENDROOT
BRANCH   1   7
ATOM      2  C   UNL     1       4.662  -0.563  -3.974  0.00  0.00    -0.050 C 
ATOM      3  C   UNL     1       6.157  -0.236  -3.970  0.00  0.00    -0.014 C 
ATOM      4  C   UNL     1       6.801  -0.797  -5.241  0.00  0.00    -0.003 C 
ATOM      5  C   UNL     1       6.537  -2.304  -5.313  0.00  0.00    -0.019 C 
ATOM      6  C   UNL     1       5.028  -2.554  -5.268  0.00  0.00    -0.078 C 
ATOM      7  N   UNL     1       4.477  -2.019  -4.017  0.00  0.00    +0.388 N 
ATOM      8  H   UNL     1       4.952  -2.440  -3.233  0.00  0.00    -0.081 HD
BRANCH   2   9
ATOM      9  C   UNL     1       4.015  -0.004  -2.706  0.00  0.00    +0.092 C 
BRANCH   9  12
ATOM     10  C   UNL     1       4.207  -0.301  -0.295  0.00  0.00    +0.401 C 
ATOM     11  O   UNL     1       3.439   0.630  -0.149  0.00  0.00    -0.226 OA
ATOM     12  N   UNL     1       4.558  -0.696  -1.534  0.00  0.00    -0.283 N 
ATOM     13  H   UNL     1       5.171  -1.439  -1.651  0.00  0.00    +0.152 HD
BRANCH  10  14
ATOM     14  O   UNL     1       4.706  -0.937   0.782  0.00  0.00    -0.445 OA
BRANCH  14  16
ATOM     15  C   UNL     1       2.770  -0.586   2.185  0.00  0.00    +0.055 C 
ATOM     16  C   UNL     1       4.291  -0.465   2.065  0.00  0.00    +0.107 C 
ATOM     17  C   UNL     1       4.700   1.001   2.226  0.00  0.00    +0.055 C 
ATOM     18  C   UNL     1       4.957  -1.304   3.157  0.00  0.00    +0.055 C 
ENDBRANCH  14  16
ENDBRANCH  10  14
ENDBRANCH   9  12
ENDBRANCH   2   9
ENDBRANCH   1   7
BRANCH   1  19
ATOM     19  C   UNL     1       2.860  -3.821  -3.811  0.00  0.00    +0.197 C 
ATOM     20  O   UNL     1       3.828  -4.551  -3.783  0.00  0.00    -0.278 OA
ATOM     21  N   UNL     1       1.620  -4.342  -3.725  0.00  0.00    -0.306 N 
ATOM     22  H   UNL     1       0.846  -3.758  -3.748  0.00  0.00    +0.150 HD
BRANCH  21  23
ATOM     23  C   UNL     1       1.442  -5.791  -3.598  0.00  0.00    +0.140 C 
BRANCH  23  24
ATOM     24  C   UNL     1       0.124  -6.077  -2.926  0.00  0.00    -0.022 A 
ATOM     25  C   UNL     1      -0.994  -5.330  -3.250  0.00  0.00    +0.008 A 
ATOM     26  C   UNL     1      -2.203  -5.592  -2.635  0.00  0.00    +0.038 A 
ATOM     27  C   UNL     1      -2.296  -6.604  -1.694  0.00  0.00    +0.123 A 
ATOM     28  C   UNL     1      -1.176  -7.352  -1.371  0.00  0.00    +0.038 A 
ATOM     29  C   UNL     1       0.031  -7.091  -1.991  0.00  0.00    +0.008 A 
ATOM     30  F   UNL     1      -3.478  -6.861  -1.092  0.00  0.00    -0.205 F 
ENDBRANCH  23  24
BRANCH  23  31
ATOM     31  C   UNL     1       1.456  -6.421  -4.967  0.00  0.00    +0.014 A 
ATOM     32  C   UNL     1       2.023  -7.586  -5.365  0.00  0.00    +0.013 A 
ATOM     33  C   UNL     1       1.907  -7.971  -6.687  0.00  0.00    +0.008 A 
ATOM     34  C   UNL     1       1.229  -7.171  -7.547  0.00  0.00    +0.045 A 
ATOM     35  S   UNL     1       0.723  -5.830  -6.484  0.00  0.00    -0.099 S 
ENDBRANCH  23  31
ENDBRANCH  21  23
ENDBRANCH   1  19
TORSDOF 9
