REMARK  Name = ZINC40544801
REMARK  5 active torsions:
REMARK  status: ('A' for Active; 'I' for Inactive)
REMARK    1  A    between atoms: C_1  and  C_2
REMARK    2  A    between atoms: C_7  and  C_8
REMARK    3  A    between atoms: C_13  and  C_27
REMARK    4  A    between atoms: C_17  and  C_26
REMARK    5  A    between atoms: N_19  and  C_20
REMARK                            x       y       z     vdW  Elec       q    Type
REMARK                         _______ _______ _______ _____ _____    ______ ____
ROOT
ATOM      1  C   UNL     1      -0.018   1.503   0.010  0.00  0.00    +0.044 C 
ATOM      2  C   UNL     1       0.002  -0.004   0.002  0.00  0.00    -0.046 A 
ATOM      3  C   UNL     1       0.005  -0.675  -1.214  0.00  0.00    +0.030 A 
ATOM      4  C   UNL     1       0.025  -2.065  -1.171  0.00  0.00    +0.073 A 
ATOM      5  C   UNL     1       0.041  -2.758   0.047  0.00  0.00    +0.145 A 
ATOM      6  C   UNL     1       0.038  -2.071   1.257  0.00  0.00    +0.051 A 
ATOM      7  C   UNL     1       0.023  -0.683   1.202  0.00  0.00    -0.044 A 
ATOM      8  C   UNL     1       0.023   0.101   2.488  0.00  0.00    +0.044 C 
ATOM      9  O   UNL     1       0.059  -4.088  -0.172  0.00  0.00    -0.459 OA
ATOM     10  C   UNL     1       0.050  -4.310  -1.585  0.00  0.00    +0.232 C 
ATOM     11  N   UNL     1       0.033  -2.984  -2.216  0.00  0.00    -0.297 N 
ATOM     12  C   UNL     1       1.278  -5.072  -2.004  0.00  0.00    +0.087 C 
ATOM     13  C   UNL     1       1.234  -6.316  -2.407  0.00  0.00    +0.106 C 
ATOM     14  O   UNL     1       0.100  -7.051  -2.497  0.00  0.00    -0.442 OA
ATOM     15  C   UNL     1      -1.083  -6.395  -2.411  0.00  0.00    +0.232 A 
ATOM     16  C   UNL     1      -1.167  -5.095  -1.987  0.00  0.00    +0.103 A 
ATOM     17  C   UNL     1      -2.502  -4.720  -2.014  0.00  0.00    +0.073 A 
ATOM     18  N   UNL     1      -3.209  -5.742  -2.434  0.00  0.00    -0.168 NA
ATOM     19  N   UNL     1      -2.336  -6.811  -2.691  0.00  0.00    -0.200 N 
ATOM     20  C   UNL     1      -3.047  -3.369  -1.627  0.00  0.00    +0.068 C 
ATOM     21  C   UNL     1       2.532  -6.975  -2.799  0.00  0.00    +0.086 C 
ATOM     22  H   UNL     1       0.028  -2.789  -3.166  0.00  0.00    +0.151 HD
ENDROOT
BRANCH  19  23
ATOM     23  C   UNL     1      -2.700  -8.083  -3.153  0.00  0.00    +0.069 A 
ATOM     24  C   UNL     1      -1.860  -8.777  -4.013  0.00  0.00    +0.028 A 
ATOM     25  C   UNL     1      -2.222 -10.031  -4.468  0.00  0.00    +0.002 A 
ATOM     26  C   UNL     1      -3.419 -10.594  -4.066  0.00  0.00    +0.000 A 
ATOM     27  C   UNL     1      -4.258  -9.905  -3.210  0.00  0.00    +0.002 A 
ATOM     28  C   UNL     1      -3.899  -8.654  -2.747  0.00  0.00    +0.028 A 
ENDBRANCH  19  23
TORSDOF 1
