REMARK  Name = ZINC27498049
REMARK  10 active torsions:
REMARK  status: ('A' for Active; 'I' for Inactive)
REMARK    1  A    between atoms: C_1  and  C_2
REMARK    2  A    between atoms: C_2  and  C_3
REMARK    3  A    between atoms: C_2  and  C_4
REMARK    4  A    between atoms: C_4  and  C_6
REMARK    5  A    between atoms: C_4  and  N_23
REMARK    6  A    between atoms: N_8  and  C_9
REMARK    7  A    between atoms: C_9  and  C_10
REMARK    8  A    between atoms: C_10  and  C_12
REMARK    9  A    between atoms: C_10  and  N_17
REMARK   10  A    between atoms: C_24  and  C_26
REMARK                            x       y       z     vdW  Elec       q    Type
REMARK                         _______ _______ _______ _____ _____    ______ ____
ROOT
ATOM      1  C   UNL     1      -0.115  -0.175  -0.646  0.00  0.00    +0.234 C 
ATOM      2  O   UNL     1      -0.164  -1.382  -0.537  0.00  0.00    -0.274 OA
ATOM      3  N   UNL     1      -1.230   0.563  -0.477  0.00  0.00    -0.315 N 
ATOM      4  H   UNL     1      -1.207   1.646  -0.665  0.00  0.00    +0.149 HD
ENDROOT
BRANCH   1   5
ATOM      5  C   UNL     1       1.192   0.500  -0.976  0.00  0.00    +0.162 C 
BRANCH   5   6
ATOM      6  N   UNL     1       2.202  -0.516  -1.282  0.00  0.00    -0.300 N 
ATOM      7  C   UNL     1       3.253  -0.206  -2.067  0.00  0.00    +0.250 C 
ATOM      8  O   UNL     1       3.363   0.917  -2.520  0.00  0.00    -0.270 OA
ATOM      9  H   UNL     1       2.102  -1.532  -0.873  0.00  0.00    +0.150 HD
BRANCH   7  10
ATOM     10  C   UNL     1       4.270  -1.229  -2.375  0.00  0.00    +0.107 A 
ATOM     11  C   UNL     1       4.122  -2.053  -3.496  0.00  0.00    +0.138 A 
ATOM     12  C   UNL     1       5.082  -3.005  -3.781  0.00  0.00    +0.039 A 
ATOM     13  C   UNL     1       6.182  -3.152  -2.956  0.00  0.00    +0.006 A 
ATOM     14  C   UNL     1       6.334  -2.345  -1.842  0.00  0.00    +0.039 A 
ATOM     15  C   UNL     1       5.386  -1.385  -1.546  0.00  0.00    +0.138 A 
ATOM     16  F   UNL     1       5.536  -0.598  -0.458  0.00  0.00    -0.205 F 
ATOM     17  F   UNL     1       3.045  -1.915  -4.300  0.00  0.00    -0.205 F 
ENDBRANCH   7  10
ENDBRANCH   5   6
BRANCH   5  19
ATOM     18  C   UNL     1       1.852   0.417   1.432  0.00  0.00    +0.009 C 
ATOM     19  C   UNL     1       1.653   1.332   0.223  0.00  0.00    +0.012 C 
ATOM     20  C   UNL     1       2.974   2.025  -0.116  0.00  0.00    +0.009 C 
ENDBRANCH   5  19
ENDBRANCH   1   5
BRANCH   3  21
ATOM     21  C   UNL     1      -2.474  -0.079  -0.044  0.00  0.00    +0.096 C 
BRANCH  21  22
ATOM     22  C   UNL     1      -3.607   0.950  -0.051  0.00  0.00    +0.016 C 
BRANCH  22  23
ATOM     23  N   UNL     1      -3.693   1.575  -1.377  0.00  0.00    +0.387 N 
ATOM     24  C   UNL     1      -4.706   2.638  -1.393  0.00  0.00    -0.078 C 
ATOM     25  C   UNL     1      -4.666   3.361  -2.741  0.00  0.00    -0.019 C 
ATOM     26  C   UNL     1      -4.939   2.355  -3.863  0.00  0.00    -0.004 C 
ATOM     27  C   UNL     1      -3.899   1.233  -3.794  0.00  0.00    -0.019 C 
ATOM     28  C   UNL     1      -3.961   0.571  -2.415  0.00  0.00    -0.078 C 
ATOM     29  H   UNL     1      -2.720   2.035  -1.599  0.00  0.00    -0.081 HD
ENDBRANCH  22  23
BRANCH  22  30
ATOM     30  C   UNL     1      -4.911   0.263   0.267  0.00  0.00    +0.093 A 
ATOM     31  C   UNL     1      -5.667   0.475   1.359  0.00  0.00    +0.043 A 
ATOM     32  C   UNL     1      -6.791  -0.375   1.250  0.00  0.00    +0.041 A 
ATOM     33  C   UNL     1      -6.655  -1.056   0.098  0.00  0.00    +0.195 A 
ATOM     34  O   UNL     1      -5.518  -0.661  -0.496  0.00  0.00    -0.469 OA
ENDBRANCH  22  30
ENDBRANCH  21  22
ENDBRANCH   3  21
TORSDOF 8
