REMARK  Name = ZINC39494275
REMARK  10 active torsions:
REMARK  status: ('A' for Active; 'I' for Inactive)
REMARK    1  A    between atoms: C_4  and  C_7
REMARK    2  A    between atoms: C_7  and  C_9
REMARK    3  A    between atoms: C_7  and  N_29
REMARK    4  A    between atoms: C_9  and  C_11
REMARK    5  A    between atoms: C_9  and  S_20
REMARK    6  A    between atoms: C_11  and  C_13
REMARK    7  A    between atoms: C_18  and  O_19
REMARK    8  A    between atoms: S_20  and  C_23
REMARK    9  A    between atoms: C_30  and  C_32
REMARK   10  A    between atoms: C_37  and  O_38
REMARK                            x       y       z     vdW  Elec       q    Type
REMARK                         _______ _______ _______ _____ _____    ______ ____
ROOT
ATOM      1  C   UNL     1       4.046  -1.106  -1.475  0.00  0.00    +0.231 C 
ENDROOT
BRANCH   1   2
ATOM      2  S   UNL     1       2.851  -2.166  -2.334  0.00  0.00    +0.009 S 
ATOM      3  O   UNL     1       2.873  -3.475  -1.783  0.00  0.00    -0.169 OA
ATOM      4  O   UNL     1       1.622  -1.474  -2.509  0.00  0.00    -0.169 OA
BRANCH   2   5
ATOM      5  C   UNL     1       3.499  -2.352  -3.962  0.00  0.00    +0.089 A 
ATOM      6  C   UNL     1       3.150  -1.451  -4.951  0.00  0.00    +0.027 A 
ATOM      7  C   UNL     1       3.659  -1.597  -6.229  0.00  0.00    +0.002 A 
ATOM      8  C   UNL     1       4.515  -2.643  -6.516  0.00  0.00    +0.000 A 
ATOM      9  C   UNL     1       4.864  -3.543  -5.527  0.00  0.00    +0.002 A 
ATOM     10  C   UNL     1       4.359  -3.394  -4.248  0.00  0.00    +0.027 A 
ENDBRANCH   2   5
ENDBRANCH   1   2
BRANCH   1  11
ATOM     11  C   UNL     1       5.425  -1.702  -1.596  0.00  0.00    +0.193 C 
ATOM     12  O   UNL     1       5.557  -2.901  -1.732  0.00  0.00    -0.290 OA
BRANCH  11  13
ATOM     13  C   UNL     1       6.607  -0.834  -1.549  0.00  0.00    +0.061 A 
ATOM     14  C   UNL     1       6.468   0.532  -1.277  0.00  0.00    +0.015 A 
ATOM     15  C   UNL     1       7.582   1.340  -1.234  0.00  0.00    +0.001 A 
ATOM     16  C   UNL     1       8.842   0.808  -1.461  0.00  0.00    +0.004 A 
ATOM     17  C   UNL     1       8.995  -0.537  -1.731  0.00  0.00    +0.046 A 
ATOM     18  C   UNL     1       7.887  -1.369  -1.772  0.00  0.00    +0.127 A 
BRANCH  18  19
ATOM     19  O   UNL     1       8.037  -2.692  -2.032  0.00  0.00    -0.506 OA
ATOM     20  H   UNL     1       7.996  -2.915  -2.972  0.00  0.00    +0.292 HD
ENDBRANCH  18  19
ENDBRANCH  11  13
ENDBRANCH   1  11
BRANCH   1  21
ATOM     21  C   UNL     1       3.665  -1.000   0.003  0.00  0.00    +0.136 C 
BRANCH  21  25
ATOM     22  C   UNL     1      -0.334   0.464   0.337  0.00  0.00    +0.000 A 
ATOM     23  C   UNL     1       0.734   1.323   0.517  0.00  0.00    +0.000 A 
ATOM     24  C   UNL     1       2.028   0.850   0.409  0.00  0.00    +0.005 A 
ATOM     25  C   UNL     1       2.254  -0.484   0.122  0.00  0.00    -0.025 A 
ATOM     26  C   UNL     1       1.186  -1.343  -0.058  0.00  0.00    +0.005 A 
ATOM     27  C   UNL     1      -0.108  -0.869   0.049  0.00  0.00    +0.000 A 
ENDBRANCH  21  25
BRANCH  21  28
ATOM     28  N   UNL     1       3.755  -2.323   0.626  0.00  0.00    -0.302 N 
ATOM     29  C   UNL     1       3.884  -2.430   1.964  0.00  0.00    +0.248 C 
ATOM     30  O   UNL     1       3.925  -1.429   2.653  0.00  0.00    -0.270 OA
ATOM     31  H   UNL     1       3.721  -3.121   0.077  0.00  0.00    +0.150 HD
BRANCH  29  32
ATOM     32  C   UNL     1       3.974  -3.762   2.592  0.00  0.00    +0.078 A 
ATOM     33  C   UNL     1       3.933  -4.915   1.803  0.00  0.00    +0.017 A 
ATOM     34  C   UNL     1       4.018  -6.156   2.396  0.00  0.00    +0.001 A 
ATOM     35  C   UNL     1       4.145  -6.267   3.771  0.00  0.00    +0.004 A 
ATOM     36  C   UNL     1       4.188  -5.136   4.562  0.00  0.00    +0.046 A 
ATOM     37  C   UNL     1       4.108  -3.878   3.982  0.00  0.00    +0.129 A 
BRANCH  37  38
ATOM     38  O   UNL     1       4.155  -2.766   4.757  0.00  0.00    -0.506 OA
ATOM     39  H   UNL     1       3.290  -2.465   5.065  0.00  0.00    +0.292 HD
ENDBRANCH  37  38
ENDBRANCH  29  32
ENDBRANCH  21  28
ENDBRANCH   1  21
TORSDOF 10
