REMARK  Name = ZINC23483097
REMARK  11 active torsions:
REMARK  status: ('A' for Active; 'I' for Inactive)
REMARK    1  A    between atoms: C_1  and  C_2
REMARK    2  A    between atoms: C_2  and  C_4
REMARK    3  A    between atoms: C_2  and  N_31
REMARK    4  A    between atoms: C_7  and  S_16
REMARK    5  A    between atoms: N_8  and  C_9
REMARK    6  A    between atoms: S_16  and  C_17
REMARK    7  A    between atoms: C_17  and  C_18
REMARK    8  A    between atoms: N_20  and  N_21
REMARK    9  A    between atoms: C_22  and  C_24
REMARK   10  A    between atoms: N_31  and  C_32
REMARK   11  A    between atoms: N_31  and  C_33
REMARK                            x       y       z     vdW  Elec       q    Type
REMARK                         _______ _______ _______ _____ _____    ______ ____
ROOT
ATOM      1  C   UNL     1       9.590   0.434  -0.088  0.00  0.00    +0.125 A 
ATOM      2  N   UNL     1       8.714  -0.531  -0.085  0.00  0.00    -0.135 NA
ATOM      3  N   UNL     1       7.524  -0.047  -0.070  0.00  0.00    -0.122 NA
ATOM      4  C   UNL     1       7.574   1.265  -0.064  0.00  0.00    +0.197 A 
ATOM      5  N   UNL     1       8.896   1.614  -0.080  0.00  0.00    -0.275 N 
ENDROOT
BRANCH   5   6
ATOM      6  C   UNL     1       9.430   2.912  -0.084  0.00  0.00    +0.050 A 
ATOM      7  C   UNL     1      10.155   3.362  -1.179  0.00  0.00    +0.029 A 
ATOM      8  C   UNL     1      10.674   4.641  -1.184  0.00  0.00    +0.040 A 
ATOM      9  C   UNL     1      10.483   5.471  -0.092  0.00  0.00    +0.124 A 
ATOM     10  C   UNL     1       9.766   5.022   1.004  0.00  0.00    +0.040 A 
ATOM     11  C   UNL     1       9.239   3.745   1.010  0.00  0.00    +0.029 A 
ATOM     12  F   UNL     1      10.997   6.721  -0.096  0.00  0.00    -0.205 F 
ENDBRANCH   5   6
BRANCH   1  14
ATOM     13  C   UNL     1      11.544  -0.136  -1.504  0.00  0.00    -0.005 C 
ATOM     14  C   UNL     1      11.089   0.279  -0.104  0.00  0.00    -0.003 C 
BRANCH  14  15
ATOM     15  N   UNL     1      11.485  -0.752   0.865  0.00  0.00    +0.382 N 
ATOM     16  C   UNL     1      10.993  -2.074   0.458  0.00  0.00    -0.096 C 
ATOM     17  C   UNL     1      12.942  -0.767   1.052  0.00  0.00    -0.096 C 
ATOM     18  H   UNL     1      11.024  -0.502   1.832  0.00  0.00    -0.082 HD
ENDBRANCH  14  15
ENDBRANCH   1  14
BRANCH   4  19
ATOM     19  S   UNL     1       6.199   2.366  -0.044  0.00  0.00    -0.076 S 
BRANCH  19  20
ATOM     20  C   UNL     1       4.839   1.171  -0.038  0.00  0.00    +0.174 C 
BRANCH  20  21
ATOM     21  C   UNL     1       3.524   1.907  -0.021  0.00  0.00    +0.239 C 
ATOM     22  O   UNL     1       3.508   3.120  -0.015  0.00  0.00    -0.273 OA
ATOM     23  N   UNL     1       2.366   1.217  -0.014  0.00  0.00    -0.233 N 
ATOM     24  H   UNL     1       2.381   0.117  -0.020  0.00  0.00    +0.173 HD
BRANCH  23  25
ATOM     25  N   UNL     1       1.143   1.901   0.001  0.00  0.00    -0.230 N 
ATOM     26  C   UNL     1      -0.014   1.211   0.009  0.00  0.00    +0.260 C 
ATOM     27  O   UNL     1       0.002  -0.004   0.002  0.00  0.00    -0.269 OA
ATOM     28  H   UNL     1       1.129   3.001   0.007  0.00  0.00    +0.173 HD
BRANCH  26  29
ATOM     29  C   UNL     1      -1.304   1.933   0.019  0.00  0.00    +0.038 A 
ATOM     30  C   UNL     1      -1.326   3.329   0.032  0.00  0.00    +0.014 A 
ATOM     31  C   UNL     1      -2.533   3.996   0.035  0.00  0.00    +0.021 A 
ATOM     32  C   UNL     1      -3.721   3.285   0.037  0.00  0.00    +0.041 A 
ATOM     33  C   UNL     1      -3.706   1.900   0.030  0.00  0.00    +0.021 A 
ATOM     34  C   UNL     1      -2.505   1.221   0.021  0.00  0.00    +0.014 A 
ATOM     35 CL   UNL     1      -5.236   4.132   0.048  0.00  0.00    -0.084 Cl
ENDBRANCH  26  29
ENDBRANCH  23  25
ENDBRANCH  20  21
ENDBRANCH  19  20
ENDBRANCH   4  19
TORSDOF 8
