REMARK  Name = ZINC19740248
REMARK  5 active torsions:
REMARK  status: ('A' for Active; 'I' for Inactive)
REMARK    1  A    between atoms: C_1  and  N_2
REMARK    2  A    between atoms: N_2  and  C_3
REMARK    3  A    between atoms: C_4  and  C_6
REMARK    4  A    between atoms: C_9  and  C_11
REMARK    5  A    between atoms: C_17  and  C_19
REMARK                            x       y       z     vdW  Elec       q    Type
REMARK                         _______ _______ _______ _____ _____    ______ ____
ROOT
ATOM      1  C   UNL     1      -1.211   2.646   0.023  0.00  0.00    +0.113 C 
ATOM      2  C   UNL     1      -1.715   2.801  -1.427  0.00  0.00    +0.029 C 
ATOM      3  C   UNL     1      -3.258   2.772  -1.263  0.00  0.00    +0.021 C 
ATOM      4  C   UNL     1      -3.429   1.758  -0.105  0.00  0.00    +0.109 C 
ATOM      5  N   UNL     1      -2.293   2.020   0.797  0.00  0.00    -0.290 N 
ATOM      6  C   UNL     1      -2.252   1.733   2.114  0.00  0.00    +0.247 C 
ATOM      7  O   UNL     1      -3.194   1.175   2.643  0.00  0.00    -0.270 OA
ENDROOT
BRANCH   6   8
ATOM      8  C   UNL     1      -1.064   2.095   2.912  0.00  0.00    +0.039 A 
ATOM      9  C   UNL     1      -0.036   2.850   2.332  0.00  0.00    +0.015 A 
ATOM     10  C   UNL     1       1.065   3.196   3.061  0.00  0.00    +0.028 A 
ATOM     11  C   UNL     1       1.180   2.790   4.386  0.00  0.00    +0.066 A 
ATOM     12  C   UNL     1       0.160   2.027   4.983  0.00  0.00    +0.089 A 
ATOM     13  C   UNL     1      -0.966   1.681   4.237  0.00  0.00    +0.043 A 
ATOM     14  N   UNL     1       0.544   1.784   6.263  0.00  0.00    -0.236 NA
ATOM     15  C   UNL     1       1.702   2.335   6.482  0.00  0.00    +0.197 A 
ATOM     16  N   UNL     1       2.140   2.967   5.359  0.00  0.00    -0.344 N 
ATOM     17  H   UNL     1       3.051   3.541   5.134  0.00  0.00    +0.167 HD
ENDBRANCH   6   8
BRANCH   1  21
ATOM     18  C   UNL     1       1.869  -0.148   0.128  0.00  0.00    +0.074 A 
ATOM     19  C   UNL     1       2.291   1.166  -0.001  0.00  0.00    +0.021 A 
ATOM     20  C   UNL     1       1.318   2.134  -0.040  0.00  0.00    +0.014 A 
ATOM     21  C   UNL     1       0.013   1.767   0.049  0.00  0.00    +0.011 A 
ATOM     22  S   UNL     1       0.096   0.041   0.191  0.00  0.00    -0.087 S 
BRANCH  18  26
ATOM     23  C   UNL     1       2.864  -3.794   0.393  0.00  0.00    +0.132 C 
ATOM     24  N   UNL     1       2.063  -2.570   0.324  0.00  0.00    -0.303 N 
ATOM     25  C   UNL     1       0.602  -2.645   0.395  0.00  0.00    +0.132 C 
ATOM     26  C   UNL     1       2.671  -1.373   0.197  0.00  0.00    +0.253 C 
ATOM     27  O   UNL     1       3.884  -1.310   0.138  0.00  0.00    -0.269 OA
ENDBRANCH  18  26
ENDBRANCH   1  21
TORSDOF 3
