REMARK  Name = ZINC63383777
REMARK  11 active torsions:
REMARK  status: ('A' for Active; 'I' for Inactive)
REMARK    1  A    between atoms: C_1  and  C_2
REMARK    2  A    between atoms: C_2  and  C_3
REMARK    3  A    between atoms: C_3  and  C_5
REMARK    4  A    between atoms: C_3  and  N_6
REMARK    5  A    between atoms: C_7  and  C_9
REMARK    6  A    between atoms: C_9  and  C_11
REMARK    7  A    between atoms: C_9  and  N_15
REMARK    8  A    between atoms: C_11  and  C_12
REMARK    9  A    between atoms: C_12  and  C_13
REMARK   10  A    between atoms: C_12  and  C_14
REMARK   11  A    between atoms: C_16  and  C_18
REMARK                            x       y       z     vdW  Elec       q    Type
REMARK                         _______ _______ _______ _____ _____    ______ ____
ROOT
ATOM      1  C   UNL     1       1.413   0.363  -8.358  0.00  0.00    +0.167 C 
ATOM      2  C   UNL     1       2.765   1.046  -8.071  0.00  0.00    +0.065 C 
ATOM      3  C   UNL     1       2.595   2.514  -8.374  0.00  0.00    -0.034 C 
ATOM      4  C   UNL     1       2.850   3.589  -7.634  0.00  0.00    -0.001 A 
ATOM      5  C   UNL     1       3.471   3.739  -6.308  0.00  0.00    +0.010 A 
ATOM      6  C   UNL     1       3.562   5.008  -5.829  0.00  0.00    +0.001 A 
ATOM      7  C   UNL     1       3.104   6.129  -6.528  0.00  0.00    +0.002 A 
ATOM      8  C   UNL     1       2.529   6.085  -7.756  0.00  0.00    +0.026 A 
ATOM      9  C   UNL     1       2.384   4.805  -8.367  0.00  0.00    +0.043 A 
ATOM     10  N   UNL     1       1.895   4.477  -9.525  0.00  0.00    -0.375 N 
ATOM     11  C   UNL     1       2.037   3.030  -9.695  0.00  0.00    +0.131 C 
ATOM     12  C   UNL     1       0.677   2.348  -9.887  0.00  0.00    +0.134 C 
ATOM     13  N   UNL     1       0.872   0.903  -9.613  0.00  0.00    -0.276 N 
ATOM     14  C   UNL     1       0.489   0.198 -10.693  0.00  0.00    +0.248 C 
ATOM     15  O   UNL     1       0.457  -1.016 -10.755  0.00  0.00    -0.270 OA
ATOM     16  C   UNL     1       0.118   1.103 -11.781  0.00  0.00    +0.042 A 
ATOM     17  C   UNL     1       0.227   2.449 -11.308  0.00  0.00    -0.013 A 
ATOM     18  C   UNL     1      -0.057   3.536 -12.105  0.00  0.00    +0.006 A 
ATOM     19  C   UNL     1      -0.466   3.273 -13.410  0.00  0.00    +0.000 A 
ATOM     20  C   UNL     1      -0.585   1.984 -13.889  0.00  0.00    +0.001 A 
ATOM     21  C   UNL     1      -0.293   0.837 -13.090  0.00  0.00    +0.013 A 
ATOM     22  H   UNL     1       1.502   5.088 -10.168  0.00  0.00    +0.160 HD
ENDROOT
BRANCH   1  24
ATOM     23  N   UNL     1       0.751   0.244  -5.978  0.00  0.00    -0.302 N 
ATOM     24  C   UNL     1       0.454   0.644  -7.231  0.00  0.00    +0.235 C 
ATOM     25  O   UNL     1      -0.585   1.230  -7.450  0.00  0.00    -0.274 OA
ATOM     26  H   UNL     1       1.612  -0.160  -5.790  0.00  0.00    +0.150 HD
BRANCH  23  27
ATOM     27  C   UNL     1      -0.228   0.420  -4.902  0.00  0.00    +0.159 C 
BRANCH  27  29
ATOM     28  N   UNL     1      -0.169   0.803  -2.459  0.00  0.00    -0.311 N 
ATOM     29  C   UNL     1       0.481   0.409  -3.572  0.00  0.00    +0.234 C 
ATOM     30  O   UNL     1       1.637   0.047  -3.504  0.00  0.00    -0.274 OA
ATOM     31  H   UNL     1      -1.077   1.137  -2.521  0.00  0.00    +0.149 HD
BRANCH  28  32
ATOM     32  C   UNL     1       0.497   0.726  -1.156  0.00  0.00    +0.070 C 
ATOM     33  C   UNL     1       0.329  -0.682  -0.580  0.00  0.00    +0.028 C 
BRANCH  32  35
ATOM     34  C   UNL     1       0.147   3.160  -0.716  0.00  0.00    +0.005 C 
ATOM     35  C   UNL     1      -0.129   1.745  -0.203  0.00  0.00    +0.018 C 
ENDBRANCH  32  35
ENDBRANCH  28  32
ENDBRANCH  27  29
BRANCH  27  36
ATOM     36  C   UNL     1      -1.245  -0.722  -4.947  0.00  0.00    +0.034 C 
BRANCH  36  37
ATOM     37  C   UNL     1      -2.287  -0.519  -3.845  0.00  0.00    -0.015 C 
ATOM     38  C   UNL     1      -3.112   0.733  -4.147  0.00  0.00    +0.007 C 
ATOM     39  C   UNL     1      -3.212  -1.737  -3.787  0.00  0.00    +0.007 C 
ENDBRANCH  36  37
ENDBRANCH  27  36
ENDBRANCH  23  27
ENDBRANCH   1  24
TORSDOF 7
