REMARK  Name = ZINC31812661
REMARK  9 active torsions:
REMARK  status: ('A' for Active; 'I' for Inactive)
REMARK    1  A    between atoms: C_1  and  N_2
REMARK    2  A    between atoms: N_5  and  C_8
REMARK    3  A    between atoms: C_8  and  C_14
REMARK    4  A    between atoms: C_14  and  N_15
REMARK    5  A    between atoms: C_16  and  C_18
REMARK    6  A    between atoms: C_18  and  C_19
REMARK    7  A    between atoms: N_23  and  C_27
REMARK    8  A    between atoms: C_24  and  O_26
REMARK    9  A    between atoms: C_27  and  C_28
REMARK                            x       y       z     vdW  Elec       q    Type
REMARK                         _______ _______ _______ _____ _____    ______ ____
ROOT
ATOM      1  N   UNL     1      -0.589  -3.988  -1.380  0.00  0.00    -0.313 N 
ATOM      2  C   UNL     1      -1.895  -4.202  -1.630  0.00  0.00    +0.216 C 
ATOM      3  O   UNL     1      -2.583  -4.776  -0.813  0.00  0.00    -0.276 OA
ATOM      4  H   UNL     1      -0.038  -3.528  -2.034  0.00  0.00    +0.149 HD
ENDROOT
BRANCH   1   5
ATOM      5  C   UNL     1       0.001  -4.449  -0.121  0.00  0.00    +0.126 C 
BRANCH   5   6
ATOM      6  C   UNL     1       1.453  -3.974  -0.034  0.00  0.00    +0.037 C 
ATOM      7  C   UNL     1       2.109  -4.564   1.216  0.00  0.00    +0.024 C 
ATOM      8  C   UNL     1       1.345  -4.101   2.459  0.00  0.00    +0.002 C 
ATOM      9  C   UNL     1       1.378  -2.573   2.539  0.00  0.00    +0.000 C 
ATOM     10  C   UNL     1       0.723  -1.983   1.288  0.00  0.00    +0.002 C 
ATOM     11  C   UNL     1       1.486  -2.446   0.046  0.00  0.00    +0.024 C 
BRANCH   6  16
ATOM     12  C   UNL     1       4.947  -6.260  -3.817  0.00  0.00    -0.096 C 
ATOM     13  N   UNL     1       4.249  -5.845  -2.592  0.00  0.00    +0.379 N 
ATOM     14  C   UNL     1       4.290  -4.381  -2.479  0.00  0.00    -0.064 C 
ATOM     15  C   UNL     1       3.579  -3.950  -1.194  0.00  0.00    +0.066 C 
ATOM     16  N   UNL     1       2.186  -4.418  -1.227  0.00  0.00    -0.299 NA
ATOM     17  C   UNL     1       2.130  -5.880  -1.365  0.00  0.00    +0.066 C 
ATOM     18  C   UNL     1       2.852  -6.296  -2.649  0.00  0.00    -0.064 C 
ATOM     19  H   UNL     1       4.703  -6.257  -1.791  0.00  0.00    -0.082 HD
ENDBRANCH   6  16
ENDBRANCH   5   6
ENDBRANCH   1   5
BRANCH   2  20
ATOM     20  C   UNL     1      -2.502  -3.728  -2.926  0.00  0.00    +0.132 C 
BRANCH  20  21
ATOM     21  C   UNL     1      -3.987  -4.094  -2.958  0.00  0.00    +0.205 C 
ATOM     22  C   UNL     1      -4.639  -3.563  -4.219  0.00  0.00    +0.249 C 
ATOM     23  O   UNL     1      -4.740  -2.406  -4.567  0.00  0.00    -0.273 OA
ATOM     24  N   UNL     1      -5.084  -4.659  -4.871  0.00  0.00    -0.220 N 
ATOM     25  C   UNL     1      -4.785  -5.796  -4.165  0.00  0.00    +0.285 C 
ATOM     26  N   UNL     1      -4.158  -5.553  -3.055  0.00  0.00    -0.223 NA
BRANCH  25  27
ATOM     27  O   UNL     1      -5.111  -7.040  -4.580  0.00  0.00    -0.481 OA
ATOM     28  H   UNL     1      -4.834  -7.741  -3.975  0.00  0.00    +0.295 HD
ENDBRANCH  25  27
BRANCH  24  29
ATOM     29  C   UNL     1      -5.789  -4.636  -6.155  0.00  0.00    +0.153 C 
BRANCH  29  30
ATOM     30  C   UNL     1      -4.789  -4.725  -7.279  0.00  0.00    -0.026 A 
ATOM     31  C   UNL     1      -4.246  -3.571  -7.812  0.00  0.00    +0.009 A 
ATOM     32  C   UNL     1      -3.328  -3.647  -8.843  0.00  0.00    +0.050 A 
ATOM     33  C   UNL     1      -2.950  -4.882  -9.345  0.00  0.00    +0.166 A 
ATOM     34  C   UNL     1      -3.497  -6.045  -8.807  0.00  0.00    +0.167 A 
ATOM     35  C   UNL     1      -4.412  -5.961  -7.770  0.00  0.00    +0.054 A 
ATOM     36  O   UNL     1      -2.970  -7.119  -9.464  0.00  0.00    -0.453 OA
ATOM     37  C   UNL     1      -2.408  -6.588 -10.679  0.00  0.00    +0.466 C 
ATOM     38  O   UNL     1      -2.081  -5.228 -10.338  0.00  0.00    -0.453 OA
ENDBRANCH  29  30
ENDBRANCH  24  29
ENDBRANCH  20  21
ENDBRANCH   2  20
TORSDOF 8
