REMARK  Name = ZINC19566421
REMARK  7 active torsions:
REMARK  status: ('A' for Active; 'I' for Inactive)
REMARK    1  A    between atoms: C_1  and  C_2
REMARK    2  A    between atoms: C_10  and  C_11
REMARK    3  A    between atoms: C_11  and  N_12
REMARK    4  A    between atoms: N_12  and  C_13
REMARK    5  A    between atoms: C_13  and  C_15
REMARK    6  A    between atoms: C_13  and  C_16
REMARK    7  A    between atoms: C_20  and  C_22
REMARK                            x       y       z     vdW  Elec       q    Type
REMARK                         _______ _______ _______ _____ _____    ______ ____
ROOT
ATOM      1  C   UNL     1       3.426   2.871   2.761  0.00  0.00    -0.024 C 
ATOM      2  C   UNL     1       3.659   3.162   4.245  0.00  0.00    -0.007 C 
ENDROOT
BRANCH   1   3
ATOM      3  C   UNL     1       4.182   3.873   1.927  0.00  0.00    +0.035 A 
ATOM      4  C   UNL     1       5.517   3.670   1.630  0.00  0.00    +0.091 A 
ATOM      5  C   UNL     1       6.179   4.622   0.855  0.00  0.00    +0.252 A 
ATOM      6  N   UNL     1       5.508   5.683   0.426  0.00  0.00    -0.307 N 
ATOM      7  C   UNL     1       4.230   5.845   0.737  0.00  0.00    +0.141 A 
ATOM      8  N   UNL     1       3.575   4.957   1.472  0.00  0.00    -0.236 NA
ATOM      9  O   UNL     1       7.486   4.461   0.536  0.00  0.00    -0.268 OA
ATOM     10  H   UNL     1       6.022   6.432  -0.194  0.00  0.00    +0.170 HD
BRANCH   7  11
ATOM     11  C   UNL     1       3.514   7.051   0.251  0.00  0.00    +0.020 A 
ATOM     12  C   UNL     1       2.166   7.258   0.558  0.00  0.00    +0.031 A 
ATOM     13  C   UNL     1       1.540   8.396   0.089  0.00  0.00    +0.111 A 
ATOM     14  N   UNL     1       2.193   9.274  -0.647  0.00  0.00    -0.263 NA
ATOM     15  C   UNL     1       3.464   9.114  -0.963  0.00  0.00    +0.111 A 
ATOM     16  C   UNL     1       4.167   8.007  -0.531  0.00  0.00    +0.031 A 
ENDBRANCH   7  11
ENDBRANCH   1   3
BRANCH   1  17
ATOM     17  N   UNL     1       1.991   2.969   2.463  0.00  0.00    +0.389 N 
ATOM     18  H   UNL     1       1.868   3.215   1.398  0.00  0.00    -0.084 HD
ATOM     19  H   UNL     1       1.557   3.771   3.078  0.00  0.00    -0.084 HD
BRANCH  17  20
ATOM     20  C   UNL     1       1.305   1.702   2.754  0.00  0.00    -0.006 C 
BRANCH  20  30
ATOM     21  C   UNL     1      -0.013   1.086   0.008  0.00  0.00    +0.048 C 
ATOM     22  C   UNL     1      -0.718   1.572   1.248  0.00  0.00    -0.004 A 
ATOM     23  C   UNL     1      -2.152   1.851   1.394  0.00  0.00    +0.023 A 
ATOM     24  C   UNL     1      -3.253   1.766   0.544  0.00  0.00    +0.012 A 
ATOM     25  C   UNL     1      -4.495   2.104   1.007  0.00  0.00    +0.001 A 
ATOM     26  C   UNL     1      -4.665   2.526   2.318  0.00  0.00    +0.004 A 
ATOM     27  C   UNL     1      -3.588   2.611   3.175  0.00  0.00    +0.047 A 
ATOM     28  C   UNL     1      -2.318   2.273   2.724  0.00  0.00    +0.135 A 
ATOM     29  O   UNL     1      -1.102   2.253   3.305  0.00  0.00    -0.461 OA
ATOM     30  C   UNL     1      -0.162   1.841   2.437  0.00  0.00    +0.092 A 
ENDBRANCH  20  30
ENDBRANCH  17  20
ENDBRANCH   1  17
TORSDOF 5
