REMARK  Name = ZINC25257510
REMARK  10 active torsions:
REMARK  status: ('A' for Active; 'I' for Inactive)
REMARK    1  A    between atoms: C_1  and  O_2
REMARK    2  A    between atoms: O_2  and  C_3
REMARK    3  A    between atoms: C_6  and  S_9
REMARK    4  A    between atoms: S_9  and  N_12
REMARK    5  A    between atoms: N_12  and  C_13
REMARK    6  A    between atoms: C_13  and  C_14
REMARK    7  A    between atoms: N_16  and  C_17
REMARK    8  A    between atoms: C_17  and  C_18
REMARK    9  A    between atoms: C_18  and  C_20
REMARK   10  A    between atoms: C_18  and  C_27
REMARK                            x       y       z     vdW  Elec       q    Type
REMARK                         _______ _______ _______ _____ _____    ______ ____
ROOT
ATOM      1  C   UNL     1       4.277   4.611  -1.263  0.00  0.00    +0.117 C 
ENDROOT
BRANCH   1   4
ATOM      2  C   UNL     1       6.446   4.750  -2.366  0.00  0.00    +0.229 C 
ATOM      3  O   UNL     1       5.931   5.433  -3.226  0.00  0.00    -0.274 OA
ATOM      4  N   UNL     1       5.704   4.288  -1.339  0.00  0.00    -0.313 N 
ATOM      5  H   UNL     1       6.171   3.669  -0.559  0.00  0.00    +0.149 HD
BRANCH   2   6
ATOM      6  C   UNL     1       7.913   4.418  -2.445  0.00  0.00    +0.201 C 
BRANCH   6   7
ATOM      7  N   UNL     1       8.490   5.033  -3.643  0.00  0.00    -0.181 NA
ATOM      8  H   UNL     1       7.848   5.262  -4.506  0.00  0.00    +0.149 HD
BRANCH   7   9
ATOM      9  S   UNL     1      10.133   5.156  -3.802  0.00  0.00    +0.059 S 
ATOM     10  O   UNL     1      10.375   5.763  -5.064  0.00  0.00    -0.153 OA
ATOM     11  O   UNL     1      10.618   5.708  -2.585  0.00  0.00    -0.153 OA
BRANCH   9  15
ATOM     12  C   UNL     1      11.774   0.943  -4.057  0.00  0.00    +0.120 A 
ATOM     13  C   UNL     1      11.405   1.616  -5.212  0.00  0.00    +0.047 A 
ATOM     14  C   UNL     1      10.905   2.901  -5.132  0.00  0.00    +0.032 A 
ATOM     15  C   UNL     1      10.772   3.517  -3.901  0.00  0.00    +0.105 A 
ATOM     16  C   UNL     1      11.144   2.850  -2.748  0.00  0.00    +0.032 A 
ATOM     17  C   UNL     1      11.640   1.563  -2.823  0.00  0.00    +0.047 A 
BRANCH  12  19
ATOM     18  C   UNL     1      12.626  -0.953  -2.903  0.00  0.00    +0.277 C 
ATOM     19  O   UNL     1      12.266  -0.321  -4.133  0.00  0.00    -0.495 OA
ENDBRANCH  12  19
ENDBRANCH   9  15
ENDBRANCH   7   9
ENDBRANCH   6   7
ENDBRANCH   2   6
ENDBRANCH   1   4
BRANCH   1  20
ATOM     20  C   UNL     1       3.676   3.969  -0.011  0.00  0.00    +0.069 C 
BRANCH  20  21
ATOM     21  C   UNL     1       2.186   4.197   0.004  0.00  0.00    -0.013 A 
ATOM     22  C   UNL     1       1.560   5.385   0.016  0.00  0.00    +0.088 A 
ATOM     23  N   UNL     1       0.205   5.198   0.028  0.00  0.00    -0.360 N 
ATOM     24  H   UNL     1      -0.470   6.067   0.039  0.00  0.00    +0.165 HD
ATOM     25  C   UNL     1      -0.082   3.852   0.024  0.00  0.00    +0.047 A 
ATOM     26  C   UNL     1       1.147   3.166   0.008  0.00  0.00    +0.003 A 
ATOM     27  C   UNL     1       1.165   1.770   0.000  0.00  0.00    +0.010 A 
ATOM     28  C   UNL     1      -0.013   1.076   0.008  0.00  0.00    +0.001 A 
ATOM     29  C   UNL     1      -1.227   1.748   0.017  0.00  0.00    +0.002 A 
ATOM     30  C   UNL     1      -1.268   3.125   0.031  0.00  0.00    +0.026 A 
ENDBRANCH  20  21
BRANCH  20  31
ATOM     31  C   UNL     1       4.291   4.589   1.217  0.00  0.00    -0.020 A 
ATOM     32  C   UNL     1       4.164   5.947   1.444  0.00  0.00    +0.006 A 
ATOM     33  C   UNL     1       4.729   6.515   2.570  0.00  0.00    +0.000 A 
ATOM     34  C   UNL     1       5.421   5.727   3.470  0.00  0.00    +0.001 A 
ATOM     35  C   UNL     1       5.549   4.369   3.244  0.00  0.00    +0.020 A 
ATOM     36  C   UNL     1       4.979   3.799   2.120  0.00  0.00    +0.045 A 
ATOM     37 CL   UNL     1       5.133   2.092   1.839  0.00  0.00    -0.083 Cl
ENDBRANCH  20  31
ENDBRANCH   1  20
TORSDOF 9
