REMARK  Name = ZINC09884141
REMARK  11 active torsions:
REMARK  status: ('A' for Active; 'I' for Inactive)
REMARK    1  A    between atoms: C_1  and  C_2
REMARK    2  A    between atoms: C_3  and  C_33
REMARK    3  A    between atoms: C_5  and  N_29
REMARK    4  A    between atoms: C_6  and  C_7
REMARK    5  A    between atoms: C_7  and  O_9
REMARK    6  A    between atoms: O_9  and  C_10
REMARK    7  A    between atoms: C_10  and  C_11
REMARK    8  A    between atoms: N_13  and  C_14
REMARK    9  A    between atoms: C_18  and  S_20
REMARK   10  A    between atoms: S_20  and  N_23
REMARK   11  A    between atoms: C_30  and  C_32
REMARK                            x       y       z     vdW  Elec       q    Type
REMARK                         _______ _______ _______ _____ _____    ______ ____
ROOT
ATOM      1  C   UNL     1       3.556   1.795  -0.124  0.00  0.00    +0.255 C 
ATOM      2  O   UNL     1       3.541   3.008  -0.118  0.00  0.00    -0.272 OA
ATOM      3  N   UNL     1       2.402   1.106  -0.015  0.00  0.00    -0.283 N 
ATOM      4  H   UNL     1       2.419   0.138   0.047  0.00  0.00    +0.155 HD
ENDROOT
BRANCH   3   5
ATOM      5  C   UNL     1       1.180   1.788   0.008  0.00  0.00    +0.035 A 
ATOM      6  C   UNL     1       1.087   3.028   0.626  0.00  0.00    +0.023 A 
ATOM      7  C   UNL     1      -0.120   3.698   0.647  0.00  0.00    +0.004 A 
ATOM      8  C   UNL     1      -1.236   3.135   0.054  0.00  0.00    +0.029 A 
ATOM      9  C   UNL     1      -1.145   1.903  -0.566  0.00  0.00    +0.114 A 
ATOM     10  C   UNL     1       0.059   1.225  -0.586  0.00  0.00    +0.052 A 
BRANCH   9  11
ATOM     11  S   UNL     1      -2.567   1.194  -1.327  0.00  0.00    +0.100 S 
ATOM     12  O   UNL     1      -3.437   2.271  -1.646  0.00  0.00    -0.146 OA
ATOM     13  O   UNL     1      -2.091   0.282  -2.307  0.00  0.00    -0.146 OA
BRANCH  11  14
ATOM     14  N   UNL     1      -3.339   0.289  -0.174  0.00  0.00    -0.118 NA
ATOM     15  C   UNL     1      -4.425  -0.347  -0.471  0.00  0.00    +0.117 C 
ATOM     16  C   UNL     1      -5.094  -0.341  -1.829  0.00  0.00    +0.074 C 
ATOM     17  C   UNL     1      -6.060  -1.548  -1.782  0.00  0.00    +0.026 C 
ATOM     18  C   UNL     1      -6.326  -1.688  -0.267  0.00  0.00    +0.103 C 
ATOM     19  N   UNL     1      -5.146  -1.122   0.395  0.00  0.00    -0.331 N 
ATOM     20  H   UNL     1      -4.908  -1.276   1.323  0.00  0.00    +0.147 HD
ENDBRANCH  11  14
ENDBRANCH   9  11
ENDBRANCH   3   5
BRANCH   1  21
ATOM     21  C   UNL     1       4.864   1.058  -0.255  0.00  0.00    +0.328 C 
BRANCH  21  22
ATOM     22  O   UNL     1       5.951   2.015  -0.356  0.00  0.00    -0.452 OA
BRANCH  22  23
ATOM     23  C   UNL     1       7.197   1.516  -0.480  0.00  0.00    +0.342 C 
ATOM     24  O   UNL     1       7.371   0.312  -0.502  0.00  0.00    -0.245 OA
BRANCH  23  30
ATOM     25  C   UNL     1       8.152   2.480  -3.153  0.00  0.00    +0.045 C 
ATOM     26  C   UNL     1       8.816   2.897  -1.866  0.00  0.00    -0.025 A 
ATOM     27  C   UNL     1       9.874   3.726  -1.860  0.00  0.00    -0.008 A 
ATOM     28  S   UNL     1      10.259   3.888  -0.128  0.00  0.00    -0.078 S 
ATOM     29  C   UNL     1       9.024   2.873   0.538  0.00  0.00    +0.086 A 
ATOM     30  C   UNL     1       8.342   2.422  -0.587  0.00  0.00    +0.091 A 
ATOM     31  C   UNL     1      10.568   4.366  -3.035  0.00  0.00    +0.052 C 
BRANCH  29  32
ATOM     32  N   UNL     1       8.776   2.580   1.870  0.00  0.00    -0.280 N 
ATOM     33  C   UNL     1       9.551   3.116   2.833  0.00  0.00    +0.214 C 
ATOM     34  O   UNL     1      10.466   3.856   2.535  0.00  0.00    -0.276 OA
ATOM     35  C   UNL     1       9.282   2.798   4.282  0.00  0.00    +0.109 C 
ATOM     36  H   UNL     1       8.045   1.989   2.109  0.00  0.00    +0.155 HD
ENDBRANCH  29  32
ENDBRANCH  23  30
ENDBRANCH  22  23
ENDBRANCH  21  22
ENDBRANCH   1  21
TORSDOF 8
