REMARK  Name = ZINC66054386
REMARK  6 active torsions:
REMARK  status: ('A' for Active; 'I' for Inactive)
REMARK    1  A    between atoms: C_1  and  C_2
REMARK    2  A    between atoms: C_2  and  C_3
REMARK    3  A    between atoms: C_2  and  C_4
REMARK    4  A    between atoms: C_2  and  C_5
REMARK    5  A    between atoms: C_10  and  C_15
REMARK    6  A    between atoms: N_16  and  O_17
REMARK                            x       y       z     vdW  Elec       q    Type
REMARK                         _______ _______ _______ _____ _____    ______ ____
ROOT
ATOM      1  C   UNL     1       0.707  -0.490  -1.238  0.00  0.00    +0.224 C 
ATOM      2  O   UNL     1       1.150   0.308  -2.036  0.00  0.00    -0.275 OA
ATOM      3  N   UNL     1       0.847  -1.812  -1.460  0.00  0.00    -0.269 N 
ATOM      4  C   UNL     1       1.500  -2.262  -2.608  0.00  0.00    +0.139 A 
ATOM      5  C   UNL     1       1.633  -3.626  -2.831  0.00  0.00    +0.065 A 
ATOM      6  C   UNL     1       2.290  -4.062  -3.985  0.00  0.00    +0.049 A 
ATOM      7  C   UNL     1       2.787  -3.093  -4.871  0.00  0.00    +0.151 A 
ATOM      8  C   UNL     1       2.610  -1.756  -4.571  0.00  0.00    +0.152 A 
ATOM      9  N   UNL     1       1.980  -1.384  -3.474  0.00  0.00    -0.236 NA
ATOM     10  F   UNL     1       3.429  -3.463  -6.000  0.00  0.00    -0.203 F 
ATOM     11  I   UNL     1       0.864  -5.009  -1.458  0.00  0.00    -0.040 I 
ATOM     12  H   UNL     1       0.493  -2.451  -0.821  0.00  0.00    +0.156 HD
ENDROOT
BRANCH   1  14
ATOM     13  C   UNL     1      -0.019   1.526   0.010  0.00  0.00    +0.020 C 
ATOM     14  C   UNL     1       0.002  -0.004   0.002  0.00  0.00    +0.039 C 
ATOM     15  C   UNL     1       0.742  -0.511   1.242  0.00  0.00    +0.020 C 
ATOM     16  C   UNL     1      -1.433  -0.534   0.013  0.00  0.00    +0.020 C 
ENDBRANCH   1  14
BRANCH   6  17
ATOM     17  C   UNL     1       2.457  -5.502  -4.266  0.00  0.00    +0.164 C 
ATOM     18  N   UNL     1       3.068  -5.885  -5.339  0.00  0.00    -0.095 NA
BRANCH  18  19
ATOM     19  O   UNL     1       3.228  -7.266  -5.608  0.00  0.00    -0.409 OA
ATOM     20  H   UNL     1       3.696  -7.455  -6.432  0.00  0.00    +0.328 HD
ENDBRANCH  18  19
ENDBRANCH   6  17
TORSDOF 3
