REMARK  Name = ZINC67400970
REMARK  10 active torsions:
REMARK  status: ('A' for Active; 'I' for Inactive)
REMARK    1  A    between atoms: C_1  and  C_2
REMARK    2  A    between atoms: C_2  and  C_4
REMARK    3  A    between atoms: C_2  and  N_7
REMARK    4  A    between atoms: C_4  and  C_5
REMARK    5  A    between atoms: C_4  and  C_6
REMARK    6  A    between atoms: C_8  and  C_10
REMARK    7  A    between atoms: C_10  and  N_11
REMARK    8  A    between atoms: C_14  and  C_17
REMARK    9  A    between atoms: C_17  and  C_19
REMARK   10  A    between atoms: C_17  and  O_26
REMARK                            x       y       z     vdW  Elec       q    Type
REMARK                         _______ _______ _______ _____ _____    ______ ____
ROOT
ATOM      1  N   UNL     1      -0.242  -1.150  -4.714  0.00  0.00    +0.385 N 
ATOM      2  C   UNL     1      -1.273  -2.155  -4.425  0.00  0.00    -0.078 C 
ATOM      3  C   UNL     1      -2.314  -2.160  -5.546  0.00  0.00    -0.012 C 
ATOM      4  C   UNL     1      -1.627  -2.499  -6.872  0.00  0.00    +0.019 C 
ATOM      5  C   UNL     1      -0.505  -1.489  -7.127  0.00  0.00    -0.012 C 
ATOM      6  C   UNL     1       0.470  -1.508  -5.947  0.00  0.00    -0.078 C 
ATOM      7  H   UNL     1      -0.678  -0.247  -4.829  0.00  0.00    -0.081 HD
ENDROOT
BRANCH   1   8
ATOM      8  C   UNL     1       0.712  -1.094  -3.598  0.00  0.00    +0.019 C 
BRANCH   8  10
ATOM      9  N   UNL     1       0.688  -0.476  -1.203  0.00  0.00    -0.314 N 
ATOM     10  C   UNL     1       0.006  -0.608  -2.358  0.00  0.00    +0.197 C 
ATOM     11  O   UNL     1      -1.175  -0.336  -2.400  0.00  0.00    -0.278 OA
ATOM     12  H   UNL     1       1.632  -0.695  -1.170  0.00  0.00    +0.149 HD
BRANCH   9  14
ATOM     13  C   UNL     1      -0.019   1.526   0.010  0.00  0.00    +0.028 C 
ATOM     14  C   UNL     1       0.002  -0.004   0.002  0.00  0.00    +0.072 C 
BRANCH  14  15
ATOM     15  C   UNL     1       0.742  -0.511   1.242  0.00  0.00    +0.003 C 
ATOM     16  C   UNL     1       0.026  -0.018   2.500  0.00  0.00    +0.009 C 
ATOM     17  C   UNL     1       0.763  -2.041   1.233  0.00  0.00    +0.009 C 
ENDBRANCH  14  15
ENDBRANCH   9  14
ENDBRANCH   8  10
ENDBRANCH   1   8
BRANCH   4  18
ATOM     18  C   UNL     1      -2.647  -2.429  -8.010  0.00  0.00    +0.147 C 
BRANCH  18  19
ATOM     19  C   UNL     1      -1.969  -2.763  -9.314  0.00  0.00    -0.019 A 
ATOM     20  C   UNL     1      -1.832  -4.083  -9.703  0.00  0.00    +0.007 A 
ATOM     21  C   UNL     1      -1.210  -4.390 -10.899  0.00  0.00    +0.020 A 
ATOM     22  C   UNL     1      -0.725  -3.376 -11.706  0.00  0.00    +0.041 A 
ATOM     23  C   UNL     1      -0.863  -2.056 -11.316  0.00  0.00    +0.020 A 
ATOM     24  C   UNL     1      -1.490  -1.750 -10.123  0.00  0.00    +0.007 A 
ATOM     25 CL   UNL     1       0.057  -3.761 -13.207  0.00  0.00    -0.084 Cl
ENDBRANCH  18  19
BRANCH  18  26
ATOM     26  O   UNL     1      -3.698  -3.366  -7.766  0.00  0.00    -0.387 OA
ATOM     27  H   UNL     1      -3.401  -4.284  -7.706  0.00  0.00    +0.210 HD
ENDBRANCH  18  26
ENDBRANCH   4  18
TORSDOF 7
