REMARK  Name = ZINC08754001
REMARK  7 active torsions:
REMARK  status: ('A' for Active; 'I' for Inactive)
REMARK    1  A    between atoms: C_1  and  C_2
REMARK    2  A    between atoms: C_5  and  C_8
REMARK    3  A    between atoms: C_14  and  C_27
REMARK    4  A    between atoms: C_14  and  O_31
REMARK    5  A    between atoms: C_16  and  C_18
REMARK    6  A    between atoms: C_19  and  C_20
REMARK    7  A    between atoms: C_25  and  O_26
REMARK                            x       y       z     vdW  Elec       q    Type
REMARK                         _______ _______ _______ _____ _____    ______ ____
ROOT
ATOM      1  C   UNL     1      -2.441   4.170   0.036  0.00  0.00    +0.080 A 
ATOM      2  C   UNL     1      -3.576   3.408   0.037  0.00  0.00    +0.077 A 
ATOM      3  S   UNL     1      -2.873   1.764   0.018  0.00  0.00    -0.058 S 
ATOM      4  C   UNL     1      -1.155   2.256   0.020  0.00  0.00    +0.184 A 
ATOM      5  N   UNL     1      -1.258   3.574   0.028  0.00  0.00    -0.223 NA
ATOM      6  N   UNL     1      -0.018   1.467   0.010  0.00  0.00    -0.160 N 
ATOM      7  C   UNL     1       0.002  -0.004   0.002  0.00  0.00    +0.256 C 
ATOM      8  C   UNL     1       1.505  -0.348  -0.014  0.00  0.00    +0.123 C 
ATOM      9  C   UNL     1       2.188   1.001  -0.013  0.00  0.00    +0.064 C 
ATOM     10  N   UNL     1       1.294   1.937   0.000  0.00  0.00    -0.180 NA
ENDROOT
BRANCH   1  15
ATOM     11  C   UNL     1      -2.797   9.917   0.068  0.00  0.00    +0.044 C 
ATOM     12  C   UNL     1      -2.704   8.413   0.060  0.00  0.00    -0.050 A 
ATOM     13  C   UNL     1      -3.854   7.651   0.166  0.00  0.00    +0.004 A 
ATOM     14  C   UNL     1      -3.774   6.273   0.158  0.00  0.00    +0.010 A 
ATOM     15  C   UNL     1      -2.533   5.650   0.044  0.00  0.00    +0.001 A 
ATOM     16  C   UNL     1      -1.377   6.423  -0.057  0.00  0.00    +0.010 A 
ATOM     17  C   UNL     1      -1.469   7.800  -0.053  0.00  0.00    +0.004 A 
ENDBRANCH   1  15
BRANCH   7  18
ATOM     18  C   UNL     1      -0.666  -0.558   1.262  0.00  0.00    +0.438 C 
ATOM     19  F   UNL     1      -2.004  -0.150   1.298  0.00  0.00    -0.166 F 
ATOM     20  F   UNL     1      -0.605  -1.956   1.246  0.00  0.00    -0.166 F 
ATOM     21  F   UNL     1      -0.001  -0.075   2.394  0.00  0.00    -0.166 F 
ENDBRANCH   7  18
BRANCH   9  22
ATOM     22  C   UNL     1       3.590   1.209  -0.025  0.00  0.00    +0.026 C 
ATOM     23  C   UNL     1       4.086   2.464  -0.023  0.00  0.00    +0.013 C 
BRANCH  23  24
ATOM     24  C   UNL     1       5.541   2.679  -0.036  0.00  0.00    +0.016 A 
ATOM     25  C   UNL     1       6.414   1.587  -0.049  0.00  0.00    +0.011 A 
ATOM     26  C   UNL     1       7.776   1.796  -0.061  0.00  0.00    +0.001 A 
ATOM     27  C   UNL     1       8.285   3.084  -0.059  0.00  0.00    +0.004 A 
ATOM     28  C   UNL     1       7.433   4.173  -0.045  0.00  0.00    +0.046 A 
ATOM     29  C   UNL     1       6.062   3.982  -0.040  0.00  0.00    +0.124 A 
BRANCH  29  30
ATOM     30  O   UNL     1       5.224   5.051  -0.032  0.00  0.00    -0.506 OA
ATOM     31  H   UNL     1       4.989   5.360   0.854  0.00  0.00    +0.292 HD
ENDBRANCH  29  30
ENDBRANCH  23  24
ENDBRANCH   9  22
BRANCH   7  32
ATOM     32  O   UNL     1      -0.641  -0.509  -1.170  0.00  0.00    -0.363 OA
ATOM     33  H   UNL     1      -1.574  -0.264  -1.243  0.00  0.00    +0.212 HD
ENDBRANCH   7  32
TORSDOF 6
