REMARK  Name = ZINC28048955
REMARK  10 active torsions:
REMARK  status: ('A' for Active; 'I' for Inactive)
REMARK    1  A    between atoms: C_1  and  C_2
REMARK    2  A    between atoms: C_2  and  C_3
REMARK    3  A    between atoms: C_2  and  C_4
REMARK    4  A    between atoms: C_4  and  C_5
REMARK    5  A    between atoms: N_7  and  C_8
REMARK    6  A    between atoms: C_11  and  S_14
REMARK    7  A    between atoms: S_14  and  N_17
REMARK    8  A    between atoms: N_17  and  C_18
REMARK    9  A    between atoms: C_27  and  O_28
REMARK   10  A    between atoms: N_29  and  C_30
REMARK                            x       y       z     vdW  Elec       q    Type
REMARK                         _______ _______ _______ _____ _____    ______ ____
ROOT
ATOM      1  C   UNL     1      -3.938   4.649   2.589  0.00  0.00    +0.152 A 
ATOM      2  C   UNL     1      -4.123   4.795   3.952  0.00  0.00    +0.076 A 
ATOM      3  C   UNL     1      -3.081   5.500   4.716  0.00  0.00    +0.042 A 
ATOM      4  C   UNL     1      -3.200   5.681   6.095  0.00  0.00    +0.013 A 
ATOM      5  C   UNL     1      -2.211   6.350   6.782  0.00  0.00    +0.001 A 
ATOM      6  C   UNL     1      -1.102   6.842   6.109  0.00  0.00    +0.004 A 
ATOM      7  C   UNL     1      -0.973   6.670   4.747  0.00  0.00    +0.047 A 
ATOM      8  C   UNL     1      -1.959   5.999   4.035  0.00  0.00    +0.141 A 
ATOM      9  O   UNL     1      -1.846   5.824   2.701  0.00  0.00    -0.424 OA
ATOM     10  C   UNL     1      -2.782   5.180   1.987  0.00  0.00    +0.310 A 
ATOM     11  N   UNL     1      -5.249   4.291   4.577  0.00  0.00    -0.380 N 
ATOM     12  H   UNL     1      -5.210   3.310   5.073  0.00  0.00    +0.160 HD
ENDROOT
BRANCH  11  13
ATOM     13  C   UNL     1      -6.378   5.223   4.460  0.00  0.00    +0.079 C 
ATOM     14  C   UNL     1      -6.248   6.319   5.521  0.00  0.00    +0.024 C 
ATOM     15  C   UNL     1      -7.424   7.290   5.399  0.00  0.00    +0.002 C 
ATOM     16  C   UNL     1      -8.736   6.531   5.608  0.00  0.00    +0.000 C 
ATOM     17  C   UNL     1      -8.866   5.436   4.548  0.00  0.00    +0.002 C 
ATOM     18  C   UNL     1      -7.690   4.465   4.670  0.00  0.00    +0.024 C 
ENDBRANCH  11  13
BRANCH   1  19
ATOM     19  N   UNL     1      -4.900   3.981   1.810  0.00  0.00    -0.208 N 
ATOM     20  H   UNL     1      -5.934   4.352   1.776  0.00  0.00    +0.174 HD
BRANCH  19  21
ATOM     21  S   UNL     1      -4.474   2.633   0.946  0.00  0.00    +0.073 S 
ATOM     22  O   UNL     1      -3.324   2.983   0.188  0.00  0.00    -0.150 OA
ATOM     23  O   UNL     1      -5.665   2.146   0.343  0.00  0.00    -0.150 OA
BRANCH  21  27
ATOM     24  C   UNL     1      -3.153  -0.509   3.928  0.00  0.00    +0.033 A 
ATOM     25  C   UNL     1      -2.250   0.445   3.476  0.00  0.00    +0.025 A 
ATOM     26  C   UNL     1      -2.655   1.399   2.563  0.00  0.00    +0.030 A 
ATOM     27  C   UNL     1      -3.960   1.411   2.106  0.00  0.00    +0.109 A 
ATOM     28  C   UNL     1      -4.863   0.466   2.559  0.00  0.00    +0.030 A 
ATOM     29  C   UNL     1      -4.463  -0.494   3.468  0.00  0.00    +0.025 A 
BRANCH  24  32
ATOM     30  C   UNL     1      -3.253  -2.727   4.783  0.00  0.00    +0.217 C 
ATOM     31  O   UNL     1      -4.124  -2.985   3.980  0.00  0.00    -0.275 OA
ATOM     32  N   UNL     1      -2.744  -1.480   4.848  0.00  0.00    -0.285 N 
ATOM     33  H   UNL     1      -2.009  -1.226   5.625  0.00  0.00    +0.155 HD
BRANCH  30  34
ATOM     34  C   UNL     1      -2.739  -3.799   5.709  0.00  0.00    +0.099 C 
BRANCH  34  36
ATOM     35  C   UNL     1      -3.139  -5.596   4.019  0.00  0.00    +0.008 C 
ATOM     36  C   UNL     1      -3.477  -5.110   5.430  0.00  0.00    -0.008 C 
ATOM     37  C   UNL     1      -3.046  -6.165   6.450  0.00  0.00    +0.008 C 
ENDBRANCH  34  36
ENDBRANCH  30  34
ENDBRANCH  24  32
ENDBRANCH  21  27
ENDBRANCH  19  21
ENDBRANCH   1  19
BRANCH  10  38
ATOM     38  O   UNL     1      -2.628   5.051   0.785  0.00  0.00    -0.479 OA
ATOM     39  H   UNL     1      -1.730   5.461   0.299  0.00  0.00    +0.295 HD
ENDBRANCH  10  38
TORSDOF 8
