REMARK  Name = ZINC39691305
REMARK  7 active torsions:
REMARK  status: ('A' for Active; 'I' for Inactive)
REMARK    1  A    between atoms: C_10  and  C_11
REMARK    2  A    between atoms: C_11  and  C_12
REMARK    3  A    between atoms: N_14  and  C_15
REMARK    4  A    between atoms: C_15  and  C_16
REMARK    5  A    between atoms: C_16  and  N_17
REMARK    6  A    between atoms: C_18  and  C_20
REMARK    7  A    between atoms: C_31  and  C_33
REMARK                            x       y       z     vdW  Elec       q    Type
REMARK                         _______ _______ _______ _____ _____    ______ ____
ROOT
ATOM      1  N   UNL     1       9.480   4.012   3.093  0.00  0.00    -0.314 N 
ATOM      2  C   UNL     1      10.036   3.205   4.019  0.00  0.00    +0.218 C 
ATOM      3  O   UNL     1      10.379   2.082   3.717  0.00  0.00    -0.275 OA
ATOM      4  H   UNL     1       9.205   4.910   3.335  0.00  0.00    +0.149 HD
ENDROOT
BRANCH   2   5
ATOM      5  C   UNL     1      10.231   3.699   5.429  0.00  0.00    +0.100 C 
ATOM      6  C   UNL     1      10.212   2.515   6.422  0.00  0.00    +0.121 C 
ATOM      7  N   UNL     1      11.639   2.165   6.613  0.00  0.00    -0.296 N 
ATOM      8  C   UNL     1      12.337   3.472   6.656  0.00  0.00    +0.115 C 
ATOM      9  C   UNL     1      11.626   4.327   5.589  0.00  0.00    -0.004 C 
ATOM     10  C   UNL     1      12.388   4.262   4.269  0.00  0.00    -0.010 C 
ATOM     11  C   UNL     1      13.749   4.943   4.438  0.00  0.00    -0.082 C 
ATOM     12  N   UNL     1      13.553   6.339   4.845  0.00  0.00    +0.379 N 
ATOM     13  C   UNL     1      12.902   6.391   6.159  0.00  0.00    -0.082 C 
ATOM     14  C   UNL     1      11.505   5.771   6.064  0.00  0.00    -0.010 C 
ATOM     15  C   UNL     1      12.180   0.935   6.723  0.00  0.00    +0.249 C 
ATOM     16  O   UNL     1      13.364   0.812   6.972  0.00  0.00    -0.270 OA
ATOM     17  H   UNL     1      14.448   6.802   4.896  0.00  0.00    -0.086 HD
ATOM     18  H   UNL     1      12.974   6.808   4.165  0.00  0.00    -0.086 HD
BRANCH  15  19
ATOM     19  C   UNL     1      11.335  -0.262   6.541  0.00  0.00    +0.072 A 
ATOM     20  C   UNL     1      10.006  -0.255   6.968  0.00  0.00    +0.016 A 
ATOM     21  C   UNL     1       9.222  -1.376   6.794  0.00  0.00    +0.001 A 
ATOM     22  C   UNL     1       9.750  -2.509   6.199  0.00  0.00    +0.003 A 
ATOM     23  C   UNL     1      11.064  -2.527   5.774  0.00  0.00    +0.039 A 
ATOM     24  C   UNL     1      11.861  -1.408   5.935  0.00  0.00    +0.135 A 
ATOM     25  F   UNL     1      13.145  -1.423   5.514  0.00  0.00    -0.205 F 
ENDBRANCH  15  19
ENDBRANCH   2   5
BRANCH   1  26
ATOM     26  C   UNL     1       9.290   3.531   1.722  0.00  0.00    +0.123 C 
BRANCH  26  27
ATOM     27  C   UNL     1       8.645   4.634   0.880  0.00  0.00    +0.123 C 
BRANCH  27  30
ATOM     28  C   UNL     1       7.899   4.960  -1.417  0.00  0.00    +0.217 C 
ATOM     29  O   UNL     1       7.556   6.083  -1.115  0.00  0.00    -0.275 OA
ATOM     30  N   UNL     1       8.455   4.153  -0.491  0.00  0.00    -0.314 N 
ATOM     31  H   UNL     1       8.730   3.255  -0.732  0.00  0.00    +0.149 HD
BRANCH  28  32
ATOM     32  C   UNL     1       7.705   4.466  -2.827  0.00  0.00    +0.131 C 
BRANCH  32  42
ATOM     33  C   UNL     1       9.399   8.512  -5.465  0.00  0.00    +0.001 A 
ATOM     34  C   UNL     1      10.005   7.516  -4.700  0.00  0.00    +0.001 A 
ATOM     35  C   UNL     1       9.264   6.543  -4.104  0.00  0.00    +0.009 A 
ATOM     36  C   UNL     1       7.867   6.539  -4.258  0.00  0.00    -0.014 A 
ATOM     37  C   UNL     1       7.251   7.552  -5.035  0.00  0.00    -0.018 A 
ATOM     38  C   UNL     1       8.050   8.540  -5.636  0.00  0.00    +0.008 A 
ATOM     39  C   UNL     1       5.855   7.549  -5.188  0.00  0.00    +0.008 A 
ATOM     40  C   UNL     1       5.114   6.576  -4.591  0.00  0.00    +0.001 A 
ATOM     41  C   UNL     1       5.719   5.581  -3.827  0.00  0.00    +0.005 A 
ATOM     42  C   UNL     1       7.069   5.551  -3.656  0.00  0.00    -0.031 A 
ENDBRANCH  32  42
ENDBRANCH  28  32
ENDBRANCH  27  30
ENDBRANCH  26  27
ENDBRANCH   1  26
TORSDOF 7
