REMARK  Name = ZINC39957765
REMARK  5 active torsions:
REMARK  status: ('A' for Active; 'I' for Inactive)
REMARK    1  A    between atoms: C_1  and  C_2
REMARK    2  A    between atoms: C_5  and  S_10
REMARK    3  A    between atoms: S_10  and  C_11
REMARK    4  A    between atoms: C_15  and  C_24
REMARK    5  A    between atoms: N_16  and  C_17
REMARK                            x       y       z     vdW  Elec       q    Type
REMARK                         _______ _______ _______ _____ _____    ______ ____
ROOT
ATOM      1  C   UNL     1      -1.867  -3.694   2.142  0.00  0.00    +0.242 C 
ATOM      2  N   UNL     1      -0.494  -3.807   2.664  0.00  0.00    -0.237 N 
ATOM      3  N   UNL     1      -0.072  -5.113   2.393  0.00  0.00    -0.169 NA
ATOM      4  C   UNL     1      -1.004  -5.796   1.781  0.00  0.00    +0.151 C 
ATOM      5  N   UNL     1      -2.153  -5.022   1.577  0.00  0.00    -0.254 N 
ATOM      6  H   UNL     1       0.017  -3.112   3.107  0.00  0.00    +0.171 HD
ENDROOT
BRANCH   4   7
ATOM      7  C   UNL     1      -0.871  -7.135   1.382  0.00  0.00    +0.022 C 
ATOM      8  C   UNL     1       0.199  -7.991   1.645  0.00  0.00    +0.006 A 
ATOM      9  C   UNL     1       1.412  -7.814   2.345  0.00  0.00    +0.010 A 
ATOM     10  C   UNL     1       2.288  -8.847   2.445  0.00  0.00    +0.001 A 
ATOM     11  C   UNL     1       2.022 -10.091   1.868  0.00  0.00    +0.002 A 
ATOM     12  C   UNL     1       0.878 -10.331   1.182  0.00  0.00    +0.026 A 
ATOM     13  C   UNL     1      -0.086  -9.300   1.036  0.00  0.00    +0.043 A 
ATOM     14  N   UNL     1      -1.256  -9.281   0.427  0.00  0.00    -0.380 N 
ATOM     15  C   UNL     1      -1.860  -7.953   0.582  0.00  0.00    +0.152 C 
ATOM     16  H   UNL     1      -1.656 -10.028  -0.045  0.00  0.00    +0.160 HD
ENDBRANCH   4   7
BRANCH   5  17
ATOM     17  C   UNL     1      -3.338  -5.429   0.957  0.00  0.00    +0.038 A 
ATOM     18  C   UNL     1      -4.376  -5.953   1.717  0.00  0.00    +0.025 A 
ATOM     19  C   UNL     1      -5.546  -6.354   1.103  0.00  0.00    +0.022 A 
ATOM     20  C   UNL     1      -5.684  -6.234  -0.269  0.00  0.00    +0.041 A 
ATOM     21  C   UNL     1      -4.652  -5.714  -1.029  0.00  0.00    +0.022 A 
ATOM     22  C   UNL     1      -3.482  -5.305  -0.419  0.00  0.00    +0.025 A 
ATOM     23 CL   UNL     1      -7.156  -6.740  -1.039  0.00  0.00    -0.084 Cl
ENDBRANCH   5  17
BRANCH   1  24
ATOM     24  S   UNL     1      -1.952  -2.423   0.851  0.00  0.00    -0.103 S 
BRANCH  24  28
ATOM     25  C   UNL     1       1.035  -0.543  -2.611  0.00  0.00    +0.052 C 
ATOM     26  C   UNL     1       0.757  -1.868  -1.898  0.00  0.00    +0.175 C 
ATOM     27  C   UNL     1      -0.761  -2.035  -1.619  0.00  0.00    +0.070 C 
ATOM     28  C   UNL     1      -0.726  -2.958  -0.374  0.00  0.00    +0.162 C 
ATOM     29  C   UNL     1       0.681  -2.789   0.167  0.00  0.00    +0.321 C 
ATOM     30  O   UNL     1       1.148  -3.386   1.108  0.00  0.00    -0.250 OA
ATOM     31  O   UNL     1       1.329  -1.866  -0.573  0.00  0.00    -0.461 OA
ENDBRANCH  24  28
ENDBRANCH   1  24
TORSDOF 4
