REMARK  Name = ZINC20058212
REMARK  6 active torsions:
REMARK  status: ('A' for Active; 'I' for Inactive)
REMARK    1  A    between atoms: C_1  and  O_2
REMARK    2  A    between atoms: O_2  and  C_3
REMARK    3  A    between atoms: C_8  and  C_9
REMARK    4  A    between atoms: C_20  and  N_27
REMARK    5  A    between atoms: C_22  and  O_25
REMARK    6  A    between atoms: O_25  and  C_26
REMARK                            x       y       z     vdW  Elec       q    Type
REMARK                         _______ _______ _______ _____ _____    ______ ____
ROOT
ATOM      1  C   UNL     1       1.347   1.548  -0.003  0.00  0.00    +0.109 C 
ATOM      2  C   UNL     1       1.973   1.156  -1.343  0.00  0.00    +0.029 C 
ATOM      3  C   UNL     1       3.353   1.866  -1.449  0.00  0.00    +0.033 C 
ATOM      4  C   UNL     1       3.000   3.260  -1.928  0.00  0.00    -0.030 C 
ATOM      5  C   UNL     1       1.822   3.264  -2.501  0.00  0.00    -0.023 C 
ATOM      6  C   UNL     1       1.203   1.862  -2.480  0.00  0.00    +0.049 C 
ATOM      7  C   UNL     1      -0.269   1.915  -2.198  0.00  0.00    -0.014 A 
ATOM      8  C   UNL     1      -1.109   2.381  -3.203  0.00  0.00    +0.039 A 
ATOM      9  C   UNL     1      -2.472   2.456  -3.006  0.00  0.00    +0.130 A 
ATOM     10  C   UNL     1      -3.019   2.065  -1.797  0.00  0.00    +0.080 A 
ATOM     11  C   UNL     1      -2.195   1.599  -0.790  0.00  0.00    +0.143 A 
ATOM     12  C   UNL     1      -0.808   1.557  -0.998  0.00  0.00    +0.074 A 
ATOM     13  N   UNL     1      -0.031   1.060   0.051  0.00  0.00    -0.334 N 
ATOM     14  H   UNL     1      -0.343   0.381   0.859  0.00  0.00    +0.147 HD
ENDROOT
BRANCH   1  20
ATOM     15  C   UNL     1       2.002   1.417   2.414  0.00  0.00    +0.125 A 
ATOM     16  C   UNL     1       2.730   0.846   3.448  0.00  0.00    +0.047 A 
ATOM     17  C   UNL     1       3.602  -0.193   3.186  0.00  0.00    +0.019 A 
ATOM     18  C   UNL     1       3.744  -0.669   1.895  0.00  0.00    +0.018 A 
ATOM     19  C   UNL     1       3.015  -0.105   0.864  0.00  0.00    +0.024 A 
ATOM     20  C   UNL     1       2.142   0.934   1.121  0.00  0.00    +0.016 A 
ATOM     21 BR   UNL     1       4.938  -2.091   1.539  0.00  0.00    -0.050 Br
BRANCH  15  23
ATOM     22  C   UNL     1       1.055   2.889   4.023  0.00  0.00    +0.277 C 
ATOM     23  O   UNL     1       1.149   2.443   2.669  0.00  0.00    -0.495 OA
ENDBRANCH  15  23
ENDBRANCH   1  20
BRANCH   9  24
ATOM     24  N   UNL     1      -3.349   2.954  -4.088  0.00  0.00    +0.057 N 
ATOM     25  O   UNL     1      -2.868   3.298  -5.153  0.00  0.00    -0.126 OA
ATOM     26  O   UNL     1      -4.553   3.021  -3.914  0.00  0.00    -0.126 OA
ENDBRANCH   9  24
BRANCH  11  27
ATOM     27  O   UNL     1      -2.730   1.213   0.399  0.00  0.00    -0.493 OA
ATOM     28  C   UNL     1      -4.148   1.317   0.537  0.00  0.00    +0.277 C 
ENDBRANCH  11  27
TORSDOF 4
