REMARK  Name = ZINC39466879
REMARK  7 active torsions:
REMARK  status: ('A' for Active; 'I' for Inactive)
REMARK    1  A    between atoms: C_1  and  C_2
REMARK    2  A    between atoms: C_2  and  O_3
REMARK    3  A    between atoms: O_3  and  C_4
REMARK    4  A    between atoms: P_13  and  C_29
REMARK    5  A    between atoms: C_21  and  C_22
REMARK    6  A    between atoms: C_27  and  O_28
REMARK    7  A    between atoms: C_29  and  C_30
REMARK                            x       y       z     vdW  Elec       q    Type
REMARK                         _______ _______ _______ _____ _____    ______ ____
ROOT
ATOM      1  C   UNL     1      -1.498  -1.848   0.006  0.00  0.00    +0.124 C 
ATOM      2  C   UNL     1      -0.430  -2.652  -0.003  0.00  0.00    +0.023 C 
ATOM      3  C   UNL     1      -0.641  -4.140   0.003  0.00  0.00    +0.019 C 
ATOM      4  C   UNL     1       0.582  -4.878   0.540  0.00  0.00    -0.002 C 
ATOM      5  C   UNL     1       0.302  -6.387   0.558  0.00  0.00    -0.020 C 
ATOM      6  C   UNL     1       1.550  -7.075   1.126  0.00  0.00    +0.156 C 
ATOM      7  O   UNL     1       1.370  -8.502   1.082  0.00  0.00    -0.319 OA
ATOM      8  P   UNL     1      -0.007  -9.110   1.700  0.00  0.00    +0.262 P 
ATOM      9  O   UNL     1       0.092  -9.206   3.174  0.00  0.00    -0.274 OA
ATOM     10  N   UNL     1      -1.186  -8.036   1.275  0.00  0.00    -0.291 NA
ATOM     11  N   UNL     1      -0.874  -6.695   1.372  0.00  0.00    +0.397 N 
ATOM     12  C   UNL     1      -2.066  -5.976   0.889  0.00  0.00    -0.046 C 
ATOM     13  C   UNL     1      -1.829  -4.472   0.916  0.00  0.00    +0.005 C 
ATOM     14  C   UNL     1      -3.032  -3.698   0.451  0.00  0.00    -0.013 C 
ATOM     15  C   UNL     1      -2.858  -2.438   0.016  0.00  0.00    +0.023 C 
ATOM     16  H   UNL     1      -2.059  -8.340   0.979  0.00  0.00    +0.111 HD
ATOM     17  H   UNL     1      -0.694  -6.446   2.333  0.00  0.00    -0.055 HD
ENDROOT
BRANCH  15  18
ATOM     18  C   UNL     1      -4.020  -1.646  -0.455  0.00  0.00    +0.027 A 
ATOM     19  C   UNL     1      -4.919  -1.109   0.463  0.00  0.00    +0.012 A 
ATOM     20  C   UNL     1      -5.998  -0.372   0.019  0.00  0.00    +0.001 A 
ATOM     21  C   UNL     1      -6.192  -0.166  -1.336  0.00  0.00    +0.004 A 
ATOM     22  C   UNL     1      -5.306  -0.695  -2.255  0.00  0.00    +0.046 A 
ATOM     23  C   UNL     1      -4.214  -1.431  -1.823  0.00  0.00    +0.125 A 
BRANCH  23  24
ATOM     24  O   UNL     1      -3.340  -1.947  -2.726  0.00  0.00    -0.506 OA
ATOM     25  H   UNL     1      -3.571  -2.834  -3.034  0.00  0.00    +0.292 HD
ENDBRANCH  23  24
ENDBRANCH  15  18
BRANCH   1  26
ATOM     26  O   UNL     1      -1.339  -0.499   0.012  0.00  0.00    -0.492 OA
BRANCH  26  28
ATOM     27  C   UNL     1      -0.019   1.526   0.010  0.00  0.00    +0.048 C 
ATOM     28  C   UNL     1       0.002  -0.004   0.002  0.00  0.00    +0.225 C 
ENDBRANCH  26  28
ENDBRANCH   1  26
BRANCH   8  29
ATOM     29  C   UNL     1      -0.351 -10.750   0.983  0.00  0.00    +0.147 C 
BRANCH  29  30
ATOM     30  C   UNL     1       0.786 -11.686   1.300  0.00  0.00    -0.037 A 
ATOM     31  C   UNL     1       1.861 -11.784   0.436  0.00  0.00    +0.004 A 
ATOM     32  C   UNL     1       2.905 -12.643   0.727  0.00  0.00    +0.000 A 
ATOM     33  C   UNL     1       2.874 -13.403   1.881  0.00  0.00    +0.000 A 
ATOM     34  C   UNL     1       1.799 -13.304   2.745  0.00  0.00    +0.000 A 
ATOM     35  C   UNL     1       0.758 -12.442   2.457  0.00  0.00    +0.004 A 
ENDBRANCH  29  30
ENDBRANCH   8  29
TORSDOF 6
