REMARK  Name = ZINC25149722
REMARK  10 active torsions:
REMARK  status: ('A' for Active; 'I' for Inactive)
REMARK    1  A    between atoms: C_1  and  O_2
REMARK    2  A    between atoms: O_2  and  C_3
REMARK    3  A    between atoms: C_7  and  C_9
REMARK    4  A    between atoms: C_9  and  C_11
REMARK    5  A    between atoms: C_9  and  O_29
REMARK    6  A    between atoms: C_11  and  N_12
REMARK    7  A    between atoms: C_18  and  C_20
REMARK    8  A    between atoms: O_29  and  C_30
REMARK    9  A    between atoms: C_30  and  C_31
REMARK   10  A    between atoms: C_34  and  C_37
REMARK                            x       y       z     vdW  Elec       q    Type
REMARK                         _______ _______ _______ _____ _____    ______ ____
ROOT
ATOM      1  C   UNL     1       0.739   3.694   3.950  0.00  0.00    +0.132 C 
ENDROOT
BRANCH   1   6
ATOM      2  C   UNL     1       3.019   5.215   6.551  0.00  0.00    +0.120 A 
ATOM      3  C   UNL     1       3.277   4.121   7.364  0.00  0.00    +0.045 A 
ATOM      4  C   UNL     1       2.713   2.895   7.068  0.00  0.00    +0.004 A 
ATOM      5  C   UNL     1       1.889   2.759   5.966  0.00  0.00    +0.006 A 
ATOM      6  C   UNL     1       1.634   3.847   5.152  0.00  0.00    -0.017 A 
ATOM      7  C   UNL     1       2.195   5.075   5.444  0.00  0.00    +0.051 A 
BRANCH   2   9
ATOM      8  C   UNL     1       4.409   6.493   7.996  0.00  0.00    +0.277 C 
ATOM      9  O   UNL     1       3.571   6.423   6.840  0.00  0.00    -0.495 OA
ENDBRANCH   2   9
ENDBRANCH   1   6
BRANCH   1  10
ATOM     10  C   UNL     1       1.533   3.074   2.798  0.00  0.00    -0.042 C 
BRANCH  10  11
ATOM     11  N   UNL     1       0.651   2.888   1.639  0.00  0.00    +0.384 N 
ATOM     12  C   UNL     1       1.398   2.367   0.486  0.00  0.00    -0.059 C 
ATOM     13  C   UNL     1       0.418   2.018  -0.639  0.00  0.00    +0.089 C 
ATOM     14  N   UNL     1      -0.412   3.199  -0.919  0.00  0.00    -0.301 N 
ATOM     15  C   UNL     1      -1.085   3.860   0.210  0.00  0.00    +0.089 C 
ATOM     16  C   UNL     1      -0.046   4.137   1.302  0.00  0.00    -0.059 C 
ATOM     17  C   UNL     1      -0.553   3.663  -2.176  0.00  0.00    +0.253 C 
ATOM     18  O   UNL     1      -1.278   4.615  -2.396  0.00  0.00    -0.269 OA
ATOM     19  H   UNL     1      -0.112   2.143   1.908  0.00  0.00    -0.082 HD
BRANCH  17  20
ATOM     20  C   UNL     1       0.170   3.019  -3.283  0.00  0.00    +0.075 A 
ATOM     21  C   UNL     1       0.717   3.595  -4.386  0.00  0.00    +0.029 A 
ATOM     22  C   UNL     1       1.379   2.800  -5.338  0.00  0.00    -0.010 A 
ATOM     23  C   UNL     1       2.012   3.211  -6.539  0.00  0.00    +0.009 A 
ATOM     24  C   UNL     1       2.606   2.305  -7.357  0.00  0.00    +0.001 A 
ATOM     25  C   UNL     1       2.618   0.948  -7.055  0.00  0.00    +0.001 A 
ATOM     26  C   UNL     1       2.013   0.504  -5.896  0.00  0.00    +0.015 A 
ATOM     27  C   UNL     1       1.407   1.413  -5.056  0.00  0.00    +0.020 A 
ATOM     28  S   UNL     1       0.538   1.289  -3.513  0.00  0.00    -0.084 S 
ENDBRANCH  17  20
ENDBRANCH  10  11
ENDBRANCH   1  10
BRANCH   1  29
ATOM     29  O   UNL     1      -0.362   2.846   4.280  0.00  0.00    -0.369 OA
BRANCH  29  30
ATOM     30  C   UNL     1      -1.499   3.542   4.795  0.00  0.00    +0.195 C 
BRANCH  30  31
ATOM     31  C   UNL     1      -2.594   2.555   5.107  0.00  0.00    -0.022 A 
ATOM     32  C   UNL     1      -3.526   2.232   4.138  0.00  0.00    +0.007 A 
ATOM     33  C   UNL     1      -4.529   1.325   4.416  0.00  0.00    +0.019 A 
ATOM     34  C   UNL     1      -4.607   0.742   5.682  0.00  0.00    +0.052 A 
ATOM     35  C   UNL     1      -3.665   1.078   6.657  0.00  0.00    +0.019 A 
ATOM     36  C   UNL     1      -2.665   1.982   6.364  0.00  0.00    +0.007 A 
BRANCH  34  37
ATOM     37  C   UNL     1      -5.647  -0.195   5.979  0.00  0.00    +0.099 C 
ATOM     38  N   UNL     1      -6.473  -0.939   6.215  0.00  0.00    -0.191 NA
ENDBRANCH  34  37
ENDBRANCH  30  31
ENDBRANCH  29  30
ENDBRANCH   1  29
TORSDOF 9
