REMARK  Name = ZINC26569815
REMARK  6 active torsions:
REMARK  status: ('A' for Active; 'I' for Inactive)
REMARK    1  A    between atoms: C_1  and  C_2
REMARK    2  A    between atoms: C_8  and  N_10
REMARK    3  A    between atoms: C_14  and  C_16
REMARK    4  A    between atoms: C_16  and  S_17
REMARK    5  A    between atoms: S_17  and  C_18
REMARK    6  A    between atoms: C_21  and  C_24
REMARK                            x       y       z     vdW  Elec       q    Type
REMARK                         _______ _______ _______ _____ _____    ______ ____
ROOT
ATOM      1  N   UNL     1      10.903  -3.578  -0.112  0.00  0.00    -0.296 N 
ATOM      2  C   UNL     1      10.312  -2.367  -0.101  0.00  0.00    +0.306 C 
ATOM      3  O   UNL     1      10.992  -1.359  -0.102  0.00  0.00    -0.252 OA
ATOM      4  N   UNL     1       8.968  -2.273  -0.088  0.00  0.00    -0.239 N 
ATOM      5  C   UNL     1       8.377  -1.062  -0.077  0.00  0.00    +0.231 C 
ATOM      6  O   UNL     1       9.054  -0.057  -0.079  0.00  0.00    -0.274 OA
ATOM      7  H   UNL     1      10.289  -4.490  -0.110  0.00  0.00    +0.151 HD
ATOM      8  H   UNL     1       8.353  -3.186  -0.087  0.00  0.00    +0.159 HD
ENDROOT
BRANCH   1  15
ATOM      9  C   UNL     1      12.247  -5.100  -2.177  0.00  0.00    +0.009 C 
ATOM     10  C   UNL     1      12.777  -5.016  -0.745  0.00  0.00    +0.006 C 
ATOM     11  C   UNL     1      12.194  -6.164   0.083  0.00  0.00    +0.005 C 
ATOM     12  C   UNL     1      12.724  -6.080   1.516  0.00  0.00    +0.000 C 
ATOM     13  C   UNL     1      12.312  -4.744   2.135  0.00  0.00    +0.002 C 
ATOM     14  C   UNL     1      12.895  -3.596   1.308  0.00  0.00    +0.022 C 
ATOM     15  C   UNL     1      12.365  -3.680  -0.125  0.00  0.00    +0.077 C 
ENDBRANCH   1  15
BRANCH   5  16
ATOM     16  C   UNL     1       6.873  -0.958  -0.064  0.00  0.00    +0.173 C 
BRANCH  16  17
ATOM     17  S   UNL     1       6.390   0.787  -0.051  0.00  0.00    -0.079 S 
BRANCH  17  18
ATOM     18  C   UNL     1       4.636   0.618  -0.036  0.00  0.00    +0.167 A 
ATOM     19  N   UNL     1       3.740   1.643  -0.029  0.00  0.00    -0.333 N 
ATOM     20  H   UNL     1       4.095   2.684  -0.035  0.00  0.00    +0.168 HD
ATOM     21  C   UNL     1       2.478   1.074  -0.015  0.00  0.00    +0.067 A 
ATOM     22  C   UNL     1       2.659  -0.272  -0.023  0.00  0.00    +0.139 A 
ATOM     23  N   UNL     1       3.976  -0.518  -0.036  0.00  0.00    -0.230 NA
BRANCH  21  24
ATOM     24  C   UNL     1       1.186   1.792   0.000  0.00  0.00    +0.000 A 
ATOM     25  C   UNL     1      -0.013   1.076   0.008  0.00  0.00    +0.013 A 
ATOM     26  C   UNL     1      -1.216   1.750   0.017  0.00  0.00    +0.039 A 
ATOM     27  C   UNL     1      -1.236   3.136   0.029  0.00  0.00    +0.123 A 
ATOM     28  C   UNL     1      -0.049   3.852   0.022  0.00  0.00    +0.039 A 
ATOM     29  C   UNL     1       1.160   3.187   0.008  0.00  0.00    +0.013 A 
ATOM     30  F   UNL     1      -2.417   3.792   0.043  0.00  0.00    -0.205 F 
ENDBRANCH  21  24
ENDBRANCH  17  18
ENDBRANCH  16  17
ENDBRANCH   5  16
TORSDOF 5
