REMARK  Name = ZINC09430586
REMARK  8 active torsions:
REMARK  status: ('A' for Active; 'I' for Inactive)
REMARK    1  A    between atoms: C_1  and  C_2
REMARK    2  A    between atoms: C_7  and  S_15
REMARK    3  A    between atoms: C_12  and  C_14
REMARK    4  A    between atoms: S_15  and  N_18
REMARK    5  A    between atoms: N_18  and  C_19
REMARK    6  A    between atoms: C_19  and  C_20
REMARK    7  A    between atoms: C_23  and  C_26
REMARK    8  A    between atoms: N_28  and  C_29
REMARK                            x       y       z     vdW  Elec       q    Type
REMARK                         _______ _______ _______ _____ _____    ______ ____
ROOT
ATOM      1  N   UNL     1      -0.612   2.486   3.705  0.00  0.00    -0.190 NA
ATOM      2  H   UNL     1       0.094   1.828   3.800  0.00  0.00    +0.148 HD
ENDROOT
BRANCH   1   3
ATOM      3  S   UNL     1      -0.992   3.483   4.972  0.00  0.00    +0.058 S 
ATOM      4  O   UNL     1      -0.138   3.117   6.047  0.00  0.00    -0.153 OA
ATOM      5  O   UNL     1      -1.036   4.804   4.449  0.00  0.00    -0.153 OA
BRANCH   3  11
ATOM      6  C   UNL     1      -8.301   2.412   4.759  0.00  0.00    +0.029 C 
ATOM      7  C   UNL     1      -7.370   3.205   5.678  0.00  0.00    +0.083 C 
ATOM      8  C   UNL     1      -6.332   3.978   4.848  0.00  0.00    +0.059 C 
ATOM      9  C   UNL     1      -4.997   3.428   5.298  0.00  0.00    -0.022 A 
ATOM     10  C   UNL     1      -3.709   3.743   4.909  0.00  0.00    +0.034 A 
ATOM     11  C   UNL     1      -2.633   3.085   5.474  0.00  0.00    +0.106 A 
ATOM     12  C   UNL     1      -2.847   2.118   6.440  0.00  0.00    +0.030 A 
ATOM     13  C   UNL     1      -4.130   1.805   6.835  0.00  0.00    +0.026 A 
ATOM     14  C   UNL     1      -5.223   2.461   6.265  0.00  0.00    +0.040 A 
ATOM     15  N   UNL     1      -6.588   2.296   6.520  0.00  0.00    -0.268 N 
ATOM     16  C   UNL     1      -7.108   1.427   7.410  0.00  0.00    +0.217 C 
ATOM     17  O   UNL     1      -6.373   0.758   8.105  0.00  0.00    -0.276 OA
ATOM     18  C   UNL     1      -8.602   1.287   7.540  0.00  0.00    +0.109 C 
ENDBRANCH   3  11
ENDBRANCH   1   3
BRANCH   1  19
ATOM     19  C   UNL     1      -1.344   2.597   2.441  0.00  0.00    +0.109 C 
BRANCH  19  20
ATOM     20  C   UNL     1      -0.580   1.856   1.342  0.00  0.00    +0.005 C 
ATOM     21  C   UNL     1      -0.549   0.360   1.662  0.00  0.00    +0.005 C 
ATOM     22  C   UNL     1       0.215  -0.382   0.564  0.00  0.00    +0.013 C 
ATOM     23  C   UNL     1      -0.482  -0.162  -0.780  0.00  0.00    +0.075 C 
ATOM     24  C   UNL     1      -0.512   1.334  -1.100  0.00  0.00    +0.013 C 
ATOM     25  C   UNL     1      -1.277   2.075  -0.002  0.00  0.00    +0.005 C 
BRANCH  23  26
ATOM     26  C   UNL     1       0.271  -0.892  -1.862  0.00  0.00    +0.216 C 
ATOM     27  O   UNL     1       1.268  -1.526  -1.586  0.00  0.00    -0.276 OA
ATOM     28  N   UNL     1      -0.162  -0.840  -3.137  0.00  0.00    -0.312 N 
ATOM     29  H   UNL     1      -0.959  -0.333  -3.358  0.00  0.00    +0.149 HD
BRANCH  28  30
ATOM     30  C   UNL     1       0.570  -1.550  -4.189  0.00  0.00    +0.073 C 
ATOM     31  C   UNL     1       1.740  -0.666  -4.667  0.00  0.00    +0.022 C 
ATOM     32  C   UNL     1       2.762  -1.547  -5.335  0.00  0.00    +0.002 C 
ATOM     33  C   UNL     1       2.569  -1.617  -6.862  0.00  0.00    +0.000 C 
ATOM     34  C   UNL     1       1.089  -1.736  -7.272  0.00  0.00    +0.000 C 
ATOM     35  C   UNL     1       0.323  -2.687  -6.393  0.00  0.00    +0.002 C 
ATOM     36  C   UNL     1      -0.352  -1.877  -5.267  0.00  0.00    +0.022 C 
ENDBRANCH  28  30
ENDBRANCH  23  26
ENDBRANCH  19  20
ENDBRANCH   1  19
TORSDOF 6
