REMARK  Name = ZINC04626283
REMARK  3 active torsions:
REMARK  status: ('A' for Active; 'I' for Inactive)
REMARK    1  A    between atoms: C_4  and  C_7
REMARK    2  A    between atoms: C_15  and  C_19
REMARK    3  A    between atoms: C_23  and  N_25
REMARK                            x       y       z     vdW  Elec       q    Type
REMARK                         _______ _______ _______ _____ _____    ______ ____
ROOT
ATOM      1  C   UNL     1       3.765  -0.688  -0.053  0.00  0.00    +0.067 C 
ATOM      2  C   UNL     1       3.944  -1.487   1.248  0.00  0.00    +0.134 C 
ATOM      3  C   UNL     1       4.985  -2.561   1.015  0.00  0.00    +0.314 C 
ATOM      4  O   UNL     1       5.989  -2.610   1.686  0.00  0.00    -0.250 OA
ATOM      5  O   UNL     1       4.758  -3.466   0.033  0.00  0.00    -0.407 OA
ATOM      6  C   UNL     1       4.235  -2.943  -1.111  0.00  0.00    +0.224 A 
ATOM      7  C   UNL     1       3.763  -1.667  -1.202  0.00  0.00    +0.050 A 
ATOM      8  C   UNL     1       3.303  -1.469  -2.510  0.00  0.00    +0.100 A 
ATOM      9  N   UNL     1       3.495  -2.587  -3.182  0.00  0.00    -0.171 NA
ATOM     10  N   UNL     1       4.081  -3.528  -2.317  0.00  0.00    -0.246 N 
ATOM     11  H   UNL     1       4.332  -4.436  -2.547  0.00  0.00    +0.192 HD
ENDROOT
BRANCH   1  15
ATOM     12  C   UNL     1       0.056   1.429   0.046  0.00  0.00    +0.000 A 
ATOM     13  C   UNL     1       1.250   2.126   0.052  0.00  0.00    +0.000 A 
ATOM     14  C   UNL     1       2.450   1.441   0.020  0.00  0.00    +0.004 A 
ATOM     15  C   UNL     1       2.457   0.059  -0.017  0.00  0.00    -0.039 A 
ATOM     16  C   UNL     1       1.263  -0.638  -0.022  0.00  0.00    +0.004 A 
ATOM     17  C   UNL     1       0.063   0.047   0.009  0.00  0.00    +0.000 A 
ENDBRANCH   1  15
BRANCH   8  18
ATOM     18  C   UNL     1       2.704  -0.221  -3.045  0.00  0.00    +0.005 A 
ATOM     19  C   UNL     1       3.280   1.013  -2.749  0.00  0.00    +0.010 A 
ATOM     20  C   UNL     1       2.719   2.171  -3.250  0.00  0.00    +0.003 A 
ATOM     21  C   UNL     1       1.587   2.107  -4.043  0.00  0.00    +0.033 A 
ATOM     22  C   UNL     1       1.012   0.885  -4.340  0.00  0.00    +0.127 A 
ATOM     23  C   UNL     1       1.568  -0.280  -3.849  0.00  0.00    +0.042 A 
BRANCH  22  24
ATOM     24  N   UNL     1      -0.199   0.824  -5.189  0.00  0.00    +0.056 N 
ATOM     25  O   UNL     1      -0.684   1.843  -5.623  0.00  0.00    -0.126 OA
ATOM     26  O   UNL     1      -0.703  -0.244  -5.448  0.00  0.00    -0.126 OA
ENDBRANCH  22  24
ENDBRANCH   8  18
TORSDOF 3
