REMARK  Name = ZINC13164887
REMARK  9 active torsions:
REMARK  status: ('A' for Active; 'I' for Inactive)
REMARK    1  A    between atoms: C_1  and  O_2
REMARK    2  A    between atoms: O_2  and  C_3
REMARK    3  A    between atoms: C_3  and  C_4
REMARK    4  A    between atoms: C_4  and  N_5
REMARK    5  A    between atoms: C_6  and  C_8
REMARK    6  A    between atoms: C_12  and  N_13
REMARK    7  A    between atoms: C_14  and  C_16
REMARK    8  A    between atoms: C_16  and  N_68
REMARK    9  A    between atoms: C_20  and  C_22
REMARK                            x       y       z     vdW  Elec       q    Type
REMARK                         _______ _______ _______ _____ _____    ______ ____
ROOT
ATOM      1  N   UNL     1      -3.221   3.888  -3.796  0.00  0.00    -0.281 N 
ATOM      2  C   UNL     1      -2.849   3.010  -2.844  0.00  0.00    +0.201 C 
ATOM      3  O   UNL     1      -2.968   1.819  -3.037  0.00  0.00    -0.278 OA
ATOM      4  H   UNL     1      -3.126   4.841  -3.642  0.00  0.00    +0.155 HD
ENDROOT
BRANCH   1   9
ATOM      5  C   UNL     1      -4.175   4.169  -6.088  0.00  0.00    +0.069 A 
ATOM      6  C   UNL     1      -4.680   3.438  -7.237  0.00  0.00    -0.023 A 
ATOM      7  C   UNL     1      -4.671   2.093  -7.113  0.00  0.00    -0.004 A 
ATOM      8  S   UNL     1      -3.996   1.792  -5.504  0.00  0.00    -0.077 S 
ATOM      9  C   UNL     1      -3.740   3.429  -4.997  0.00  0.00    +0.084 A 
ATOM     10  C   UNL     1      -5.129   1.090  -8.126  0.00  0.00    +0.043 C 
ATOM     11  C   UNL     1      -5.963   1.821  -9.188  0.00  0.00    +0.005 C 
ATOM     12  C   UNL     1      -5.202   3.072  -9.636  0.00  0.00    +0.005 C 
ATOM     13  C   UNL     1      -5.192   4.106  -8.508  0.00  0.00    +0.037 C 
BRANCH   5  15
ATOM     14  N   UNL     1      -5.178   6.343  -5.626  0.00  0.00    -0.309 N 
ATOM     15  C   UNL     1      -4.125   5.635  -6.081  0.00  0.00    +0.247 C 
ATOM     16  O   UNL     1      -3.132   6.212  -6.485  0.00  0.00    -0.270 OA
ATOM     17  H   UNL     1      -5.968   5.883  -5.304  0.00  0.00    +0.149 HD
BRANCH  14  18
ATOM     18  C   UNL     1      -5.128   7.807  -5.619  0.00  0.00    +0.132 C 
BRANCH  18  19
ATOM     19  C   UNL     1      -6.440   8.359  -5.058  0.00  0.00    +0.178 C 
BRANCH  19  21
ATOM     20  C   UNL     1      -7.769   8.446  -3.065  0.00  0.00    +0.194 C 
ATOM     21  O   UNL     1      -6.570   7.978  -3.687  0.00  0.00    -0.381 OA
ENDBRANCH  19  21
ENDBRANCH  18  19
ENDBRANCH  14  18
ENDBRANCH   5  15
ENDBRANCH   1   9
BRANCH   2  22
ATOM     22  C   UNL     1      -2.285   3.509  -1.538  0.00  0.00    +0.020 C 
BRANCH  22  27
ATOM     23  C   UNL     1      -0.799   1.616  -1.205  0.00  0.00    -0.077 C 
ATOM     24  C   UNL     1      -0.013   1.086   0.008  0.00  0.00    -0.020 C 
ATOM     25  C   UNL     1      -0.778   1.605   1.246  0.00  0.00    -0.013 C 
ATOM     26  C   UNL     1      -1.565   2.817   0.682  0.00  0.00    -0.037 C 
ATOM     27  N   UNL     1      -1.943   2.349  -0.661  0.00  0.00    +0.390 N 
ATOM     28  H   UNL     1      -2.755   1.725  -0.596  0.00  0.00    -0.080 HD
BRANCH  26  29
ATOM     29  C   UNL     1      -2.784   3.099   1.523  0.00  0.00    -0.057 A 
ATOM     30  C   UNL     1      -3.885   2.267   1.444  0.00  0.00    +0.006 A 
ATOM     31  C   UNL     1      -5.003   2.520   2.216  0.00  0.00    +0.049 A 
ATOM     32  C   UNL     1      -5.026   3.615   3.066  0.00  0.00    +0.162 A 
ATOM     33  C   UNL     1      -3.920   4.454   3.144  0.00  0.00    +0.162 A 
ATOM     34  C   UNL     1      -2.800   4.192   2.369  0.00  0.00    +0.051 A 
ATOM     35  O   UNL     1      -3.919   5.529   3.978  0.00  0.00    -0.485 OA
ATOM     36  C   UNL     1      -5.193   5.972   4.459  0.00  0.00    +0.270 C 
ATOM     37  C   UNL     1      -5.984   4.744   4.927  0.00  0.00    +0.270 C 
ATOM     38  O   UNL     1      -6.138   3.858   3.812  0.00  0.00    -0.485 OA
ENDBRANCH  26  29
ENDBRANCH  22  27
ENDBRANCH   2  22
TORSDOF 8
