REMARK  Name = ZINC11910603
REMARK  10 active torsions:
REMARK  status: ('A' for Active; 'I' for Inactive)
REMARK    1  A    between atoms: C_1  and  C_2
REMARK    2  A    between atoms: C_2  and  C_3
REMARK    3  A    between atoms: C_2  and  C_4
REMARK    4  A    between atoms: C_4  and  C_5
REMARK    5  A    between atoms: C_5  and  C_6
REMARK    6  A    between atoms: C_6  and  C_13
REMARK    7  A    between atoms: C_18  and  C_19
REMARK    8  A    between atoms: C_18  and  N_64
REMARK    9  A    between atoms: C_22  and  O_29
REMARK   10  A    between atoms: O_29  and  C_30
REMARK                            x       y       z     vdW  Elec       q    Type
REMARK                         _______ _______ _______ _____ _____    ______ ____
ROOT
ATOM      1  C   UNL     1       0.600  -5.972  -3.933  0.00  0.00    +0.018 C 
ATOM      2  C   UNL     1      -0.193  -6.742  -2.873  0.00  0.00    -0.013 C 
ATOM      3  C   UNL     1       0.197  -6.235  -1.483  0.00  0.00    -0.078 C 
ATOM      4  C   UNL     1       0.697  -4.033  -2.363  0.00  0.00    -0.078 C 
ATOM      5  C   UNL     1       0.322  -4.474  -3.780  0.00  0.00    -0.013 C 
ATOM      6  N   UNL     1      -0.118  -4.793  -1.392  0.00  0.00    +0.382 N 
ATOM      7  H   UNL     1      -1.112  -4.656  -1.611  0.00  0.00    -0.081 HD
ENDROOT
BRANCH   1   8
ATOM      8  C   UNL     1       0.172  -6.433  -5.328  0.00  0.00    +0.115 C 
ATOM      9  C   UNL     1      -1.339  -6.412  -5.455  0.00  0.00    +0.244 C 
ATOM     10  O   UNL     1      -2.069  -5.449  -5.357  0.00  0.00    -0.273 OA
ATOM     11  N   UNL     1      -1.701  -7.687  -5.699  0.00  0.00    -0.238 N 
ATOM     12  C   UNL     1      -0.641  -8.502  -5.744  0.00  0.00    +0.307 C 
ATOM     13  O   UNL     1      -0.715  -9.697  -5.950  0.00  0.00    -0.252 OA
ATOM     14  N   UNL     1       0.517  -7.849  -5.534  0.00  0.00    -0.285 N 
ATOM     15  H   UNL     1      -2.618  -7.978  -5.827  0.00  0.00    +0.159 HD
ATOM     16  H   UNL     1       1.406  -8.237  -5.521  0.00  0.00    +0.151 HD
BRANCH   8  17
ATOM     17  C   UNL     1       0.818  -5.558  -6.404  0.00  0.00    +0.036 C 
BRANCH  17  18
ATOM     18  C   UNL     1       0.373  -6.040  -7.787  0.00  0.00    +0.005 C 
BRANCH  18  20
ATOM     19  C   UNL     1       2.537  -5.360  -8.835  0.00  0.00    +0.007 C 
ATOM     20  C   UNL     1       1.020  -5.165  -8.863  0.00  0.00    -0.017 C 
ATOM     21  C   UNL     1       0.479  -5.565 -10.238  0.00  0.00    +0.007 C 
ENDBRANCH  18  20
ENDBRANCH  17  18
ENDBRANCH   8  17
ENDBRANCH   1   8
BRANCH   6  22
ATOM     22  C   UNL     1       0.143  -4.305  -0.022  0.00  0.00    -0.042 C 
BRANCH  22  23
ATOM     23  C   UNL     1       0.080  -2.800  -0.014  0.00  0.00    -0.056 A 
ATOM     24  C   UNL     1       1.228  -2.067  -0.021  0.00  0.00    +0.006 A 
ATOM     25  C   UNL     1       1.192  -0.676  -0.013  0.00  0.00    +0.046 A 
ATOM     26  C   UNL     1       0.002  -0.004   0.002  0.00  0.00    +0.128 A 
ATOM     27  C   UNL     1      -1.206  -0.730   0.015  0.00  0.00    +0.024 A 
ATOM     28  C   UNL     1      -1.164  -2.147   0.002  0.00  0.00    -0.013 A 
ATOM     29  C   UNL     1      -2.369  -2.871   0.009  0.00  0.00    +0.009 A 
ATOM     30  C   UNL     1      -3.555  -2.205   0.024  0.00  0.00    +0.001 A 
ATOM     31  C   UNL     1      -3.596  -0.812   0.033  0.00  0.00    +0.001 A 
ATOM     32  C   UNL     1      -2.449  -0.078   0.026  0.00  0.00    +0.012 A 
BRANCH  26  33
ATOM     33  O   UNL     1      -0.016   1.354   0.009  0.00  0.00    -0.495 OA
ATOM     34  C   UNL     1       1.248   2.020   0.001  0.00  0.00    +0.277 C 
ENDBRANCH  26  33
ENDBRANCH  22  23
ENDBRANCH   6  22
TORSDOF 7
