REMARK  Name = ZINC41393781
REMARK  2 active torsions:
REMARK  status: ('A' for Active; 'I' for Inactive)
REMARK    1  A    between atoms: C_1  and  N_2
REMARK    2  A    between atoms: N_12  and  C_13
REMARK                            x       y       z     vdW  Elec       q    Type
REMARK                         _______ _______ _______ _____ _____    ______ ____
ROOT
ATOM      1  C   UNL     1       0.418   1.439   0.030  0.00  0.00    +0.155 C 
ATOM      2  N   UNL     1       0.253  -0.016   0.013  0.00  0.00    -0.283 N 
ATOM      3  C   UNL     1       0.299  -0.673  -1.161  0.00  0.00    +0.264 A 
ATOM      4  O   UNL     1       0.478  -0.065  -2.202  0.00  0.00    -0.267 OA
ATOM      5  C   UNL     1       0.136  -2.094  -1.170  0.00  0.00    +0.076 A 
ATOM      6  C   UNL     1       0.150  -3.002  -2.318  0.00  0.00    -0.023 A 
ATOM      7  C   UNL     1      -0.027  -4.314  -2.063  0.00  0.00    -0.004 A 
ATOM      8  S   UNL     1      -0.220  -4.420  -0.304  0.00  0.00    -0.073 S 
ATOM      9  C   UNL     1      -0.062  -2.695   0.085  0.00  0.00    +0.117 A 
ATOM     10  N   UNL     1      -0.099  -1.988   1.209  0.00  0.00    -0.208 NA
ATOM     11  C   UNL     1       0.060  -0.681   1.189  0.00  0.00    +0.203 A 
ATOM     12  N   UNL     1       0.024   0.024   2.368  0.00  0.00    -0.285 N 
ATOM     13  C   UNL     1      -0.055  -5.437  -3.055  0.00  0.00    +0.043 C 
ATOM     14  C   UNL     1      -0.223  -4.838  -4.459  0.00  0.00    +0.005 C 
ATOM     15  C   UNL     1       0.773  -3.687  -4.624  0.00  0.00    +0.005 C 
ATOM     16  C   UNL     1       0.353  -2.506  -3.747  0.00  0.00    +0.037 C 
ATOM     17  H   UNL     1       0.057   0.993   2.354  0.00  0.00    +0.155 HD
ENDROOT
BRANCH  12  18
ATOM     18  C   UNL     1      -0.061  -0.657   3.588  0.00  0.00    +0.037 A 
ATOM     19  C   UNL     1       0.554  -1.893   3.738  0.00  0.00    +0.027 A 
ATOM     20  C   UNL     1       0.471  -2.567   4.942  0.00  0.00    +0.051 A 
ATOM     21  C   UNL     1      -0.226  -2.010   6.003  0.00  0.00    +0.166 A 
ATOM     22  C   UNL     1      -0.843  -0.771   5.856  0.00  0.00    +0.168 A 
ATOM     23  C   UNL     1      -0.755  -0.094   4.650  0.00  0.00    +0.072 A 
ATOM     24  O   UNL     1      -1.457  -0.447   7.031  0.00  0.00    -0.453 OA
ATOM     25  C   UNL     1      -1.556  -1.681   7.767  0.00  0.00    +0.466 C 
ATOM     26  O   UNL     1      -0.453  -2.463   7.271  0.00  0.00    -0.453 OA
ENDBRANCH  12  18
TORSDOF 1
