REMARK  Name = ZINC24214103
REMARK  12 active torsions:
REMARK  status: ('A' for Active; 'I' for Inactive)
REMARK    1  A    between atoms: C_1  and  O_2
REMARK    2  A    between atoms: O_2  and  C_3
REMARK    3  A    between atoms: C_3  and  C_4
REMARK    4  A    between atoms: C_4  and  N_5
REMARK    5  A    between atoms: C_6  and  C_8
REMARK    6  A    between atoms: C_12  and  N_13
REMARK    7  A    between atoms: C_14  and  C_16
REMARK    8  A    between atoms: C_16  and  N_17
REMARK    9  A    between atoms: N_17  and  C_18
REMARK   10  A    between atoms: N_17  and  C_25
REMARK   11  A    between atoms: C_18  and  C_19
REMARK   12  A    between atoms: C_25  and  C_26
REMARK                            x       y       z     vdW  Elec       q    Type
REMARK                         _______ _______ _______ _____ _____    ______ ____
ROOT
ATOM      1  N   UNL     1      -1.191   1.864   0.048  0.00  0.00    -0.281 N 
ATOM      2  C   UNL     1      -0.015   1.206   0.041  0.00  0.00    +0.201 C 
ATOM      3  O   UNL     1       0.002  -0.007   0.062  0.00  0.00    -0.278 OA
ATOM      4  H   UNL     1      -1.206   2.963   0.029  0.00  0.00    +0.155 HD
ENDROOT
BRANCH   1   9
ATOM      5  C   UNL     1      -3.679   1.648   0.096  0.00  0.00    +0.069 A 
ATOM      6  C   UNL     1      -4.764   0.682   0.124  0.00  0.00    -0.023 A 
ATOM      7  C   UNL     1      -4.381  -0.613   0.141  0.00  0.00    -0.004 A 
ATOM      8  S   UNL     1      -2.612  -0.562   0.113  0.00  0.00    -0.077 S 
ATOM      9  C   UNL     1      -2.382   1.155   0.079  0.00  0.00    +0.084 A 
ATOM     10  C   UNL     1      -5.271  -1.817   0.178  0.00  0.00    +0.043 C 
ATOM     11  C   UNL     1      -6.684  -1.363   0.570  0.00  0.00    +0.005 C 
ATOM     12  C   UNL     1      -7.067  -0.150  -0.283  0.00  0.00    +0.005 C 
ATOM     13  C   UNL     1      -6.239   1.065   0.139  0.00  0.00    +0.037 C 
BRANCH   5  15
ATOM     14  N   UNL     1      -4.044   3.768   1.243  0.00  0.00    -0.309 N 
ATOM     15  C   UNL     1      -3.944   3.090   0.082  0.00  0.00    +0.247 C 
ATOM     16  O   UNL     1      -4.074   3.675  -0.977  0.00  0.00    -0.270 OA
ATOM     17  H   UNL     1      -3.927   3.239   2.201  0.00  0.00    +0.149 HD
BRANCH  14  18
ATOM     18  C   UNL     1      -4.309   5.208   1.229  0.00  0.00    +0.132 C 
BRANCH  18  19
ATOM     19  C   UNL     1      -4.375   5.729   2.667  0.00  0.00    +0.178 C 
BRANCH  19  21
ATOM     20  C   UNL     1      -3.046   6.045   4.636  0.00  0.00    +0.194 C 
ATOM     21  O   UNL     1      -3.094   5.586   3.284  0.00  0.00    -0.381 OA
ENDBRANCH  19  21
ENDBRANCH  18  19
ENDBRANCH  14  18
ENDBRANCH   5  15
ENDBRANCH   1   9
BRANCH   2  22
ATOM     22  C   UNL     1       1.280   1.976   0.001  0.00  0.00    +0.020 C 
BRANCH  22  23
ATOM     23  N   UNL     1       2.409   1.042   0.106  0.00  0.00    +0.393 N 
ATOM     24  H   UNL     1       2.155   0.289   0.866  0.00  0.00    -0.080 HD
BRANCH  23  25
ATOM     25  C   UNL     1       2.633   0.343  -1.166  0.00  0.00    -0.042 C 
BRANCH  25  26
ATOM     26  C   UNL     1       3.626  -0.772  -0.958  0.00  0.00    -0.064 A 
ATOM     27  C   UNL     1       4.977  -0.534  -1.123  0.00  0.00    +0.002 A 
ATOM     28  C   UNL     1       5.888  -1.556  -0.927  0.00  0.00    +0.000 A 
ATOM     29  C   UNL     1       5.446  -2.818  -0.576  0.00  0.00    +0.000 A 
ATOM     30  C   UNL     1       4.094  -3.057  -0.417  0.00  0.00    +0.000 A 
ATOM     31  C   UNL     1       3.184  -2.034  -0.608  0.00  0.00    +0.002 A 
ENDBRANCH  25  26
ENDBRANCH  23  25
BRANCH  23  32
ATOM     32  C   UNL     1       3.627   1.736   0.547  0.00  0.00    -0.002 C 
BRANCH  32  33
ATOM     33  C   UNL     1       3.527   2.038   2.020  0.00  0.00    +0.089 A 
ATOM     34  C   UNL     1       3.851   1.197   3.019  0.00  0.00    +0.042 A 
ATOM     35  C   UNL     1       3.604   1.885   4.229  0.00  0.00    +0.041 A 
ATOM     36  C   UNL     1       3.145   3.105   3.898  0.00  0.00    +0.195 A 
ATOM     37  O   UNL     1       3.106   3.194   2.558  0.00  0.00    -0.470 OA
ENDBRANCH  32  33
ENDBRANCH  23  32
ENDBRANCH  22  23
ENDBRANCH   2  22
TORSDOF 11
