REMARK  Name = ZINC39709627
REMARK  15 active torsions:
REMARK  status: ('A' for Active; 'I' for Inactive)
REMARK    1  A    between atoms: C_1  and  N_2
REMARK    2  A    between atoms: N_2  and  C_3
REMARK    3  A    between atoms: N_2  and  C_4
REMARK    4  A    between atoms: C_4  and  C_5
REMARK    5  A    between atoms: C_5  and  C_6
REMARK    6  A    between atoms: C_6  and  N_7
REMARK    7  A    between atoms: N_7  and  C_8
REMARK    8  A    between atoms: C_8  and  N_10
REMARK    9  A    between atoms: N_10  and  C_11
REMARK   10  A    between atoms: N_10  and  C_28
REMARK   11  A    between atoms: C_11  and  C_12
REMARK   12  A    between atoms: C_17  and  O_26
REMARK   13  A    between atoms: C_18  and  O_24
REMARK   14  A    between atoms: O_24  and  C_25
REMARK   15  A    between atoms: O_26  and  C_27
REMARK                            x       y       z     vdW  Elec       q    Type
REMARK                         _______ _______ _______ _____ _____    ______ ____
ROOT
ATOM      1  N   UNL     1       6.468   0.060  -3.333  0.00  0.00    -0.309 N 
ENDROOT
BRANCH   1   2
ATOM      2  C   UNL     1       7.327   0.507  -2.234  0.00  0.00    +0.075 C 
ATOM      3  C   UNL     1       8.788   0.481  -2.686  0.00  0.00    +0.022 C 
ATOM      4  C   UNL     1       9.685   0.948  -1.538  0.00  0.00    +0.002 C 
ATOM      5  C   UNL     1       9.505   0.015  -0.338  0.00  0.00    +0.000 C 
ATOM      6  C   UNL     1       8.044   0.042   0.114  0.00  0.00    +0.002 C 
ATOM      7  C   UNL     1       7.147  -0.425  -1.035  0.00  0.00    +0.022 C 
ENDBRANCH   1   2
BRANCH   1   8
ATOM      8  C   UNL     1       5.130   0.030  -3.174  0.00  0.00    +0.133 C 
ATOM      9  S   UNL     1       4.135  -0.611  -4.411  0.00  0.00    -0.019 S 
BRANCH   8  10
ATOM     10  N   UNL     1       4.575   0.503  -2.040  0.00  0.00    -0.326 N 
ATOM     11  H   UNL     1       5.142   0.798  -1.310  0.00  0.00    +0.148 HD
BRANCH  10  12
ATOM     12  C   UNL     1       3.118   0.573  -1.911  0.00  0.00    +0.101 C 
BRANCH  12  13
ATOM     13  C   UNL     1       2.754   1.142  -0.539  0.00  0.00    +0.000 C 
BRANCH  13  14
ATOM     14  C   UNL     1       1.232   1.215  -0.404  0.00  0.00    -0.078 C 
BRANCH  14  16
ATOM     15  C   UNL     1       1.347   3.152   1.006  0.00  0.00    -0.097 C 
ATOM     16  N   UNL     1       0.882   1.762   0.914  0.00  0.00    +0.376 N 
ATOM     17  C   UNL     1      -0.576   1.721   1.090  0.00  0.00    -0.097 C 
ATOM     18  H   UNL     1       1.324   1.211   1.635  0.00  0.00    -0.083 HD
ENDBRANCH  14  16
ENDBRANCH  13  14
ENDBRANCH  12  13
ENDBRANCH  10  12
ENDBRANCH   8  10
ENDBRANCH   1   8
BRANCH   1  19
ATOM     19  C   UNL     1       7.063  -0.354  -4.606  0.00  0.00    +0.124 C 
BRANCH  19  20
ATOM     20  C   UNL     1       6.963   0.793  -5.614  0.00  0.00    +0.116 C 
ATOM     21  C   UNL     1       7.384   0.261  -6.969  0.00  0.00    -0.003 C 
ATOM     22  C   UNL     1       8.427   0.878  -7.586  0.00  0.00    -0.003 A 
ATOM     23  C   UNL     1       8.895   0.422  -8.898  0.00  0.00    +0.059 A 
ATOM     24  C   UNL     1       9.939   1.062  -9.484  0.00  0.00    +0.162 A 
ATOM     25  C   UNL     1      10.575   2.149  -8.855  0.00  0.00    +0.163 A 
ATOM     26  C   UNL     1      10.177   2.619  -7.624  0.00  0.00    +0.073 A 
ATOM     27  C   UNL     1       9.107   2.019  -6.945  0.00  0.00    +0.044 A 
ATOM     28  N   UNL     1       8.733   2.485  -5.752  0.00  0.00    -0.284 N 
ATOM     29  C   UNL     1       7.736   1.968  -5.057  0.00  0.00    +0.226 C 
ATOM     30  O   UNL     1       7.440   2.435  -3.973  0.00  0.00    -0.275 OA
ATOM     31  H   UNL     1       9.217   3.237  -5.377  0.00  0.00    +0.155 HD
BRANCH  25  32
ATOM     32  O   UNL     1      11.613   2.753  -9.482  0.00  0.00    -0.491 OA
ATOM     33  C   UNL     1      12.228   3.852  -8.807  0.00  0.00    +0.277 C 
ENDBRANCH  25  32
BRANCH  24  34
ATOM     34  O   UNL     1      10.379   0.644 -10.701  0.00  0.00    -0.491 OA
ATOM     35  C   UNL     1       9.698  -0.464 -11.293  0.00  0.00    +0.277 C 
ENDBRANCH  24  34
ENDBRANCH  19  20
ENDBRANCH   1  19
TORSDOF 11
