REMARK  Name = ZINC02971529
REMARK  9 active torsions:
REMARK  status: ('A' for Active; 'I' for Inactive)
REMARK    1  A    between atoms: C_4  and  C_7
REMARK    2  A    between atoms: C_7  and  N_8
REMARK    3  A    between atoms: C_9  and  C_11
REMARK    4  A    between atoms: C_11  and  S_12
REMARK    5  A    between atoms: S_12  and  C_13
REMARK    6  A    between atoms: N_23  and  N_24
REMARK    7  A    between atoms: C_25  and  C_27
REMARK    8  A    between atoms: C_27  and  C_28
REMARK    9  A    between atoms: C_28  and  C_29
REMARK                            x       y       z     vdW  Elec       q    Type
REMARK                         _______ _______ _______ _____ _____    ______ ____
ROOT
ATOM      1  C   UNL     1       0.108  -4.461   4.761  0.00  0.00    +0.190 A 
ATOM      2  N   UNL     1       0.107  -3.439   5.582  0.00  0.00    -0.222 NA
ATOM      3  C   UNL     1       0.118  -3.608   6.919  0.00  0.00    +0.079 A 
ATOM      4  C   UNL     1       0.112  -2.518   7.795  0.00  0.00    +0.028 A 
ATOM      5  C   UNL     1       0.129  -2.734   9.144  0.00  0.00    +0.002 A 
ATOM      6  C   UNL     1       0.151  -4.023   9.661  0.00  0.00    +0.001 A 
ATOM      7  C   UNL     1       0.157  -5.109   8.830  0.00  0.00    +0.015 A 
ATOM      8  C   UNL     1       0.141  -4.918   7.449  0.00  0.00    +0.066 A 
ATOM      9  C   UNL     1       0.146  -6.047   6.509  0.00  0.00    +0.280 A 
ATOM     10  O   UNL     1       0.166  -7.198   6.904  0.00  0.00    -0.265 OA
ATOM     11  N   UNL     1       0.130  -5.759   5.186  0.00  0.00    -0.199 N 
ENDROOT
BRANCH  11  12
ATOM     12  N   UNL     1       0.134  -6.798   4.248  0.00  0.00    -0.218 N 
ATOM     13  C   UNL     1       1.268  -7.486   4.009  0.00  0.00    +0.231 C 
ATOM     14  O   UNL     1       2.285  -7.205   4.606  0.00  0.00    -0.274 OA
ATOM     15  H   UNL     1      -0.680  -7.024   3.769  0.00  0.00    +0.176 HD
BRANCH  13  16
ATOM     16  C   UNL     1       1.273  -8.605   2.999  0.00  0.00    +0.102 C 
BRANCH  16  17
ATOM     17  C   UNL     1       2.674  -9.215   2.920  0.00  0.00    +0.046 C 
BRANCH  17  18
ATOM     18  C   UNL     1       2.678 -10.333   1.910  0.00  0.00    -0.022 A 
ATOM     19  C   UNL     1       2.517 -11.641   2.167  0.00  0.00    +0.087 A 
ATOM     20  N   UNL     1       2.578 -12.356   1.001  0.00  0.00    -0.360 N 
ATOM     21  H   UNL     1       2.485 -13.319   0.933  0.00  0.00    +0.165 HD
ATOM     22  C   UNL     1       2.794 -11.505  -0.059  0.00  0.00    +0.047 A 
ATOM     23  C   UNL     1       2.866 -10.201   0.464  0.00  0.00    +0.003 A 
ATOM     24  C   UNL     1       3.081  -9.118  -0.392  0.00  0.00    +0.010 A 
ATOM     25  C   UNL     1       3.220  -9.332  -1.734  0.00  0.00    +0.001 A 
ATOM     26  C   UNL     1       3.149 -10.616  -2.255  0.00  0.00    +0.002 A 
ATOM     27  C   UNL     1       2.938 -11.699  -1.429  0.00  0.00    +0.026 A 
ENDBRANCH  17  18
ENDBRANCH  16  17
ENDBRANCH  13  16
ENDBRANCH  11  12
BRANCH   1  28
ATOM     28  S   UNL     1       0.087  -4.146   3.027  0.00  0.00    -0.077 S 
BRANCH  28  29
ATOM     29  C   UNL     1       0.063  -2.336   3.037  0.00  0.00    +0.173 C 
BRANCH  29  31
ATOM     30  N   UNL     1       0.022  -0.500   1.381  0.00  0.00    -0.311 N 
ATOM     31  C   UNL     1       0.042  -1.826   1.619  0.00  0.00    +0.224 C 
ATOM     32  O   UNL     1       0.044  -2.609   0.693  0.00  0.00    -0.275 OA
ATOM     33  H   UNL     1       0.020   0.127   2.121  0.00  0.00    +0.149 HD
BRANCH  30  34
ATOM     34  C   UNL     1       0.002  -0.004   0.002  0.00  0.00    +0.139 C 
BRANCH  34  38
ATOM     35  C   UNL     1      -0.056   4.267   0.025  0.00  0.00    +0.000 A 
ATOM     36  C   UNL     1       1.151   3.592   0.010  0.00  0.00    +0.000 A 
ATOM     37  C   UNL     1       1.169   2.210   0.003  0.00  0.00    +0.005 A 
ATOM     38  C   UNL     1      -0.018   1.503   0.010  0.00  0.00    -0.030 A 
ATOM     39  C   UNL     1      -1.225   2.178   0.020  0.00  0.00    +0.005 A 
ATOM     40  C   UNL     1      -1.244   3.560   0.032  0.00  0.00    +0.000 A 
ENDBRANCH  34  38
ENDBRANCH  30  34
ENDBRANCH  29  31
ENDBRANCH  28  29
ENDBRANCH   1  28
TORSDOF 9
