REMARK  Name = ZINC27667415
REMARK  11 active torsions:
REMARK  status: ('A' for Active; 'I' for Inactive)
REMARK    1  A    between atoms: C_1  and  C_2
REMARK    2  A    between atoms: C_5  and  C_8
REMARK    3  A    between atoms: C_8  and  C_36
REMARK    4  A    between atoms: N_11  and  C_15
REMARK    5  A    between atoms: C_15  and  C_16
REMARK    6  A    between atoms: N_18  and  C_19
REMARK    7  A    between atoms: C_19  and  C_20
REMARK    8  A    between atoms: C_20  and  C_22
REMARK    9  A    between atoms: C_20  and  N_30
REMARK   10  A    between atoms: C_25  and  O_28
REMARK   11  A    between atoms: O_28  and  C_29
REMARK                            x       y       z     vdW  Elec       q    Type
REMARK                         _______ _______ _______ _____ _____    ______ ____
ROOT
ATOM      1  C   UNL     1      -0.018   1.215  -0.222  0.00  0.00    +0.231 C 
ATOM      2  O   UNL     1      -0.003   0.017  -0.411  0.00  0.00    -0.274 OA
ATOM      3  N   UNL     1       1.141   1.891  -0.093  0.00  0.00    -0.315 N 
ATOM      4  H   UNL     1       1.127   2.978   0.079  0.00  0.00    +0.149 HD
ENDROOT
BRANCH   1   5
ATOM      5  C   UNL     1      -1.332   1.947  -0.136  0.00  0.00    +0.213 C 
BRANCH   5   9
ATOM      6  C   UNL     1      -4.098  -0.524   0.051  0.00  0.00    +0.135 C 
ATOM      7  C   UNL     1      -3.028   0.332   0.698  0.00  0.00    +0.251 C 
ATOM      8  O   UNL     1      -2.762   0.403   1.879  0.00  0.00    -0.272 OA
ATOM      9  N   UNL     1      -2.433   0.997  -0.312  0.00  0.00    -0.215 N 
ATOM     10  C   UNL     1      -2.977   0.688  -1.494  0.00  0.00    +0.310 C 
ATOM     11  O   UNL     1      -2.612   1.163  -2.551  0.00  0.00    -0.252 OA
ATOM     12  N   UNL     1      -3.970  -0.213  -1.383  0.00  0.00    -0.281 N 
ATOM     13  C   UNL     1      -3.827  -2.008   0.306  0.00  0.00    +0.047 C 
ATOM     14  H   UNL     1      -4.632  -0.702  -2.113  0.00  0.00    +0.152 HD
BRANCH   6  19
ATOM     15  C   UNL     1      -9.336   0.954   1.994  0.00  0.00    +0.044 C 
ATOM     16  C   UNL     1      -7.970   0.569   1.488  0.00  0.00    -0.050 A 
ATOM     17  C   UNL     1      -7.824   0.066   0.208  0.00  0.00    +0.004 A 
ATOM     18  C   UNL     1      -6.571  -0.288  -0.257  0.00  0.00    +0.006 A 
ATOM     19  C   UNL     1      -5.464  -0.139   0.558  0.00  0.00    -0.015 A 
ATOM     20  C   UNL     1      -5.611   0.359   1.839  0.00  0.00    +0.006 A 
ATOM     21  C   UNL     1      -6.863   0.717   2.302  0.00  0.00    +0.004 A 
ENDBRANCH   6  19
ENDBRANCH   5   9
ENDBRANCH   1   5
BRANCH   3  22
ATOM     22  C   UNL     1       2.418   1.180  -0.183  0.00  0.00    +0.093 C 
BRANCH  22  23
ATOM     23  C   UNL     1       3.567   2.189  -0.146  0.00  0.00    -0.020 C 
BRANCH  23  24
ATOM     24  N   UNL     1       4.849   1.472  -0.162  0.00  0.00    +0.385 N 
ATOM     25  C   UNL     1       4.943   0.536   0.966  0.00  0.00    -0.078 C 
ATOM     26  C   UNL     1       6.222  -0.294   0.836  0.00  0.00    -0.019 C 
ATOM     27  C   UNL     1       7.434   0.642   0.823  0.00  0.00    -0.004 C 
ATOM     28  C   UNL     1       7.288   1.637  -0.331  0.00  0.00    -0.019 C 
ATOM     29  C   UNL     1       5.978   2.412  -0.168  0.00  0.00    -0.078 C 
ATOM     30  H   UNL     1       4.898   0.884  -1.091  0.00  0.00    -0.081 HD
ENDBRANCH  23  24
BRANCH  23  31
ATOM     31  C   UNL     1       3.482   3.092  -1.349  0.00  0.00    -0.059 A 
ATOM     32  C   UNL     1       3.955   2.657  -2.574  0.00  0.00    +0.005 A 
ATOM     33  C   UNL     1       3.872   3.481  -3.680  0.00  0.00    +0.046 A 
ATOM     34  C   UNL     1       3.325   4.750  -3.559  0.00  0.00    +0.120 A 
ATOM     35  C   UNL     1       2.856   5.186  -2.328  0.00  0.00    +0.046 A 
ATOM     36  C   UNL     1       2.935   4.356  -1.226  0.00  0.00    +0.005 A 
BRANCH  34  37
ATOM     37  O   UNL     1       3.248   5.564  -4.644  0.00  0.00    -0.495 OA
ATOM     38  C   UNL     1       3.751   5.049  -5.879  0.00  0.00    +0.277 C 
ENDBRANCH  34  37
ENDBRANCH  23  31
ENDBRANCH  22  23
ENDBRANCH   3  22
TORSDOF 8
