REMARK  Name = ZINC19622640
REMARK  13 active torsions:
REMARK  status: ('A' for Active; 'I' for Inactive)
REMARK    1  A    between atoms: C_1  and  C_2
REMARK    2  A    between atoms: C_2  and  C_3
REMARK    3  A    between atoms: C_3  and  C_4
REMARK    4  A    between atoms: C_4  and  N_5
REMARK    5  A    between atoms: C_6  and  N_34
REMARK    6  A    between atoms: C_7  and  N_14
REMARK    7  A    between atoms: N_14  and  C_15
REMARK    8  A    between atoms: C_15  and  C_16
REMARK    9  A    between atoms: C_16  and  C_17
REMARK   10  A    between atoms: C_17  and  C_18
REMARK   11  A    between atoms: C_17  and  C_19
REMARK   12  A    between atoms: C_20  and  C_22
REMARK   13  A    between atoms: C_25  and  C_27
REMARK                            x       y       z     vdW  Elec       q    Type
REMARK                         _______ _______ _______ _____ _____    ______ ____
ROOT
ATOM      1  N   UNL     1       0.635   4.196  -0.037  0.00  0.00    -0.258 N 
ATOM      2  C   UNL     1       1.418   3.122   0.189  0.00  0.00    +0.286 C 
ATOM      3  O   UNL     1       2.622   3.261   0.307  0.00  0.00    -0.266 OA
ENDROOT
BRANCH   1   6
ATOM      4  N   UNL     1       1.622   7.704   0.436  0.00  0.00    -0.280 N 
ATOM      5  C   UNL     1       1.036   6.481   0.667  0.00  0.00    +0.127 A 
ATOM      6  C   UNL     1       1.219   5.463  -0.247  0.00  0.00    +0.140 A 
ATOM      7  C   UNL     1       1.993   5.712  -1.396  0.00  0.00    +0.277 A 
ATOM      8  O   UNL     1       2.167   4.832  -2.222  0.00  0.00    -0.266 OA
ATOM      9  N   UNL     1       2.541   6.930  -1.577  0.00  0.00    -0.273 N 
ATOM     10  H   UNL     1       3.148   7.133  -2.471  0.00  0.00    +0.173 HD
ATOM     11  C   UNL     1       2.356   7.908  -0.673  0.00  0.00    +0.331 A 
ATOM     12  O   UNL     1       2.861   8.998  -0.861  0.00  0.00    -0.246 OA
BRANCH   5  13
ATOM     13  N   UNL     1       0.281   6.273   1.796  0.00  0.00    -0.343 N 
ATOM     14  H   UNL     1      -0.185   5.293   1.974  0.00  0.00    +0.144 HD
ATOM     15  H   UNL     1       0.142   7.088   2.522  0.00  0.00    +0.144 HD
ENDBRANCH   5  13
BRANCH   4  16
ATOM     16  C   UNL     1       1.440   8.791   1.400  0.00  0.00    +0.128 C 
BRANCH  16  17
ATOM     17  C   UNL     1       0.194   9.598   1.031  0.00  0.00    +0.021 C 
BRANCH  17  19
ATOM     18  C   UNL     1      -1.243  11.540   1.669  0.00  0.00    +0.004 C 
ATOM     19  C   UNL     1       0.004  10.734   2.038  0.00  0.00    -0.002 C 
ENDBRANCH  17  19
ENDBRANCH  16  17
ENDBRANCH   4  16
ENDBRANCH   1   6
BRANCH   2  20
ATOM     20  C   UNL     1       0.820   1.789   0.291  0.00  0.00    +0.190 A 
ATOM     21  C   UNL     1       1.484   0.628   0.625  0.00  0.00    +0.055 A 
ATOM     22  C   UNL     1       0.535  -0.399   0.603  0.00  0.00    +0.051 A 
ATOM     23  C   UNL     1      -0.660   0.165   0.260  0.00  0.00    +0.139 A 
ATOM     24  O   UNL     1      -0.477   1.483   0.075  0.00  0.00    -0.450 OA
BRANCH  23  25
ATOM     25  C   UNL     1      -1.942  -0.554   0.118  0.00  0.00    +0.052 A 
ATOM     26  C   UNL     1      -3.060  -0.147   0.848  0.00  0.00    +0.014 A 
ATOM     27  C   UNL     1      -4.254  -0.823   0.710  0.00  0.00    +0.001 A 
ATOM     28  C   UNL     1      -4.348  -1.903  -0.150  0.00  0.00    +0.003 A 
ATOM     29  C   UNL     1      -3.246  -2.314  -0.878  0.00  0.00    +0.039 A 
ATOM     30  C   UNL     1      -2.044  -1.643  -0.754  0.00  0.00    +0.134 A 
ATOM     31  F   UNL     1      -0.969  -2.042  -1.469  0.00  0.00    -0.205 F 
ENDBRANCH  23  25
ENDBRANCH   2  20
BRANCH   1  32
ATOM     32  C   UNL     1      -0.822   4.048  -0.063  0.00  0.00    +0.114 C 
BRANCH  32  33
ATOM     33  C   UNL     1      -1.272   3.675  -1.477  0.00  0.00    +0.022 C 
BRANCH  33  34
ATOM     34  C   UNL     1      -2.799   3.585  -1.520  0.00  0.00    -0.016 C 
ATOM     35  C   UNL     1      -3.398   4.968  -1.255  0.00  0.00    +0.007 C 
ATOM     36  C   UNL     1      -3.242   3.092  -2.899  0.00  0.00    +0.007 C 
ENDBRANCH  33  34
ENDBRANCH  32  33
ENDBRANCH   1  32
TORSDOF 10
