REMARK  Name = ZINC59385514
REMARK  7 active torsions:
REMARK  status: ('A' for Active; 'I' for Inactive)
REMARK    1  A    between atoms: C_1  and  C_2
REMARK    2  A    between atoms: C_3  and  C_17
REMARK    3  A    between atoms: C_4  and  C_10
REMARK    4  A    between atoms: N_19  and  N_20
REMARK    5  A    between atoms: C_21  and  C_22
REMARK    6  A    between atoms: C_25  and  O_28
REMARK    7  A    between atoms: O_28  and  C_29
REMARK                            x       y       z     vdW  Elec       q    Type
REMARK                         _______ _______ _______ _____ _____    ______ ____
ROOT
ATOM      1  C   UNL     1       0.658   1.367   0.084  0.00  0.00    +0.061 C 
ATOM      2  C   UNL     1       0.360  -0.110   0.046  0.00  0.00    +0.019 C 
ATOM      3  C   UNL     1      -0.921  -0.526  -0.023  0.00  0.00    +0.057 C 
ATOM      4  C   UNL     1      -1.177  -2.019  -0.059  0.00  0.00    +0.142 C 
ATOM      5  N   UNL     1       0.003  -2.900  -0.015  0.00  0.00    -0.288 N 
ATOM      6  C   UNL     1       1.224  -2.333   0.054  0.00  0.00    +0.304 C 
ATOM      7  O   UNL     1       2.204  -3.051   0.091  0.00  0.00    -0.252 OA
ATOM      8  N   UNL     1       1.393  -1.005   0.078  0.00  0.00    -0.273 N 
ATOM      9  H   UNL     1      -0.096  -3.864  -0.034  0.00  0.00    +0.151 HD
ATOM     10  H   UNL     1       2.298  -0.659   0.124  0.00  0.00    +0.156 HD
ENDROOT
BRANCH   4  11
ATOM     11  C   UNL     1      -1.940  -2.330  -1.320  0.00  0.00    -0.022 A 
ATOM     12  C   UNL     1      -1.293  -2.312  -2.542  0.00  0.00    +0.007 A 
ATOM     13  C   UNL     1      -1.992  -2.598  -3.699  0.00  0.00    +0.015 A 
ATOM     14  C   UNL     1      -3.341  -2.901  -3.635  0.00  0.00    +0.018 A 
ATOM     15  C   UNL     1      -3.988  -2.918  -2.413  0.00  0.00    +0.015 A 
ATOM     16  C   UNL     1      -3.286  -2.638  -1.256  0.00  0.00    +0.007 A 
ATOM     17 BR   UNL     1      -4.298  -3.290  -5.218  0.00  0.00    -0.050 Br
ENDBRANCH   4  11
BRANCH   3  18
ATOM     18  C   UNL     1      -1.992   0.401  -0.061  0.00  0.00    +0.263 C 
ATOM     19  O   UNL     1      -2.656   0.605   0.940  0.00  0.00    -0.269 OA
ATOM     20  N   UNL     1      -2.275   1.058  -1.203  0.00  0.00    -0.203 N 
ATOM     21  H   UNL     1      -1.795   0.842  -2.018  0.00  0.00    +0.178 HD
BRANCH  20  22
ATOM     22  N   UNL     1      -3.262   2.051  -1.214  0.00  0.00    -0.187 NA
ATOM     23  C   UNL     1      -3.535   2.683  -2.314  0.00  0.00    +0.138 C 
BRANCH  23  24
ATOM     24  C   UNL     1      -4.574   3.729  -2.325  0.00  0.00    -0.005 A 
ATOM     25  C   UNL     1      -5.263   4.045  -1.151  0.00  0.00    +0.013 A 
ATOM     26  C   UNL     1      -6.234   5.023  -1.167  0.00  0.00    +0.046 A 
ATOM     27  C   UNL     1      -6.528   5.694  -2.347  0.00  0.00    +0.120 A 
ATOM     28  C   UNL     1      -5.846   5.383  -3.516  0.00  0.00    +0.046 A 
ATOM     29  C   UNL     1      -4.869   4.411  -3.509  0.00  0.00    +0.013 A 
BRANCH  27  30
ATOM     30  O   UNL     1      -7.486   6.657  -2.357  0.00  0.00    -0.495 OA
ATOM     31  C   UNL     1      -7.738   7.308  -3.604  0.00  0.00    +0.277 C 
ENDBRANCH  27  30
ENDBRANCH  23  24
ENDBRANCH  20  22
ENDBRANCH   3  18
TORSDOF 5
