REMARK  Name = ZINC40778896
REMARK  5 active torsions:
REMARK  status: ('A' for Active; 'I' for Inactive)
REMARK    1  A    between atoms: C_1  and  C_2
REMARK    2  A    between atoms: C_11  and  C_13
REMARK    3  A    between atoms: C_11  and  C_14
REMARK    4  A    between atoms: N_19  and  C_22
REMARK    5  A    between atoms: C_22  and  C_23
REMARK                            x       y       z     vdW  Elec       q    Type
REMARK                         _______ _______ _______ _____ _____    ______ ____
ROOT
ATOM      1  C   UNL     1       0.304  -6.238   1.087  0.00  0.00    +0.269 C 
ATOM      2  O   UNL     1       0.306  -6.840   2.140  0.00  0.00    -0.271 OA
ATOM      3  N   UNL     1      -0.046  -6.872  -0.050  0.00  0.00    -0.295 N 
ATOM      4  C   UNL     1       0.068  -6.201  -1.354  0.00  0.00    +0.123 C 
ATOM      5  C   UNL     1       0.846  -7.116  -2.306  0.00  0.00    +0.103 C 
ATOM      6  N   UNL     1       0.206  -8.438  -2.341  0.00  0.00    -0.295 NA
ATOM      7  C   UNL     1       0.251  -9.087  -1.024  0.00  0.00    +0.103 C 
ATOM      8  C   UNL     1      -0.546  -8.255  -0.021  0.00  0.00    +0.123 C 
ENDROOT
BRANCH   1  19
ATOM      9  C   UNL     1      -0.208   1.542   0.456  0.00  0.00    +0.044 C 
ATOM     10  C   UNL     1      -0.187   0.037   0.371  0.00  0.00    -0.048 A 
ATOM     11  C   UNL     1      -0.388  -0.588  -0.846  0.00  0.00    +0.007 A 
ATOM     12  C   UNL     1      -0.376  -1.968  -0.930  0.00  0.00    +0.048 A 
ATOM     13  C   UNL     1      -0.159  -2.727   0.207  0.00  0.00    +0.144 A 
ATOM     14  C   UNL     1       0.053  -2.098   1.432  0.00  0.00    +0.076 A 
ATOM     15  C   UNL     1       0.038  -0.714   1.510  0.00  0.00    +0.030 A 
ATOM     16  N   UNL     1       0.306  -2.873   2.572  0.00  0.00    -0.279 N 
ATOM     17  C   UNL     1       0.554  -4.191   2.430  0.00  0.00    +0.270 C 
ATOM     18  O   UNL     1       0.666  -4.899   3.409  0.00  0.00    -0.271 OA
ATOM     19  C   UNL     1       0.692  -4.783   1.050  0.00  0.00    +0.258 C 
ATOM     20  O   UNL     1      -0.163  -4.086   0.141  0.00  0.00    -0.465 OA
ATOM     21  C   UNL     1       2.143  -4.655   0.583  0.00  0.00    +0.076 C 
ATOM     22  H   UNL     1       0.303  -2.466   3.452  0.00  0.00    +0.155 HD
ENDBRANCH   1  19
BRANCH   6  23
ATOM     23  C   UNL     1       0.816  -9.290  -3.370  0.00  0.00    +0.119 C 
BRANCH  23  24
ATOM     24  C   UNL     1      -0.014 -10.536  -3.548  0.00  0.00    -0.033 A 
ATOM     25  C   UNL     1       0.249 -11.657  -2.783  0.00  0.00    +0.005 A 
ATOM     26  C   UNL     1      -0.512 -12.799  -2.946  0.00  0.00    +0.000 A 
ATOM     27  C   UNL     1      -1.537 -12.819  -3.873  0.00  0.00    +0.000 A 
ATOM     28  C   UNL     1      -1.801 -11.698  -4.637  0.00  0.00    +0.000 A 
ATOM     29  C   UNL     1      -1.042 -10.555  -4.471  0.00  0.00    +0.005 A 
ENDBRANCH  23  24
ENDBRANCH   6  23
TORSDOF 3
