REMARK  Name = ZINC32118635
REMARK  5 active torsions:
REMARK  status: ('A' for Active; 'I' for Inactive)
REMARK    1  A    between atoms: C_3  and  C_11
REMARK    2  A    between atoms: C_6  and  N_7
REMARK    3  A    between atoms: N_13  and  C_14
REMARK    4  A    between atoms: C_14  and  N_16
REMARK    5  A    between atoms: N_16  and  C_17
REMARK                            x       y       z     vdW  Elec       q    Type
REMARK                         _______ _______ _______ _____ _____    ______ ____
ROOT
ATOM      1  C   UNL     1       2.478   1.076  -0.016  0.00  0.00    +0.251 C 
ATOM      2  O   UNL     1       3.519   1.702  -0.022  0.00  0.00    -0.270 OA
ATOM      3  N   UNL     1       2.502  -0.272  -0.023  0.00  0.00    -0.264 N 
ATOM      4  H   UNL     1       1.559  -0.838  -0.017  0.00  0.00    +0.157 HD
ENDROOT
BRANCH   1   7
ATOM      5  C   UNL     1      -1.216   1.751   0.017  0.00  0.00    +0.033 A 
ATOM      6  C   UNL     1      -0.013   1.076   0.008  0.00  0.00    +0.017 A 
ATOM      7  C   UNL     1       1.186   1.792   0.000  0.00  0.00    +0.055 A 
ATOM      8  C   UNL     1       1.158   3.189   0.008  0.00  0.00    +0.055 A 
ATOM      9  C   UNL     1      -0.054   3.851   0.022  0.00  0.00    +0.053 A 
ATOM     10  C   UNL     1      -1.237   3.134   0.029  0.00  0.00    +0.128 A 
ATOM     11 CL   UNL     1       2.642   4.090  -0.002  0.00  0.00    -0.083 Cl
BRANCH  10  12
ATOM     12  N   UNL     1      -2.532   3.850   0.044  0.00  0.00    +0.056 N 
ATOM     13  O   UNL     1      -2.555   5.068   0.050  0.00  0.00    -0.126 OA
ATOM     14  O   UNL     1      -3.576   3.222   0.050  0.00  0.00    -0.126 OA
ENDBRANCH  10  12
ENDBRANCH   1   7
BRANCH   3  15
ATOM     15  C   UNL     1       3.680  -0.925  -0.038  0.00  0.00    +0.137 C 
ATOM     16  S   UNL     1       5.148  -0.043  -0.047  0.00  0.00    -0.018 S 
BRANCH  15  17
ATOM     17  N   UNL     1       3.704  -2.272  -0.045  0.00  0.00    -0.323 N 
ATOM     18  H   UNL     1       2.761  -2.839  -0.039  0.00  0.00    +0.148 HD
BRANCH  17  19
ATOM     19  C   UNL     1       4.985  -2.982  -0.061  0.00  0.00    +0.078 C 
ATOM     20  C   UNL     1       5.479  -3.112  -1.504  0.00  0.00    +0.010 C 
ATOM     21  C   UNL     1       6.817  -3.853  -1.521  0.00  0.00    +0.009 C 
ATOM     22  C   UNL     1       6.635  -5.247  -0.917  0.00  0.00    -0.010 C 
ATOM     23  C   UNL     1       5.608  -6.029  -1.739  0.00  0.00    +0.007 C 
ATOM     24  C   UNL     1       4.270  -5.288  -1.722  0.00  0.00    -0.010 C 
ATOM     25  C   UNL     1       4.452  -3.894  -2.326  0.00  0.00    +0.009 C 
ATOM     26  C   UNL     1       3.777  -5.158  -0.279  0.00  0.00    +0.009 C 
ATOM     27  C   UNL     1       4.803  -4.376   0.542  0.00  0.00    +0.010 C 
ATOM     28  C   UNL     1       6.142  -5.118   0.526  0.00  0.00    +0.009 C 
ENDBRANCH  17  19
ENDBRANCH  15  17
ENDBRANCH   3  15
TORSDOF 5
