REMARK  Name = ZINC36519422
REMARK  14 active torsions:
REMARK  status: ('A' for Active; 'I' for Inactive)
REMARK    1  A    between atoms: C_1  and  C_2
REMARK    2  A    between atoms: C_2  and  C_3
REMARK    3  A    between atoms: C_3  and  C_4
REMARK    4  A    between atoms: C_4  and  C_5
REMARK    5  A    between atoms: C_5  and  C_6
REMARK    6  A    between atoms: C_6  and  N_7
REMARK    7  A    between atoms: N_7  and  C_8
REMARK    8  A    between atoms: C_8  and  C_10
REMARK    9  A    between atoms: C_8  and  C_16
REMARK   10  A    between atoms: N_18  and  C_19
REMARK   11  A    between atoms: C_19  and  S_20
REMARK   12  A    between atoms: S_20  and  C_23
REMARK   13  A    between atoms: C_26  and  C_29
REMARK   14  A    between atoms: C_30  and  C_32
REMARK                            x       y       z     vdW  Elec       q    Type
REMARK                         _______ _______ _______ _____ _____    ______ ____
ROOT
ATOM      1  C   UNL     1       3.592  -4.744  -3.736  0.00  0.00    +0.192 C 
ENDROOT
BRANCH   1   2
ATOM      2  C   UNL     1       4.214  -3.953  -4.858  0.00  0.00    -0.018 A 
ATOM      3  C   UNL     1       4.253  -4.479  -6.136  0.00  0.00    +0.006 A 
ATOM      4  C   UNL     1       4.824  -3.754  -7.165  0.00  0.00    +0.000 A 
ATOM      5  C   UNL     1       5.355  -2.502  -6.917  0.00  0.00    +0.000 A 
ATOM      6  C   UNL     1       5.315  -1.976  -5.639  0.00  0.00    +0.000 A 
ATOM      7  C   UNL     1       4.741  -2.699  -4.611  0.00  0.00    +0.006 A 
ENDBRANCH   1   2
BRANCH   1   8
ATOM      8  C   UNL     1       3.818  -6.215  -3.973  0.00  0.00    +0.239 C 
ATOM      9  O   UNL     1       2.871  -6.963  -4.089  0.00  0.00    -0.273 OA
ATOM     10  N   UNL     1       5.073  -6.699  -4.056  0.00  0.00    -0.294 N 
ATOM     11  H   UNL     1       5.831  -6.101  -3.963  0.00  0.00    +0.150 HD
BRANCH  10  12
ATOM     12  C   UNL     1       5.293  -8.129  -4.286  0.00  0.00    +0.278 C 
BRANCH  12  13
ATOM     13  S   UNL     1       5.524  -8.428  -6.060  0.00  0.00    +0.013 S 
ATOM     14  O   UNL     1       5.801  -9.802  -6.293  0.00  0.00    -0.168 OA
ATOM     15  O   UNL     1       4.518  -7.755  -6.805  0.00  0.00    -0.168 OA
BRANCH  13  16
ATOM     16  C   UNL     1       7.020  -7.591  -6.468  0.00  0.00    +0.090 A 
ATOM     17  C   UNL     1       6.986  -6.270  -6.871  0.00  0.00    +0.027 A 
ATOM     18  C   UNL     1       8.159  -5.614  -7.192  0.00  0.00    +0.005 A 
ATOM     19  C   UNL     1       9.368  -6.279  -7.109  0.00  0.00    -0.050 A 
ATOM     20  C   UNL     1       9.403  -7.601  -6.705  0.00  0.00    +0.005 A 
ATOM     21  C   UNL     1       8.229  -8.256  -6.381  0.00  0.00    +0.027 A 
ATOM     22  C   UNL     1      10.648  -5.565  -7.459  0.00  0.00    +0.044 C 
ENDBRANCH  13  16
ENDBRANCH  12  13
ENDBRANCH  10  12
ENDBRANCH   1   8
BRANCH   1  23
ATOM     23  N   UNL     1       2.153  -4.473  -3.687  0.00  0.00    -0.284 N 
ATOM     24  C   UNL     1       1.383  -4.726  -4.763  0.00  0.00    +0.237 C 
ATOM     25  O   UNL     1       1.862  -5.262  -5.740  0.00  0.00    -0.274 OA
BRANCH  24  26
ATOM     26  C   UNL     1      -0.075  -4.343  -4.753  0.00  0.00    +0.159 C 
ATOM     27  C   UNL     1      -0.903  -5.410  -4.004  0.00  0.00    +0.041 C 
ATOM     28  C   UNL     1      -1.357  -6.328  -5.163  0.00  0.00    +0.098 C 
ATOM     29  C   UNL     1      -1.324  -5.431  -6.381  0.00  0.00    +0.214 C 
ATOM     30  O   UNL     1      -1.868  -5.673  -7.438  0.00  0.00    -0.276 OA
ATOM     31  N   UNL     1      -0.604  -4.323  -6.122  0.00  0.00    -0.304 N 
ATOM     32  H   UNL     1      -0.455  -3.605  -6.757  0.00  0.00    +0.149 HD
ENDBRANCH  24  26
BRANCH  23  33
ATOM     33  C   UNL     1       1.552  -3.926  -2.468  0.00  0.00    +0.109 C 
BRANCH  33  34
ATOM     34  C   UNL     1       1.579  -2.398  -2.527  0.00  0.00    +0.019 C 
BRANCH  34  35
ATOM     35  C   UNL     1       0.951  -1.827  -1.254  0.00  0.00    +0.002 C 
BRANCH  35  36
ATOM     36  C   UNL     1       0.977  -0.298  -1.313  0.00  0.00    -0.000 C 
BRANCH  36  38
ATOM     37  C   UNL     1       0.376   1.801  -0.099  0.00  0.00    +0.004 C 
ATOM     38  C   UNL     1       0.350   0.272  -0.040  0.00  0.00    -0.003 C 
ENDBRANCH  36  38
ENDBRANCH  35  36
ENDBRANCH  34  35
ENDBRANCH  33  34
ENDBRANCH  23  33
ENDBRANCH   1  23
TORSDOF 12
