REMARK  Name = ZINC13550450
REMARK  6 active torsions:
REMARK  status: ('A' for Active; 'I' for Inactive)
REMARK    1  A    between atoms: C_1  and  C_2
REMARK    2  A    between atoms: C_2  and  C_3
REMARK    3  A    between atoms: C_2  and  C_4
REMARK    4  A    between atoms: C_4  and  C_5
REMARK    5  A    between atoms: C_7  and  C_11
REMARK    6  A    between atoms: C_14  and  C_19
REMARK                            x       y       z     vdW  Elec       q    Type
REMARK                         _______ _______ _______ _____ _____    ______ ____
ROOT
ATOM      1  C   UNL     1      -2.231  -5.470   0.896  0.00  0.00    +0.150 A 
ATOM      2  N   UNL     1      -2.947  -5.650   1.979  0.00  0.00    -0.154 NA
ATOM      3  N   UNL     1      -3.284  -6.925   2.412  0.00  0.00    -0.185 N 
ATOM      4  C   UNL     1      -3.981  -7.545   3.440  0.00  0.00    +0.187 A 
ATOM      5  N   UNL     1      -3.910  -8.842   3.247  0.00  0.00    -0.126 NA
ATOM      6  N   UNL     1      -3.227  -9.091   2.184  0.00  0.00    -0.120 NA
ATOM      7  C   UNL     1      -2.830  -7.973   1.650  0.00  0.00    +0.219 A 
ATOM      8  S   UNL     1      -1.953  -7.146   0.346  0.00  0.00    -0.025 S 
ENDROOT
BRANCH   4   9
ATOM      9  C   UNL     1      -4.678  -6.867   4.553  0.00  0.00    +0.035 A 
ATOM     10  C   UNL     1      -4.679  -5.473   4.634  0.00  0.00    +0.013 A 
ATOM     11  C   UNL     1      -5.332  -4.846   5.675  0.00  0.00    +0.001 A 
ATOM     12  C   UNL     1      -5.985  -5.596   6.638  0.00  0.00    +0.001 A 
ATOM     13  C   UNL     1      -5.989  -6.977   6.564  0.00  0.00    +0.016 A 
ATOM     14  C   UNL     1      -5.345  -7.617   5.524  0.00  0.00    +0.029 A 
ATOM     15 BR   UNL     1      -5.358  -9.505   5.420  0.00  0.00    -0.050 Br
ENDBRANCH   4   9
BRANCH   1  18
ATOM     16  C   UNL     1      -1.416  -2.035  -0.119  0.00  0.00    +0.064 A 
ATOM     17  C   UNL     1      -2.024  -2.934   0.755  0.00  0.00    +0.055 A 
ATOM     18  C   UNL     1      -1.778  -4.206   0.285  0.00  0.00    +0.093 A 
ATOM     19  N   UNL     1      -1.035  -4.077  -0.852  0.00  0.00    -0.275 N 
ATOM     20  H   UNL     1      -0.709  -4.802  -1.408  0.00  0.00    +0.189 HD
ATOM     21  N   UNL     1      -0.833  -2.709  -1.077  0.00  0.00    -0.178 NA
BRANCH  16  22
ATOM     22  C   UNL     1      -1.433  -0.534   0.013  0.00  0.00    +0.060 C 
BRANCH  22  24
ATOM     23  C   UNL     1      -0.019   1.526   0.010  0.00  0.00    +0.007 C 
ATOM     24  C   UNL     1       0.002  -0.004   0.002  0.00  0.00    -0.011 C 
ATOM     25  C   UNL     1       0.742  -0.511   1.242  0.00  0.00    +0.007 C 
ENDBRANCH  22  24
ENDBRANCH  16  22
ENDBRANCH   1  18
TORSDOF 4
