REMARK  Name = ZINC08791613
REMARK  11 active torsions:
REMARK  status: ('A' for Active; 'I' for Inactive)
REMARK    1  A    between atoms: C_1  and  C_2
REMARK    2  A    between atoms: C_2  and  C_4
REMARK    3  A    between atoms: C_2  and  C_5
REMARK    4  A    between atoms: C_5  and  C_7
REMARK    5  A    between atoms: C_5  and  N_15
REMARK    6  A    between atoms: N_9  and  C_10
REMARK    7  A    between atoms: C_10  and  C_11
REMARK    8  A    between atoms: C_11  and  C_12
REMARK    9  A    between atoms: C_12  and  O_13
REMARK   10  A    between atoms: O_13  and  C_14
REMARK   11  A    between atoms: C_16  and  C_18
REMARK                            x       y       z     vdW  Elec       q    Type
REMARK                         _______ _______ _______ _____ _____    ______ ____
ROOT
ATOM      1  C   UNL     1       2.552   0.246   0.324  0.00  0.00    +0.167 C 
ATOM      2  C   UNL     1       2.522   1.740  -0.029  0.00  0.00    +0.069 C 
ATOM      3  C   UNL     1       1.106   2.256   0.004  0.00  0.00    -0.015 A 
ATOM      4  C   UNL     1       0.678   3.643   0.028  0.00  0.00    +0.003 A 
ATOM      5  C   UNL     1       1.386   4.849   0.035  0.00  0.00    +0.010 A 
ATOM      6  C   UNL     1       0.643   6.004   0.058  0.00  0.00    +0.001 A 
ATOM      7  C   UNL     1      -0.742   5.987   0.075  0.00  0.00    +0.002 A 
ATOM      8  C   UNL     1      -1.468   4.809   0.068  0.00  0.00    +0.026 A 
ATOM      9  C   UNL     1      -0.740   3.620   0.043  0.00  0.00    +0.047 A 
ATOM     10  N   UNL     1      -1.124   2.311   0.031  0.00  0.00    -0.356 N 
ATOM     11  H   UNL     1      -2.042   1.999   0.036  0.00  0.00    +0.166 HD
ATOM     12  C   UNL     1      -0.018   1.505   0.010  0.00  0.00    +0.046 A 
ATOM     13  C   UNL     1       0.002  -0.004   0.002  0.00  0.00    +0.155 C 
ATOM     14  N   UNL     1       1.395  -0.388  -0.320  0.00  0.00    -0.273 N 
ATOM     15  C   UNL     1       1.374  -1.302  -1.299  0.00  0.00    +0.248 C 
ATOM     16  O   UNL     1       2.332  -1.950  -1.673  0.00  0.00    -0.270 OA
ATOM     17  C   UNL     1       0.020  -1.402  -1.852  0.00  0.00    +0.042 A 
ATOM     18  C   UNL     1      -0.836  -0.584  -1.086  0.00  0.00    -0.009 A 
ATOM     19  C   UNL     1      -2.169  -0.443  -1.400  0.00  0.00    +0.006 A 
ATOM     20  C   UNL     1      -2.640  -1.156  -2.498  0.00  0.00    +0.000 A 
ATOM     21  C   UNL     1      -1.813  -1.970  -3.246  0.00  0.00    +0.001 A 
ATOM     22  C   UNL     1      -0.466  -2.118  -2.948  0.00  0.00    +0.013 A 
ENDROOT
BRANCH   1  24
ATOM     23  N   UNL     1       3.426   0.579   2.614  0.00  0.00    -0.302 N 
ATOM     24  C   UNL     1       2.463   0.072   1.818  0.00  0.00    +0.235 C 
ATOM     25  O   UNL     1       1.526  -0.524   2.305  0.00  0.00    -0.274 OA
ATOM     26  H   UNL     1       4.176   1.056   2.224  0.00  0.00    +0.150 HD
BRANCH  23  27
ATOM     27  C   UNL     1       3.340   0.410   4.066  0.00  0.00    +0.161 C 
BRANCH  27  28
ATOM     28  C   UNL     1       4.111   1.512   4.747  0.00  0.00    +0.234 C 
ATOM     29  O   UNL     1       4.676   2.356   4.083  0.00  0.00    -0.274 OA
ATOM     30  N   UNL     1       4.172   1.560   6.092  0.00  0.00    -0.314 N 
ATOM     31  H   UNL     1       3.720   0.886   6.623  0.00  0.00    +0.149 HD
BRANCH  30  32
ATOM     32  C   UNL     1       4.921   2.632   6.753  0.00  0.00    +0.106 C 
BRANCH  32  33
ATOM     33  C   UNL     1       4.831   2.456   8.271  0.00  0.00    +0.047 C 
BRANCH  33  34
ATOM     34  C   UNL     1       5.614   3.575   8.961  0.00  0.00    +0.161 C 
BRANCH  34  35
ATOM     35  O   UNL     1       5.530   3.410  10.378  0.00  0.00    -0.383 OA
ATOM     36  C   UNL     1       6.231   4.409  11.122  0.00  0.00    +0.193 C 
ENDBRANCH  34  35
ENDBRANCH  33  34
ENDBRANCH  32  33
ENDBRANCH  30  32
ENDBRANCH  27  28
BRANCH  27  38
ATOM     37  C   UNL     1       3.152  -2.063   3.768  0.00  0.00    +0.009 C 
ATOM     38  C   UNL     1       3.934  -0.944   4.458  0.00  0.00    +0.012 C 
ATOM     39  C   UNL     1       5.400  -1.004   4.024  0.00  0.00    +0.009 C 
ENDBRANCH  27  38
ENDBRANCH  23  27
ENDBRANCH   1  24
TORSDOF 8
