REMARK  Name = ZINC46038089
REMARK  4 active torsions:
REMARK  status: ('A' for Active; 'I' for Inactive)
REMARK    1  A    between atoms: C_5  and  C_7
REMARK    2  A    between atoms: C_7  and  C_8
REMARK    3  A    between atoms: N_13  and  C_14
REMARK    4  A    between atoms: C_14  and  C_16
REMARK                            x       y       z     vdW  Elec       q    Type
REMARK                         _______ _______ _______ _____ _____    ______ ____
ROOT
ATOM      1  C   UNL     1       1.372  -2.695   1.389  0.00  0.00    +0.013 A 
ATOM      2  C   UNL     1       0.421  -3.084   2.245  0.00  0.00    +0.095 A 
ATOM      3  N   UNL     1       0.823  -3.506   3.475  0.00  0.00    -0.342 N 
ATOM      4  C   UNL     1       2.153  -3.510   3.765  0.00  0.00    +0.163 A 
ATOM      5  S   UNL     1       2.856  -2.942   2.347  0.00  0.00    -0.057 S 
ATOM      6  N   UNL     1       2.752  -3.880   4.895  0.00  0.00    -0.152 NA
ATOM      7  H   UNL     1       0.173  -3.798   4.133  0.00  0.00    +0.167 HD
ENDROOT
BRANCH   6   8
ATOM      8  C   UNL     1       2.023  -4.316   5.926  0.00  0.00    +0.271 C 
ATOM      9  O   UNL     1       0.808  -4.375   5.832  0.00  0.00    -0.268 OA
BRANCH   8  10
ATOM     10  C   UNL     1       2.688  -4.727   7.181  0.00  0.00    +0.055 A 
ATOM     11  C   UNL     1       4.096  -4.654   7.297  0.00  0.00    +0.020 A 
ATOM     12  C   UNL     1       4.683  -5.039   8.463  0.00  0.00    +0.071 A 
ATOM     13  C   UNL     1       3.880  -5.498   9.524  0.00  0.00    +0.249 A 
ATOM     14  N   UNL     1       2.542  -5.558   9.391  0.00  0.00    -0.328 N 
ATOM     15  C   UNL     1       1.941  -5.177   8.247  0.00  0.00    +0.099 A 
ATOM     16  O   UNL     1       4.401  -5.844  10.571  0.00  0.00    -0.268 OA
ATOM     17  H   UNL     1       2.003  -5.877  10.131  0.00  0.00    +0.168 HD
ENDBRANCH   8  10
ENDBRANCH   6   8
BRANCH   1  18
ATOM     18  C   UNL     1       1.228  -2.186  -0.022  0.00  0.00    +0.082 C 
BRANCH  18  23
ATOM     19  C   UNL     1      -0.017   1.378   0.010  0.00  0.00    +0.000 A 
ATOM     20  C   UNL     1       1.171   2.087   0.002  0.00  0.00    +0.003 A 
ATOM     21  C   UNL     1       2.377   1.414  -0.013  0.00  0.00    +0.038 A 
ATOM     22  C   UNL     1       2.397   0.029  -0.021  0.00  0.00    +0.127 A 
ATOM     23  C   UNL     1       1.208  -0.679  -0.013  0.00  0.00    -0.007 A 
ATOM     24  C   UNL     1       0.002  -0.004   0.002  0.00  0.00    +0.007 A 
ATOM     25  F   UNL     1       3.577  -0.630  -0.036  0.00  0.00    -0.205 F 
ENDBRANCH  18  23
ENDBRANCH   1  18
TORSDOF 4
