REMARK  Name = ZINC36064268
REMARK  11 active torsions:
REMARK  status: ('A' for Active; 'I' for Inactive)
REMARK    1  A    between atoms: C_1  and  C_2
REMARK    2  A    between atoms: C_2  and  O_3
REMARK    3  A    between atoms: O_3  and  C_4
REMARK    4  A    between atoms: C_4  and  C_6
REMARK    5  A    between atoms: C_12  and  C_14
REMARK    6  A    between atoms: C_17  and  C_19
REMARK    7  A    between atoms: C_19  and  N_20
REMARK    8  A    between atoms: N_20  and  C_21
REMARK    9  A    between atoms: N_20  and  C_29
REMARK   10  A    between atoms: C_21  and  C_22
REMARK   11  A    between atoms: C_29  and  C_30
REMARK                            x       y       z     vdW  Elec       q    Type
REMARK                         _______ _______ _______ _____ _____    ______ ____
ROOT
ATOM      1  C   UNL     1      -4.574  -9.777   0.786  0.00  0.00    +0.020 C 
ENDROOT
BRANCH   1   5
ATOM      2  C   UNL     1      -5.989  -7.052   2.707  0.00  0.00    +0.164 A 
ATOM      3  C   UNL     1      -5.384  -7.761   3.698  0.00  0.00    +0.230 A 
ATOM      4  O   UNL     1      -4.804  -8.825   3.120  0.00  0.00    -0.449 OA
ATOM      5  C   UNL     1      -5.048  -8.771   1.803  0.00  0.00    +0.179 A 
ATOM      6  N   UNL     1      -5.761  -7.717   1.542  0.00  0.00    -0.210 NA
BRANCH   2  13
ATOM      7  C   UNL     1      -7.212  -3.212  -0.289  0.00  0.00    +0.101 C 
ATOM      8  C   UNL     1      -7.478  -2.797   1.160  0.00  0.00    +0.033 C 
ATOM      9  C   UNL     1      -8.087  -3.978   1.921  0.00  0.00    +0.109 C 
ATOM     10  N   UNL     1      -7.200  -5.141   1.779  0.00  0.00    -0.296 N 
ATOM     11  C   UNL     1      -6.807  -5.569   0.430  0.00  0.00    +0.109 C 
ATOM     12  C   UNL     1      -6.212  -4.370  -0.315  0.00  0.00    +0.033 C 
ATOM     13  C   UNL     1      -6.754  -5.801   2.866  0.00  0.00    +0.268 C 
ATOM     14  O   UNL     1      -6.982  -5.366   3.979  0.00  0.00    -0.268 OA
BRANCH   7  15
ATOM     15  C   UNL     1      -6.644  -2.041  -1.050  0.00  0.00    +0.310 C 
ATOM     16  O   UNL     1      -5.552  -2.125  -1.560  0.00  0.00    -0.251 OA
BRANCH  15  17
ATOM     17  O   UNL     1      -7.351  -0.906  -1.160  0.00  0.00    -0.465 OA
BRANCH  17  19
ATOM     18  C   UNL     1      -7.699   1.364  -1.913  0.00  0.00    +0.048 C 
ATOM     19  C   UNL     1      -6.751   0.163  -1.895  0.00  0.00    +0.229 C 
ENDBRANCH  17  19
ENDBRANCH  15  17
ENDBRANCH   7  15
ENDBRANCH   2  13
ENDBRANCH   1   5
BRANCH   1  20
ATOM     20  N   UNL     1      -3.187 -10.158   1.083  0.00  0.00    +0.391 N 
ATOM     21  H   UNL     1      -3.104 -10.386   2.063  0.00  0.00    -0.080 HD
BRANCH  20  22
ATOM     22  C   UNL     1      -2.816 -11.327   0.275  0.00  0.00    -0.042 C 
BRANCH  22  23
ATOM     23  C   UNL     1      -1.438 -11.793   0.668  0.00  0.00    -0.064 A 
ATOM     24  C   UNL     1      -0.326 -11.279   0.027  0.00  0.00    +0.004 A 
ATOM     25  C   UNL     1       0.938 -11.705   0.387  0.00  0.00    +0.038 A 
ATOM     26  C   UNL     1       1.092 -12.647   1.390  0.00  0.00    +0.123 A 
ATOM     27  C   UNL     1      -0.022 -13.161   2.032  0.00  0.00    +0.038 A 
ATOM     28  C   UNL     1      -1.286 -12.729   1.674  0.00  0.00    +0.004 A 
ATOM     29  F   UNL     1       2.327 -13.064   1.742  0.00  0.00    -0.205 F 
ENDBRANCH  22  23
ENDBRANCH  20  22
BRANCH  20  30
ATOM     30  C   UNL     1      -2.292  -9.038   0.764  0.00  0.00    -0.040 C 
BRANCH  30  31
ATOM     31  C   UNL     1      -2.593  -7.878   1.678  0.00  0.00    -0.046 A 
ATOM     32  C   UNL     1      -3.217  -6.749   1.181  0.00  0.00    +0.003 A 
ATOM     33  C   UNL     1      -3.493  -5.686   2.019  0.00  0.00    +0.000 A 
ATOM     34  C   UNL     1      -3.144  -5.750   3.356  0.00  0.00    +0.001 A 
ATOM     35  C   UNL     1      -2.521  -6.878   3.854  0.00  0.00    +0.020 A 
ATOM     36  C   UNL     1      -2.250  -7.946   3.016  0.00  0.00    +0.042 A 
ATOM     37 CL   UNL     1      -1.472  -9.366   3.643  0.00  0.00    -0.083 Cl
ENDBRANCH  30  31
ENDBRANCH  20  30
ENDBRANCH   1  20
TORSDOF 10
