REMARK  Name = ZINC20757382
REMARK  6 active torsions:
REMARK  status: ('A' for Active; 'I' for Inactive)
REMARK    1  A    between atoms: C_1  and  O_2
REMARK    2  A    between atoms: O_2  and  C_3
REMARK    3  A    between atoms: C_3  and  C_4
REMARK    4  A    between atoms: C_4  and  N_5
REMARK    5  A    between atoms: C_10  and  C_28
REMARK    6  A    between atoms: C_28  and  C_29
REMARK                            x       y       z     vdW  Elec       q    Type
REMARK                         _______ _______ _______ _____ _____    ______ ____
ROOT
ATOM      1  N   UNL     1      -0.515  -2.565   1.245  0.00  0.00    -0.239 N 
ATOM      2  C   UNL     1       0.811  -2.680   1.376  0.00  0.00    +0.227 C 
ATOM      3  O   UNL     1       1.624  -2.444   0.508  0.00  0.00    -0.275 OA
ATOM      4  C   UNL     1       1.139  -3.148   2.775  0.00  0.00    +0.107 C 
ATOM      5  C   UNL     1       1.720  -4.577   2.712  0.00  0.00    +0.072 C 
ATOM      6  N   UNL     1       0.533  -5.473   2.745  0.00  0.00    -0.295 NA
ATOM      7  C   UNL     1      -0.385  -4.820   3.697  0.00  0.00    +0.136 C 
ATOM      8  C   UNL     1      -0.258  -3.297   3.441  0.00  0.00    +0.122 C 
ATOM      9  C   UNL     1      -1.211  -2.879   2.344  0.00  0.00    +0.228 C 
ATOM     10  O   UNL     1      -2.419  -2.837   2.444  0.00  0.00    -0.275 OA
ATOM     11  C   UNL     1      -1.798  -5.296   3.517  0.00  0.00    +0.005 A 
ATOM     12  C   UNL     1      -2.679  -5.275   2.459  0.00  0.00    +0.008 A 
ATOM     13  C   UNL     1      -3.948  -5.807   2.603  0.00  0.00    +0.002 A 
ATOM     14  C   UNL     1      -4.331  -6.359   3.812  0.00  0.00    +0.022 A 
ATOM     15  C   UNL     1      -3.451  -6.382   4.875  0.00  0.00    +0.062 A 
ATOM     16  C   UNL     1      -2.171  -5.848   4.739  0.00  0.00    +0.057 A 
ATOM     17  N   UNL     1      -1.119  -5.755   5.653  0.00  0.00    -0.282 N 
ATOM     18  C   UNL     1      -0.034  -5.161   5.119  0.00  0.00    +0.243 C 
ATOM     19  O   UNL     1       1.022  -4.945   5.677  0.00  0.00    -0.273 OA
ATOM     20 CL   UNL     1      -3.942  -7.078   6.388  0.00  0.00    -0.082 Cl
ATOM     21  H   UNL     1       0.113  -5.550   1.831  0.00  0.00    +0.124 HD
ATOM     22  H   UNL     1      -1.165  -6.078   6.566  0.00  0.00    +0.155 HD
ENDROOT
BRANCH   1  23
ATOM     23  C   UNL     1      -1.154  -2.126   0.002  0.00  0.00    +0.144 C 
BRANCH  23  24
ATOM     24  C   UNL     1      -1.295  -0.603   0.011  0.00  0.00    +0.179 C 
BRANCH  24  26
ATOM     25  C   UNL     1      -0.017   1.425   0.010  0.00  0.00    +0.194 C 
ATOM     26  O   UNL     1       0.002  -0.004   0.002  0.00  0.00    -0.381 OA
ENDBRANCH  24  26
ENDBRANCH  23  24
ENDBRANCH   1  23
BRANCH   5  27
ATOM     27  C   UNL     1       2.504  -4.776   1.414  0.00  0.00    +0.056 C 
BRANCH  27  28
ATOM     28  C   UNL     1       3.164  -6.131   1.428  0.00  0.00    -0.021 A 
ATOM     29  C   UNL     1       4.419  -6.404   1.817  0.00  0.00    +0.087 A 
ATOM     30  N   UNL     1       4.666  -7.744   1.692  0.00  0.00    -0.360 N 
ATOM     31  H   UNL     1       5.504  -8.179   1.912  0.00  0.00    +0.165 HD
ATOM     32  C   UNL     1       3.546  -8.382   1.207  0.00  0.00    +0.047 A 
ATOM     33  C   UNL     1       2.554  -7.401   1.026  0.00  0.00    +0.003 A 
ATOM     34  C   UNL     1       1.296  -7.763   0.544  0.00  0.00    +0.010 A 
ATOM     35  C   UNL     1       1.032  -9.072   0.253  0.00  0.00    +0.001 A 
ATOM     36  C   UNL     1       2.005 -10.044   0.433  0.00  0.00    +0.002 A 
ATOM     37  C   UNL     1       3.258  -9.707   0.899  0.00  0.00    +0.026 A 
ENDBRANCH  27  28
ENDBRANCH   5  27
TORSDOF 5
