REMARK  Name = ZINC06320934
REMARK  14 active torsions:
REMARK  status: ('A' for Active; 'I' for Inactive)
REMARK    1  A    between atoms: C_1  and  C_2
REMARK    2  A    between atoms: C_6  and  C_15
REMARK    3  A    between atoms: C_13  and  C_14
REMARK    4  A    between atoms: C_15  and  C_17
REMARK    5  A    between atoms: C_15  and  N_75
REMARK    6  A    between atoms: N_21  and  C_22
REMARK    7  A    between atoms: C_22  and  C_23
REMARK    8  A    between atoms: C_22  and  C_24
REMARK    9  A    between atoms: C_22  and  C_25
REMARK   10  A    between atoms: C_26  and  C_27
REMARK   11  A    between atoms: C_26  and  N_75
REMARK   12  A    between atoms: C_27  and  C_28
REMARK   13  A    between atoms: C_34  and  C_35
REMARK   14  A    between atoms: C_34  and  N_75
REMARK                            x       y       z     vdW  Elec       q    Type
REMARK                         _______ _______ _______ _____ _____    ______ ____
ROOT
ATOM      1  C   UNL     1       5.729  -1.137  -0.430  0.00  0.00    +0.039 C 
ENDROOT
BRANCH   1   7
ATOM      2  C   UNL     1      11.756   2.705   1.697  0.00  0.00    +0.044 C 
ATOM      3  C   UNL     1      10.514   1.918   2.029  0.00  0.00    -0.047 A 
ATOM      4  C   UNL     1       9.739   1.419   1.021  0.00  0.00    +0.013 A 
ATOM      5  C   UNL     1       8.587   0.689   1.329  0.00  0.00    -0.001 A 
ATOM      6  C   UNL     1       7.736   0.137   0.273  0.00  0.00    +0.017 A 
ATOM      7  C   UNL     1       6.628  -0.559   0.631  0.00  0.00    +0.011 A 
ATOM      8  C   UNL     1       6.319  -0.749   1.995  0.00  0.00    +0.251 A 
ATOM      9  O   UNL     1       5.321  -1.381   2.295  0.00  0.00    -0.268 OA
ATOM     10  N   UNL     1       7.097  -0.250   2.972  0.00  0.00    -0.322 N 
ATOM     11  H   UNL     1       6.854  -0.399   3.899  0.00  0.00    +0.169 HD
ATOM     12  C   UNL     1       8.233   0.471   2.674  0.00  0.00    +0.049 A 
ATOM     13  C   UNL     1       9.038   0.988   3.683  0.00  0.00    +0.030 A 
ATOM     14  C   UNL     1      10.169   1.706   3.357  0.00  0.00    -0.046 A 
ATOM     15  C   UNL     1      11.039   2.265   4.452  0.00  0.00    +0.044 C 
ENDBRANCH   1   7
BRANCH   1  16
ATOM     16  C   UNL     1       5.676  -2.636  -0.283  0.00  0.00    +0.143 A 
ATOM     17  N   UNL     1       4.973  -3.312   0.593  0.00  0.00    -0.115 NA
ATOM     18  N   UNL     1       5.195  -4.566   0.398  0.00  0.00    -0.023 NA
ATOM     19  N   UNL     1       6.022  -4.708  -0.579  0.00  0.00    -0.043 NA
ATOM     20  N   UNL     1       6.338  -3.541  -1.029  0.00  0.00    -0.225 N 
BRANCH  20  21
ATOM     21  C   UNL     1       7.248  -3.253  -2.140  0.00  0.00    +0.059 C 
ATOM     22  C   UNL     1       8.360  -2.319  -1.660  0.00  0.00    +0.036 C 
ATOM     23  C   UNL     1       7.862  -4.560  -2.647  0.00  0.00    +0.036 C 
ATOM     24  C   UNL     1       6.472  -2.581  -3.274  0.00  0.00    +0.036 C 
ENDBRANCH  20  21
ENDBRANCH   1  16
BRANCH   1  25
ATOM     25  N   UNL     1       4.365  -0.593  -0.257  0.00  0.00    +0.392 N 
ATOM     26  H   UNL     1       3.969  -0.960   0.617  0.00  0.00    -0.080 HD
BRANCH  25  27
ATOM     27  C   UNL     1       4.416   0.882  -0.179  0.00  0.00    -0.072 C 
BRANCH  27  28
ATOM     28  C   UNL     1       3.063   1.396   0.316  0.00  0.00    +0.016 C 
BRANCH  28  29
ATOM     29  C   UNL     1       3.074   2.903   0.336  0.00  0.00    -0.049 A 
ATOM     30  C   UNL     1       3.479   3.576   1.474  0.00  0.00    +0.003 A 
ATOM     31  C   UNL     1       3.494   4.958   1.490  0.00  0.00    +0.000 A 
ATOM     32  C   UNL     1       3.095   5.667   0.373  0.00  0.00    +0.000 A 
ATOM     33  C   UNL     1       2.685   4.994  -0.763  0.00  0.00    +0.000 A 
ATOM     34  C   UNL     1       2.675   3.612  -0.781  0.00  0.00    +0.003 A 
ENDBRANCH  28  29
ENDBRANCH  27  28
ENDBRANCH  25  27
BRANCH  25  35
ATOM     35  C   UNL     1       3.507  -1.010  -1.386  0.00  0.00    -0.042 C 
BRANCH  35  36
ATOM     36  C   UNL     1       2.982  -2.394  -1.105  0.00  0.00    -0.064 A 
ATOM     37  C   UNL     1       1.884  -2.563  -0.282  0.00  0.00    +0.002 A 
ATOM     38  C   UNL     1       1.402  -3.832  -0.024  0.00  0.00    +0.000 A 
ATOM     39  C   UNL     1       2.017  -4.933  -0.590  0.00  0.00    +0.000 A 
ATOM     40  C   UNL     1       3.114  -4.765  -1.413  0.00  0.00    +0.000 A 
ATOM     41  C   UNL     1       3.597  -3.495  -1.671  0.00  0.00    +0.002 A 
ENDBRANCH  35  36
ENDBRANCH  25  35
ENDBRANCH   1  25
TORSDOF 9
