REMARK  Name = ZINC15250068
REMARK  14 active torsions:
REMARK  status: ('A' for Active; 'I' for Inactive)
REMARK    1  A    between atoms: C_3  and  O_10
REMARK    2  A    between atoms: C_6  and  N_7
REMARK    3  A    between atoms: O_10  and  C_11
REMARK    4  A    between atoms: C_13  and  O_26
REMARK    5  A    between atoms: C_15  and  O_25
REMARK    6  A    between atoms: C_17  and  O_24
REMARK    7  A    between atoms: C_19  and  C_22
REMARK    8  A    between atoms: C_22  and  O_23
REMARK    9  A    between atoms: O_26  and  C_27
REMARK   10  A    between atoms: C_29  and  O_42
REMARK   11  A    between atoms: C_31  and  O_41
REMARK   12  A    between atoms: C_33  and  O_40
REMARK   13  A    between atoms: C_35  and  C_38
REMARK   14  A    between atoms: C_38  and  O_39
REMARK                            x       y       z     vdW  Elec       q    Type
REMARK                         _______ _______ _______ _____ _____    ______ ____
ROOT
ATOM      1  C   UNL     1       2.253  -0.760  -0.454  0.00  0.00    +0.340 C 
ATOM      2  C   UNL     1       0.839  -0.568  -1.009  0.00  0.00    +0.221 C 
ATOM      3  C   UNL     1       0.279  -1.928  -1.438  0.00  0.00    +0.180 C 
ATOM      4  C   UNL     1       1.226  -2.557  -2.464  0.00  0.00    +0.177 C 
ATOM      5  C   UNL     1       2.624  -2.673  -1.853  0.00  0.00    +0.179 C 
ATOM      6  O   UNL     1       3.074  -1.378  -1.448  0.00  0.00    -0.331 OA
ENDROOT
BRANCH   4   7
ATOM      7  O   UNL     1       1.281  -1.734  -3.631  0.00  0.00    -0.386 OA
ATOM      8  H   UNL     1       1.867  -2.071  -4.323  0.00  0.00    +0.210 HD
ENDBRANCH   4   7
BRANCH   3   9
ATOM      9  O   UNL     1      -1.012  -1.749  -2.025  0.00  0.00    -0.386 OA
ATOM     10  H   UNL     1      -1.427  -2.571  -2.320  0.00  0.00    +0.210 HD
ENDBRANCH   3   9
BRANCH   1  11
ATOM     11  O   UNL     1       2.201  -1.593   0.706  0.00  0.00    -0.461 OA
BRANCH  11  14
ATOM     12  C   UNL     1       4.514  -2.590   3.331  0.00  0.00    +0.036 A 
ATOM     13  C   UNL     1       3.357  -2.488   2.583  0.00  0.00    +0.048 A 
ATOM     14  C   UNL     1       3.337  -1.696   1.444  0.00  0.00    +0.124 A 
ATOM     15  C   UNL     1       4.481  -1.013   1.056  0.00  0.00    +0.048 A 
ATOM     16  C   UNL     1       5.634  -1.115   1.811  0.00  0.00    +0.036 A 
ATOM     17  C   UNL     1       5.651  -1.905   2.946  0.00  0.00    +0.126 A 
BRANCH  17  18
ATOM     18  N   UNL     1       6.889  -2.017   3.749  0.00  0.00    +0.056 N 
ATOM     19  O   UNL     1       6.906  -2.713   4.748  0.00  0.00    -0.126 OA
ATOM     20  O   UNL     1       7.892  -1.413   3.410  0.00  0.00    -0.126 OA
ENDBRANCH  17  18
ENDBRANCH  11  14
ENDBRANCH   1  11
BRANCH   5  21
ATOM     21  C   UNL     1       3.590  -3.245  -2.893  0.00  0.00    +0.190 C 
BRANCH  21  22
ATOM     22  O   UNL     1       4.867  -3.461  -2.289  0.00  0.00    -0.392 OA
ATOM     23  H   UNL     1       5.531  -3.824  -2.891  0.00  0.00    +0.210 HD
ENDBRANCH  21  22
ENDBRANCH   5  21
BRANCH   2  24
ATOM     24  O   UNL     1       0.002  -0.004   0.002  0.00  0.00    -0.337 OA
BRANCH  24  25
ATOM     25  C   UNL     1      -0.017   1.425   0.010  0.00  0.00    +0.282 C 
ATOM     26  C   UNL     1      -0.734   1.919   1.269  0.00  0.00    +0.201 C 
ATOM     27  C   UNL     1      -2.187   1.434   1.243  0.00  0.00    +0.179 C 
ATOM     28  C   UNL     1      -2.857   1.933  -0.041  0.00  0.00    +0.177 C 
ATOM     29  C   UNL     1      -2.058   1.438  -1.250  0.00  0.00    +0.178 C 
ATOM     30  O   UNL     1      -0.709   1.898  -1.147  0.00  0.00    -0.341 OA
BRANCH  28  31
ATOM     31  O   UNL     1      -4.192   1.427  -0.111  0.00  0.00    -0.386 OA
ATOM     32  H   UNL     1      -4.754   1.697   0.628  0.00  0.00    +0.210 HD
ENDBRANCH  28  31
BRANCH  27  33
ATOM     33  O   UNL     1      -2.884   1.952   2.378  0.00  0.00    -0.386 OA
ATOM     34  H   UNL     1      -2.509   1.681   3.227  0.00  0.00    +0.210 HD
ENDBRANCH  27  33
BRANCH  26  35
ATOM     35  O   UNL     1      -0.707   3.347   1.305  0.00  0.00    -0.384 OA
ATOM     36  H   UNL     1       0.184   3.723   1.319  0.00  0.00    +0.210 HD
ENDBRANCH  26  35
BRANCH  29  37
ATOM     37  C   UNL     1      -2.687   1.982  -2.534  0.00  0.00    +0.190 C 
BRANCH  37  38
ATOM     38  O   UNL     1      -2.013   1.428  -3.666  0.00  0.00    -0.392 OA
ATOM     39  H   UNL     1      -2.360   1.730  -4.516  0.00  0.00    +0.210 HD
ENDBRANCH  37  38
ENDBRANCH  29  37
ENDBRANCH  24  25
ENDBRANCH   2  24
TORSDOF 14
