REMARK  Name = ZINC40980559
REMARK  5 active torsions:
REMARK  status: ('A' for Active; 'I' for Inactive)
REMARK    1  A    between atoms: C_5  and  C_7
REMARK    2  A    between atoms: C_10  and  C_14
REMARK    3  A    between atoms: C_12  and  O_13
REMARK    4  A    between atoms: C_14  and  N_15
REMARK    5  A    between atoms: N_15  and  C_16
REMARK                            x       y       z     vdW  Elec       q    Type
REMARK                         _______ _______ _______ _____ _____    ______ ____
ROOT
ATOM      1  N   UNL     1       1.294  -6.911  -1.421  0.00  0.00    -0.345 N 
ATOM      2  H   UNL     1       1.065  -6.293  -2.132  0.00  0.00    +0.146 HD
ENDROOT
BRANCH   1   3
ATOM      3  C   UNL     1       1.401  -8.240  -1.684  0.00  0.00    +0.081 C 
ATOM      4  C   UNL     1       1.301  -8.695  -2.980  0.00  0.00    +0.058 C 
ATOM      5  C   UNL     1       1.213 -10.141  -3.274  0.00  0.00    +0.001 A 
ATOM      6  C   UNL     1       1.227 -11.095  -2.263  0.00  0.00    +0.023 A 
ATOM      7  C   UNL     1       1.141 -12.434  -2.589  0.00  0.00    +0.014 A 
ATOM      8  C   UNL     1       1.042 -12.832  -3.915  0.00  0.00    +0.015 A 
ATOM      9  C   UNL     1       1.027 -11.900  -4.930  0.00  0.00    +0.014 A 
ATOM     10  C   UNL     1       1.112 -10.542  -4.622  0.00  0.00    +0.045 A 
ATOM     11  C   UNL     1       1.098  -9.517  -5.674  0.00  0.00    +0.251 C 
ATOM     12  O   UNL     1       1.010  -9.856  -6.838  0.00  0.00    -0.270 OA
ATOM     13  N   UNL     1       1.180  -8.211  -5.371  0.00  0.00    -0.248 N 
ATOM     14  C   UNL     1       1.272  -7.759  -4.110  0.00  0.00    +0.252 C 
ATOM     15  O   UNL     1       1.338  -6.561  -3.902  0.00  0.00    -0.270 OA
ATOM     16  I   UNL     1       1.161 -13.876  -1.070  0.00  0.00    -0.044 I 
ATOM     17  H   UNL     1       1.167  -7.565  -6.095  0.00  0.00    +0.158 HD
ENDBRANCH   1   3
BRANCH   1  18
ATOM     18  C   UNL     1       1.524  -6.413  -0.062  0.00  0.00    +0.136 C 
BRANCH  18  22
ATOM     19  C   UNL     1       1.007  -2.165   0.006  0.00  0.00    +0.042 A 
ATOM     20  C   UNL     1      -0.077  -3.008   0.245  0.00  0.00    +0.014 A 
ATOM     21  C   UNL     1       0.097  -4.377   0.221  0.00  0.00    +0.006 A 
ATOM     22  C   UNL     1       1.344  -4.917  -0.039  0.00  0.00    -0.027 A 
ATOM     23  C   UNL     1       2.426  -4.091  -0.277  0.00  0.00    +0.051 A 
ATOM     24  C   UNL     1       2.265  -2.714  -0.262  0.00  0.00    +0.126 A 
BRANCH  19  29
ATOM     25  C   UNL     1      -0.585   1.218   0.318  0.00  0.00    +0.004 A 
ATOM     26  C   UNL     1       0.526   2.013   0.068  0.00  0.00    +0.020 A 
ATOM     27  C   UNL     1       1.744   1.413  -0.191  0.00  0.00    +0.111 A 
ATOM     28  N   UNL     1       1.863   0.100  -0.204  0.00  0.00    -0.255 NA
ATOM     29  C   UNL     1       0.826  -0.694   0.030  0.00  0.00    +0.074 A 
ATOM     30  C   UNL     1      -0.432  -0.157   0.299  0.00  0.00    +0.028 A 
ENDBRANCH  19  29
BRANCH  24  31
ATOM     31  O   UNL     1       3.326  -1.901  -0.502  0.00  0.00    -0.506 OA
ATOM     32  H   UNL     1       3.821  -1.657   0.292  0.00  0.00    +0.292 HD
ENDBRANCH  24  31
ENDBRANCH  18  22
ENDBRANCH   1  18
TORSDOF 5
