REMARK  Name = ZINC38966157
REMARK  8 active torsions:
REMARK  status: ('A' for Active; 'I' for Inactive)
REMARK    1  A    between atoms: C_1  and  O_2
REMARK    2  A    between atoms: O_2  and  C_3
REMARK    3  A    between atoms: C_6  and  C_9
REMARK    4  A    between atoms: C_9  and  C_10
REMARK    5  A    between atoms: C_10  and  N_11
REMARK    6  A    between atoms: N_11  and  C_12
REMARK    7  A    between atoms: N_15  and  S_16
REMARK    8  A    between atoms: S_16  and  C_19
REMARK                            x       y       z     vdW  Elec       q    Type
REMARK                         _______ _______ _______ _____ _____    ______ ____
ROOT
ATOM      1  C   UNL     1       6.065  -3.602  -4.942  0.00  0.00    +0.217 C 
ATOM      2  C   UNL     1       6.376  -5.040  -5.289  0.00  0.00    +0.167 C 
ATOM      3  N   UNL     1       5.736  -6.012  -4.709  0.00  0.00    -0.112 NA
ATOM      4  N   UNL     1       7.323  -5.299  -6.205  0.00  0.00    -0.338 N 
ATOM      5  C   UNL     1       7.985  -4.333  -6.806  0.00  0.00    +0.064 A 
ATOM      6  C   UNL     1       8.980  -4.643  -7.768  0.00  0.00    +0.028 A 
ATOM      7  C   UNL     1       9.663  -3.656  -8.387  0.00  0.00    +0.002 A 
ATOM      8  C   UNL     1       9.436  -2.295  -8.123  0.00  0.00    +0.002 A 
ATOM      9  C   UNL     1       8.512  -1.889  -7.225  0.00  0.00    +0.027 A 
ATOM     10  C   UNL     1       7.725  -2.903  -6.508  0.00  0.00    +0.060 A 
ATOM     11  N   UNL     1       6.824  -2.549  -5.635  0.00  0.00    -0.362 N 
ATOM     12  H   UNL     1       6.659  -1.612  -5.446  0.00  0.00    +0.162 HD
ATOM     13  H   UNL     1       7.525  -6.221  -6.429  0.00  0.00    +0.167 HD
ENDROOT
BRANCH   3  14
ATOM     14  S   UNL     1       6.086  -7.583  -5.098  0.00  0.00    +0.102 S 
ATOM     15  O   UNL     1       5.692  -7.764  -6.451  0.00  0.00    -0.146 OA
ATOM     16  O   UNL     1       7.413  -7.825  -4.652  0.00  0.00    -0.146 OA
BRANCH  14  17
ATOM     17  C   UNL     1       5.033  -8.608  -4.125  0.00  0.00    +0.141 A 
ATOM     18  C   UNL     1       4.100  -9.382  -4.727  0.00  0.00    +0.031 A 
ATOM     19  C   UNL     1       3.250 -10.206  -3.989  0.00  0.00    +0.004 A 
ATOM     20  C   UNL     1       3.321 -10.267  -2.639  0.00  0.00    +0.031 A 
ATOM     21  C   UNL     1       4.277  -9.481  -1.939  0.00  0.00    +0.102 A 
ATOM     22  C   UNL     1       5.169  -8.624  -2.711  0.00  0.00    +0.127 A 
ATOM     23  N   UNL     1       6.026  -7.940  -1.952  0.00  0.00    -0.189 NA
ATOM     24  S   UNL     1       5.703  -8.372  -0.436  0.00  0.00    +0.117 S 
ATOM     25  N   UNL     1       4.490  -9.412  -0.624  0.00  0.00    -0.191 NA
ENDBRANCH  14  17
ENDBRANCH   3  14
BRANCH   1  26
ATOM     26  N   UNL     1       4.638  -3.375  -5.210  0.00  0.00    -0.290 NA
ATOM     27  H   UNL     1       4.173  -4.238  -5.448  0.00  0.00    +0.124 HD
BRANCH  26  28
ATOM     28  C   UNL     1       3.986  -2.723  -4.066  0.00  0.00    +0.088 C 
BRANCH  28  29
ATOM     29  C   UNL     1       2.505  -2.503  -4.381  0.00  0.00    +0.050 C 
BRANCH  29  33
ATOM     30  C   UNL     1       0.606  -0.607  -1.056  0.00  0.00    +0.120 A 
ATOM     31  C   UNL     1       1.173   0.161  -2.062  0.00  0.00    +0.046 A 
ATOM     32  C   UNL     1       1.786  -0.455  -3.136  0.00  0.00    +0.007 A 
ATOM     33  C   UNL     1       1.835  -1.835  -3.209  0.00  0.00    -0.046 A 
ATOM     34  C   UNL     1       1.270  -2.602  -2.207  0.00  0.00    +0.007 A 
ATOM     35  C   UNL     1       0.661  -1.992  -1.128  0.00  0.00    +0.046 A 
BRANCH  30  37
ATOM     36  C   UNL     1      -0.017   1.425   0.010  0.00  0.00    +0.277 C 
ATOM     37  O   UNL     1       0.002  -0.004   0.002  0.00  0.00    -0.495 OA
ENDBRANCH  30  37
ENDBRANCH  29  33
ENDBRANCH  28  29
ENDBRANCH  26  28
ENDBRANCH   1  26
TORSDOF 7
