REMARK  Name = ZINC32859563
REMARK  11 active torsions:
REMARK  status: ('A' for Active; 'I' for Inactive)
REMARK    1  A    between atoms: C_1  and  C_2
REMARK    2  A    between atoms: C_2  and  N_3
REMARK    3  A    between atoms: N_3  and  C_4
REMARK    4  A    between atoms: N_3  and  S_6
REMARK    5  A    between atoms: C_4  and  C_5
REMARK    6  A    between atoms: S_6  and  C_9
REMARK    7  A    between atoms: C_12  and  N_15
REMARK    8  A    between atoms: C_16  and  C_18
REMARK    9  A    between atoms: C_18  and  N_19
REMARK   10  A    between atoms: C_22  and  C_26
REMARK   11  A    between atoms: C_22  and  C_27
REMARK                            x       y       z     vdW  Elec       q    Type
REMARK                         _______ _______ _______ _____ _____    ______ ____
ROOT
ATOM      1  C   UNL     1       2.658   9.397   2.749  0.00  0.00    +0.214 C 
ENDROOT
BRANCH   1   2
ATOM      2  N   UNL     1       1.806   8.691   1.788  0.00  0.00    -0.215 N 
ATOM      3  C   UNL     1       2.273   7.989   0.736  0.00  0.00    +0.251 C 
ATOM      4  O   UNL     1       3.432   7.827   0.420  0.00  0.00    -0.272 OA
ATOM      5  C   UNL     1       1.047   7.443   0.032  0.00  0.00    +0.135 C 
ATOM      6  N   UNL     1      -0.073   7.949   0.844  0.00  0.00    -0.281 N 
ATOM      7  C   UNL     1       0.470   8.665   1.845  0.00  0.00    +0.310 C 
ATOM      8  O   UNL     1      -0.181   9.227   2.704  0.00  0.00    -0.252 OA
ATOM      9  C   UNL     1       0.965   7.980  -1.399  0.00  0.00    +0.047 C 
ATOM     10  H   UNL     1      -1.109   7.706   0.565  0.00  0.00    +0.152 HD
BRANCH   5  11
ATOM     11  C   UNL     1       1.063   5.936   0.030  0.00  0.00    -0.015 A 
ATOM     12  C   UNL     1       2.283   5.263   0.025  0.00  0.00    +0.007 A 
ATOM     13  C   UNL     1       2.333   3.902   0.024  0.00  0.00    +0.009 A 
ATOM     14  C   UNL     1       1.138   3.163   0.028  0.00  0.00    -0.018 A 
ATOM     15  C   UNL     1       1.149   1.758   0.026  0.00  0.00    +0.008 A 
ATOM     16  C   UNL     1      -0.028   1.075   0.030  0.00  0.00    +0.001 A 
ATOM     17  C   UNL     1      -1.249   1.749   0.030  0.00  0.00    +0.001 A 
ATOM     18  C   UNL     1      -1.298   3.109   0.038  0.00  0.00    +0.008 A 
ATOM     19  C   UNL     1      -0.103   3.848   0.034  0.00  0.00    -0.018 A 
ATOM     20  C   UNL     1      -0.114   5.253   0.035  0.00  0.00    +0.014 A 
ENDBRANCH   5  11
ENDBRANCH   1   2
BRANCH   1  22
ATOM     21  N   UNL     1       3.652  11.648   3.002  0.00  0.00    -0.284 N 
ATOM     22  C   UNL     1       2.892  10.807   2.272  0.00  0.00    +0.235 C 
ATOM     23  O   UNL     1       2.396  11.186   1.232  0.00  0.00    -0.274 OA
ATOM     24  H   UNL     1       4.038  11.330   3.982  0.00  0.00    +0.155 HD
BRANCH  21  28
ATOM     25  C   UNL     1       4.537  15.450   1.548  0.00  0.00    +0.106 A 
ATOM     26  C   UNL     1       3.306  14.879   1.281  0.00  0.00    +0.030 A 
ATOM     27  C   UNL     1       3.010  13.618   1.762  0.00  0.00    +0.025 A 
ATOM     28  C   UNL     1       3.949  12.925   2.514  0.00  0.00    +0.034 A 
ATOM     29  C   UNL     1       5.182  13.503   2.784  0.00  0.00    +0.025 A 
ATOM     30  C   UNL     1       5.475  14.761   2.295  0.00  0.00    +0.030 A 
BRANCH  25  31
ATOM     31  S   UNL     1       4.912  17.058   0.932  0.00  0.00    +0.061 S 
ATOM     32  O   UNL     1       6.328  17.144   0.857  0.00  0.00    -0.153 OA
ATOM     33  O   UNL     1       4.074  17.266  -0.197  0.00  0.00    -0.153 OA
BRANCH  31  34
ATOM     34  N   UNL     1       4.432  18.147   2.084  0.00  0.00    -0.177 NA
BRANCH  34  36
ATOM     35  C   UNL     1       6.054  19.867   2.709  0.00  0.00    +0.022 C 
ATOM     36  C   UNL     1       5.368  18.566   3.130  0.00  0.00    +0.106 C 
ENDBRANCH  34  36
BRANCH  34  37
ATOM     37  C   UNL     1       3.072  18.690   2.057  0.00  0.00    +0.106 C 
ATOM     38  C   UNL     1       2.175  17.868   2.984  0.00  0.00    +0.022 C 
ENDBRANCH  34  37
ENDBRANCH  31  34
ENDBRANCH  25  31
ENDBRANCH  21  28
ENDBRANCH   1  22
TORSDOF 8
