REMARK  Name = ZINC39690960
REMARK  7 active torsions:
REMARK  status: ('A' for Active; 'I' for Inactive)
REMARK    1  A    between atoms: C_1  and  C_2
REMARK    2  A    between atoms: C_2  and  C_4
REMARK    3  A    between atoms: C_4  and  N_5
REMARK    4  A    between atoms: C_6  and  C_8
REMARK    5  A    between atoms: C_19  and  C_21
REMARK    6  A    between atoms: C_26  and  O_27
REMARK    7  A    between atoms: O_27  and  C_28
REMARK                            x       y       z     vdW  Elec       q    Type
REMARK                         _______ _______ _______ _____ _____    ______ ____
ROOT
ATOM      1  C   UNL     1      -3.587  -1.350   3.403  0.00  0.00    +0.100 C 
ATOM      2  C   UNL     1      -2.589  -2.365   4.003  0.00  0.00    +0.121 C 
ATOM      3  N   UNL     1      -3.427  -3.284   4.809  0.00  0.00    -0.296 N 
ATOM      4  C   UNL     1      -4.652  -3.474   3.996  0.00  0.00    +0.115 C 
ATOM      5  C   UNL     1      -4.940  -2.082   3.400  0.00  0.00    -0.004 C 
ATOM      6  C   UNL     1      -5.464  -2.218   1.974  0.00  0.00    -0.010 C 
ATOM      7  C   UNL     1      -6.837  -2.896   2.001  0.00  0.00    -0.082 C 
ATOM      8  N   UNL     1      -7.764  -2.096   2.810  0.00  0.00    +0.379 N 
ATOM      9  C   UNL     1      -7.301  -2.048   4.202  0.00  0.00    -0.082 C 
ATOM     10  C   UNL     1      -5.948  -1.334   4.268  0.00  0.00    -0.010 C 
ATOM     11  C   UNL     1      -3.140  -3.823   6.010  0.00  0.00    +0.252 C 
ATOM     12  O   UNL     1      -3.894  -4.638   6.506  0.00  0.00    -0.270 OA
ATOM     13  H   UNL     1      -7.809  -1.159   2.439  0.00  0.00    -0.086 HD
ATOM     14  H   UNL     1      -8.682  -2.512   2.777  0.00  0.00    -0.086 HD
ENDROOT
BRANCH  11  15
ATOM     15  C   UNL     1      -1.911  -3.425   6.724  0.00  0.00    +0.099 A 
ATOM     16  C   UNL     1      -0.741  -3.129   6.016  0.00  0.00    +0.020 A 
ATOM     17  C   UNL     1       0.384  -2.760   6.731  0.00  0.00    +0.021 A 
ATOM     18  C   UNL     1       0.321  -2.695   8.112  0.00  0.00    +0.114 A 
ATOM     19  N   UNL     1      -0.792  -2.979   8.759  0.00  0.00    -0.220 NA
ATOM     20  C   UNL     1      -1.897  -3.331   8.123  0.00  0.00    +0.233 A 
BRANCH  20  21
ATOM     21  O   UNL     1      -3.020  -3.608   8.828  0.00  0.00    -0.437 OA
BRANCH  21  22
ATOM     22  C   UNL     1      -2.940  -3.600  10.185  0.00  0.00    +0.130 A 
ATOM     23  C   UNL     1      -2.950  -2.396  10.874  0.00  0.00    +0.048 A 
ATOM     24  C   UNL     1      -2.869  -2.390  12.253  0.00  0.00    +0.023 A 
ATOM     25  C   UNL     1      -2.778  -3.583  12.947  0.00  0.00    +0.041 A 
ATOM     26  C   UNL     1      -2.767  -4.785  12.262  0.00  0.00    +0.023 A 
ATOM     27  C   UNL     1      -2.854  -4.796  10.883  0.00  0.00    +0.048 A 
ATOM     28 CL   UNL     1      -2.676  -3.573  14.680  0.00  0.00    -0.084 Cl
ENDBRANCH  21  22
ENDBRANCH  20  21
ENDBRANCH  11  15
BRANCH   1  30
ATOM     29  N   UNL     1      -3.540   0.209   1.483  0.00  0.00    -0.311 N 
ATOM     30  C   UNL     1      -3.185  -0.985   1.998  0.00  0.00    +0.218 C 
ATOM     31  O   UNL     1      -2.541  -1.766   1.329  0.00  0.00    -0.275 OA
ATOM     32  H   UNL     1      -4.055   0.833   2.018  0.00  0.00    +0.149 HD
BRANCH  29  33
ATOM     33  C   UNL     1      -3.149   0.564   0.117  0.00  0.00    +0.134 C 
BRANCH  33  35
ATOM     34  C   UNL     1      -5.073   2.113  -0.725  0.00  0.00    +0.040 C 
ATOM     35  C   UNL     1      -3.667   1.940  -0.213  0.00  0.00    -0.063 C 
ATOM     36  C   UNL     1      -2.894   2.986  -0.054  0.00  0.00    +0.009 C 
ENDBRANCH  33  35
ENDBRANCH  29  33
ENDBRANCH   1  30
TORSDOF 6
