REMARK  Name = ZINC24716918
REMARK  8 active torsions:
REMARK  status: ('A' for Active; 'I' for Inactive)
REMARK    1  A    between atoms: C_1  and  C_2
REMARK    2  A    between atoms: C_5  and  C_8
REMARK    3  A    between atoms: C_14  and  C_16
REMARK    4  A    between atoms: C_16  and  N_17
REMARK    5  A    between atoms: N_20  and  C_23
REMARK    6  A    between atoms: C_23  and  C_24
REMARK    7  A    between atoms: C_28  and  C_35
REMARK    8  A    between atoms: C_31  and  C_34
REMARK                            x       y       z     vdW  Elec       q    Type
REMARK                         _______ _______ _______ _____ _____    ______ ____
ROOT
ATOM      1  N   UNL     1       3.452   2.048  -0.112  0.00  0.00    -0.298 NA
ATOM      2  C   UNL     1       3.628   2.600  -1.463  0.00  0.00    +0.066 C 
ATOM      3  C   UNL     1       4.735   3.656  -1.439  0.00  0.00    -0.063 C 
ATOM      4  N   UNL     1       5.981   3.046  -0.956  0.00  0.00    +0.387 N 
ATOM      5  C   UNL     1       5.805   2.494   0.395  0.00  0.00    -0.063 C 
ATOM      6  C   UNL     1       4.698   1.437   0.371  0.00  0.00    +0.066 C 
ATOM      7  H   UNL     1       6.237   2.216  -1.631  0.00  0.00    -0.081 HD
ENDROOT
BRANCH   1   8
ATOM      8  C   UNL     1       2.345   1.083  -0.078  0.00  0.00    +0.180 C 
BRANCH   8  15
ATOM      9  C   UNL     1      -3.575   2.062  -0.921  0.00  0.00    +0.080 A 
ATOM     10  C   UNL     1      -3.376   3.400  -1.117  0.00  0.00    +0.076 A 
ATOM     11  S   UNL     1      -1.602   3.505  -0.918  0.00  0.00    -0.060 S 
ATOM     12  C   UNL     1      -1.310   1.769  -0.607  0.00  0.00    +0.165 A 
ATOM     13  N   UNL     1      -2.535   1.281  -0.671  0.00  0.00    -0.225 NA
ATOM     14  N   UNL     1      -0.113   1.109  -0.359  0.00  0.00    -0.264 N 
ATOM     15  C   UNL     1       1.046   1.799  -0.342  0.00  0.00    +0.233 C 
ATOM     16  O   UNL     1       1.042   2.995  -0.538  0.00  0.00    -0.274 OA
ATOM     17  H   UNL     1      -0.110   0.025  -0.176  0.00  0.00    +0.157 HD
BRANCH   9  22
ATOM     18  C   UNL     1      -8.883  -0.156  -1.177  0.00  0.00    +0.044 C 
ATOM     19  C   UNL     1      -7.494   0.424  -1.110  0.00  0.00    -0.050 A 
ATOM     20  C   UNL     1      -6.414  -0.400  -0.849  0.00  0.00    +0.004 A 
ATOM     21  C   UNL     1      -5.140   0.126  -0.787  0.00  0.00    +0.010 A 
ATOM     22  C   UNL     1      -4.941   1.491  -0.987  0.00  0.00    +0.001 A 
ATOM     23  C   UNL     1      -6.034   2.318  -1.245  0.00  0.00    +0.010 A 
ATOM     24  C   UNL     1      -7.303   1.780  -1.309  0.00  0.00    +0.004 A 
ENDBRANCH   9  22
ENDBRANCH   8  15
ENDBRANCH   1   8
BRANCH   4  25
ATOM     25  C   UNL     1       7.088   4.011  -0.990  0.00  0.00    +0.019 C 
BRANCH  25  26
ATOM     26  C   UNL     1       8.388   3.295  -0.730  0.00  0.00    +0.199 C 
ATOM     27  O   UNL     1       8.407   2.085  -0.647  0.00  0.00    -0.278 OA
ATOM     28  N   UNL     1       9.529   3.998  -0.589  0.00  0.00    -0.303 N 
ATOM     29  C   UNL     1      10.804   3.313  -0.335  0.00  0.00    +0.111 C 
ATOM     30  C   UNL     1      11.448   3.918   0.916  0.00  0.00    +0.004 C 
ATOM     31  C   UNL     1      11.573   5.434   0.739  0.00  0.00    +0.009 C 
ATOM     32  C   UNL     1      10.180   6.045   0.568  0.00  0.00    +0.004 C 
ATOM     33  C   UNL     1       9.522   5.463  -0.692  0.00  0.00    +0.111 C 
ATOM     34  C   UNL     1      10.303   7.563   0.424  0.00  0.00    +0.009 C 
ATOM     35  C   UNL     1      12.838   3.312   1.119  0.00  0.00    +0.009 C 
ENDBRANCH  25  26
ENDBRANCH   4  25
TORSDOF 5
