REMARK  Name = ZINC29127061
REMARK  9 active torsions:
REMARK  status: ('A' for Active; 'I' for Inactive)
REMARK    1  A    between atoms: C_1  and  C_2
REMARK    2  A    between atoms: C_5  and  C_8
REMARK    3  A    between atoms: C_11  and  S_14
REMARK    4  A    between atoms: N_12  and  C_13
REMARK    5  A    between atoms: S_14  and  C_15
REMARK    6  A    between atoms: C_15  and  C_16
REMARK    7  A    between atoms: C_16  and  C_17
REMARK    8  A    between atoms: C_17  and  N_18
REMARK    9  A    between atoms: C_30  and  C_32
REMARK                            x       y       z     vdW  Elec       q    Type
REMARK                         _______ _______ _______ _____ _____    ______ ____
ROOT
ATOM      1  N   UNL     1      -0.121  -8.467  -1.444  0.00  0.00    +0.380 N 
ATOM      2  C   UNL     1       0.034  -8.478  -2.900  0.00  0.00    -0.074 C 
ATOM      3  C   UNL     1      -1.293  -8.936  -3.510  0.00  0.00    +0.017 C 
ATOM      4  C   UNL     1      -1.290 -10.425  -3.739  0.00  0.00    -0.044 A 
ATOM      5  C   UNL     1      -1.700 -10.890  -4.988  0.00  0.00    +0.007 A 
ATOM      6  C   UNL     1      -1.778 -12.238  -5.253  0.00  0.00    +0.049 A 
ATOM      7  C   UNL     1      -1.442 -13.150  -4.264  0.00  0.00    +0.156 A 
ATOM      8  C   UNL     1      -1.020 -12.689  -3.011  0.00  0.00    +0.113 A 
ATOM      9  C   UNL     1      -0.932 -11.312  -2.758  0.00  0.00    -0.017 A 
ATOM     10  C   UNL     1      -0.435 -10.879  -1.402  0.00  0.00    +0.019 C 
ATOM     11  C   UNL     1      -1.029  -9.531  -0.996  0.00  0.00    -0.074 C 
ATOM     12  N   UNL     1      -0.756 -13.793  -2.260  0.00  0.00    -0.205 NA
ATOM     13  C   UNL     1      -0.997 -14.851  -2.974  0.00  0.00    +0.303 A 
ATOM     14  O   UNL     1      -1.418 -14.500  -4.199  0.00  0.00    -0.432 OA
ATOM     15  H   UNL     1       0.868  -8.664  -1.005  0.00  0.00    -0.082 HD
ENDROOT
BRANCH  13  16
ATOM     16  C   UNL     1      -0.826 -16.270  -2.495  0.00  0.00    +0.470 C 
ATOM     17  F   UNL     1      -2.021 -16.715  -1.919  0.00  0.00    -0.162 F 
ATOM     18  F   UNL     1      -0.498 -17.091  -3.579  0.00  0.00    -0.162 F 
ATOM     19  F   UNL     1       0.198 -16.322  -1.544  0.00  0.00    -0.162 F 
ENDBRANCH  13  16
BRANCH   1  20
ATOM     20  C   UNL     1      -0.577  -7.153  -0.973  0.00  0.00    -0.078 C 
BRANCH  20  21
ATOM     21  C   UNL     1       0.511  -6.110  -1.240  0.00  0.00    -0.008 C 
BRANCH  21  22
ATOM     22  C   UNL     1       0.036  -4.741  -0.749  0.00  0.00    +0.075 C 
BRANCH  22  23
ATOM     23  S   UNL     1       1.322  -3.508  -1.065  0.00  0.00    -0.086 S 
BRANCH  23  27
ATOM     24  C   UNL     1       0.083  -0.024   0.197  0.00  0.00    +0.166 A 
ATOM     25  N   UNL     1      -0.929  -0.810   0.483  0.00  0.00    -0.128 NA
ATOM     26  N   UNL     1      -0.665  -2.014   0.119  0.00  0.00    -0.122 NA
ATOM     27  C   UNL     1       0.532  -2.070  -0.421  0.00  0.00    +0.192 A 
ATOM     28  N   UNL     1       1.047  -0.805  -0.396  0.00  0.00    -0.305 N 
ATOM     29  C   UNL     1       2.355  -0.372  -0.893  0.00  0.00    +0.153 C 
BRANCH  24  34
ATOM     30  C   UNL     1       0.265   5.589   1.224  0.00  0.00    +0.065 C 
ATOM     31  C   UNL     1       0.242   4.108   0.950  0.00  0.00    +0.038 A 
ATOM     32  C   UNL     1       1.427   3.449   0.673  0.00  0.00    +0.024 A 
ATOM     33  C   UNL     1       1.403   2.087   0.427  0.00  0.00    +0.015 A 
ATOM     34  C   UNL     1       0.167   1.429   0.458  0.00  0.00    +0.037 A 
ATOM     35  C   UNL     1      -0.982   2.167   0.744  0.00  0.00    +0.122 A 
ATOM     36  N   UNL     1      -0.907   3.461   0.976  0.00  0.00    -0.259 NA
ENDBRANCH  24  34
ENDBRANCH  23  27
ENDBRANCH  22  23
ENDBRANCH  21  22
ENDBRANCH  20  21
ENDBRANCH   1  20
TORSDOF 7
