REMARK  Name = ZINC66079926
REMARK  4 active torsions:
REMARK  status: ('A' for Active; 'I' for Inactive)
REMARK    1  A    between atoms: N_11  and  C_15
REMARK    2  A    between atoms: C_15  and  N_16
REMARK    3  A    between atoms: C_19  and  N_22
REMARK    4  A    between atoms: C_23  and  C_25
REMARK                            x       y       z     vdW  Elec       q    Type
REMARK                         _______ _______ _______ _____ _____    ______ ____
ROOT
ATOM      1  C   UNL     1       0.013   2.295  -6.358  0.00  0.00    +0.043 C 
ENDROOT
BRANCH   1  12
ATOM      2  C   UNL     1      -0.019   1.523   0.010  0.00  0.00    +0.000 C 
ATOM      3  C   UNL     1       1.413   2.083  -0.000  0.00  0.00    +0.000 C 
ATOM      4  C   UNL     1       2.247   1.276  -1.002  0.00  0.00    +0.003 C 
ATOM      5  C   UNL     1       1.978   1.647  -2.477  0.00  0.00    +0.035 C 
ATOM      6  C   UNL     1       0.651   1.013  -2.921  0.00  0.00    +0.112 C 
ATOM      7  C   UNL     1       0.552  -0.426  -2.412  0.00  0.00    +0.035 C 
ATOM      8  C   UNL     1      -0.526  -0.534  -1.337  0.00  0.00    +0.003 C 
ATOM      9  C   UNL     1       0.002  -0.004   0.002  0.00  0.00    +0.000 C 
ATOM     10  C   UNL     1       0.789   0.896  -4.454  0.00  0.00    +0.245 C 
ATOM     11  O   UNL     1       1.446   0.072  -5.039  0.00  0.00    -0.273 OA
ATOM     12  N   UNL     1       0.037   1.893  -4.949  0.00  0.00    -0.241 N 
ATOM     13  C   UNL     1      -0.689   2.467  -3.986  0.00  0.00    +0.308 C 
ATOM     14  O   UNL     1      -1.405   3.433  -4.136  0.00  0.00    -0.252 OA
ATOM     15  N   UNL     1      -0.535   1.819  -2.801  0.00  0.00    -0.285 N 
ATOM     16  H   UNL     1      -1.222   1.886  -2.124  0.00  0.00    +0.151 HD
ENDBRANCH   1  12
BRANCH   1  17
ATOM     17  N   UNL     1      -1.025   1.533  -7.067  0.00  0.00    +0.391 N 
ATOM     18  C   UNL     1      -2.344   1.890  -6.530  0.00  0.00    -0.075 C 
ATOM     19  C   UNL     1      -3.421   1.042  -7.208  0.00  0.00    +0.004 C 
ATOM     20  C   UNL     1      -3.394   1.302  -8.717  0.00  0.00    +0.069 C 
ATOM     21  C   UNL     1      -1.993   0.998  -9.253  0.00  0.00    +0.004 C 
ATOM     22  C   UNL     1      -0.968   1.848  -8.499  0.00  0.00    -0.075 C 
ATOM     23  H   UNL     1      -0.866   0.546  -6.934  0.00  0.00    -0.079 HD
BRANCH  20  24
ATOM     24  N   UNL     1      -4.372   0.437  -9.381  0.00  0.00    -0.312 N 
ATOM     25  C   UNL     1      -4.897   0.800 -10.569  0.00  0.00    +0.216 C 
ATOM     26  O   UNL     1      -4.560   1.843 -11.087  0.00  0.00    -0.276 OA
ATOM     27  H   UNL     1      -4.642  -0.398  -8.967  0.00  0.00    +0.149 HD
BRANCH  25  28
ATOM     28  C   UNL     1      -5.902  -0.090 -11.252  0.00  0.00    +0.075 C 
ATOM     29  C   UNL     1      -7.338   0.089 -10.731  0.00  0.00    +0.013 C 
ATOM     30  C   UNL     1      -7.504   1.185 -11.798  0.00  0.00    +0.001 C 
ATOM     31  C   UNL     1      -6.404   0.465 -12.595  0.00  0.00    +0.013 C 
ENDBRANCH  25  28
ENDBRANCH  20  24
ENDBRANCH   1  17
TORSDOF 4
