REMARK  Name = ZINC13004331
REMARK  5 active torsions:
REMARK  status: ('A' for Active; 'I' for Inactive)
REMARK    1  A    between atoms: C_1  and  N_2
REMARK    2  A    between atoms: C_11  and  C_13
REMARK    3  A    between atoms: N_15  and  N_16
REMARK    4  A    between atoms: C_17  and  C_19
REMARK    5  A    between atoms: C_19  and  C_20
REMARK                            x       y       z     vdW  Elec       q    Type
REMARK                         _______ _______ _______ _____ _____    ______ ____
ROOT
ATOM      1  C   UNL     1       2.442  -2.949  -0.038  0.00  0.00    +0.281 C 
ATOM      2  O   UNL     1       3.517  -2.381  -0.045  0.00  0.00    -0.267 OA
ATOM      3  N   UNL     1       2.392  -4.296  -0.045  0.00  0.00    -0.229 N 
ATOM      4  H   UNL     1       1.534  -4.749  -0.040  0.00  0.00    +0.173 HD
ENDROOT
BRANCH   1  15
ATOM      5  C   UNL     1      -2.320  -2.970   0.007  0.00  0.00    +0.176 C 
ATOM      6  N   UNL     1      -1.098  -2.162   0.000  0.00  0.00    -0.231 N 
ATOM      7  C   UNL     1      -1.221  -0.819   0.009  0.00  0.00    +0.275 A 
ATOM      8  O   UNL     1      -2.319  -0.294   0.022  0.00  0.00    -0.266 OA
ATOM      9  C   UNL     1       0.002  -0.004   0.002  0.00  0.00    +0.050 A 
ATOM     10  C   UNL     1      -0.017   1.387   0.010  0.00  0.00    +0.014 A 
ATOM     11  C   UNL     1       1.176   2.079   0.002  0.00  0.00    +0.001 A 
ATOM     12  C   UNL     1       2.389   1.403  -0.013  0.00  0.00    +0.001 A 
ATOM     13  C   UNL     1       2.428   0.025  -0.021  0.00  0.00    +0.011 A 
ATOM     14  C   UNL     1       1.237  -0.693  -0.013  0.00  0.00    +0.020 A 
ATOM     15  C   UNL     1       1.192  -2.164  -0.021  0.00  0.00    +0.155 A 
ATOM     16  N   UNL     1       0.029  -2.768  -0.014  0.00  0.00    -0.163 NA
ENDBRANCH   1  15
BRANCH   3  17
ATOM     17  N   UNL     1       3.578  -5.042  -0.061  0.00  0.00    -0.234 N 
ATOM     18  C   UNL     1       3.527  -6.388  -0.068  0.00  0.00    +0.233 C 
ATOM     19  O   UNL     1       2.455  -6.955  -0.061  0.00  0.00    -0.274 OA
ATOM     20  H   UNL     1       4.435  -4.588  -0.067  0.00  0.00    +0.173 HD
BRANCH  18  21
ATOM     21  C   UNL     1       4.803  -7.190  -0.085  0.00  0.00    +0.132 C 
BRANCH  21  22
ATOM     22  C   UNL     1       4.473  -8.660  -0.091  0.00  0.00    -0.038 A 
ATOM     23  C   UNL     1       4.338  -9.345   1.103  0.00  0.00    +0.004 A 
ATOM     24  C   UNL     1       4.031 -10.690   1.090  0.00  0.00    +0.004 A 
ATOM     25  C   UNL     1       3.869 -11.366  -0.113  0.00  0.00    -0.044 A 
ATOM     26  C   UNL     1       4.006 -10.684  -1.301  0.00  0.00    -0.044 A 
ATOM     27  C   UNL     1       4.309  -9.329  -1.286  0.00  0.00    +0.008 A 
ATOM     28  C   UNL     1       3.834 -11.349  -2.642  0.00  0.00    +0.035 C 
ATOM     29  C   UNL     1       3.937 -12.867  -2.505  0.00  0.00    +0.005 C 
ATOM     30  C   UNL     1       2.987 -13.318  -1.390  0.00  0.00    +0.005 C 
ATOM     31  C   UNL     1       3.550 -12.836  -0.054  0.00  0.00    +0.035 C 
ENDBRANCH  21  22
ENDBRANCH  18  21
ENDBRANCH   3  17
TORSDOF 4
