REMARK  Name = ZINC35747209
REMARK  15 active torsions:
REMARK  status: ('A' for Active; 'I' for Inactive)
REMARK    1  A    between atoms: C_1  and  C_2
REMARK    2  A    between atoms: C_5  and  C_8
REMARK    3  A    between atoms: C_17  and  C_19
REMARK    4  A    between atoms: C_19  and  N_20
REMARK    5  A    between atoms: N_20  and  C_21
REMARK    6  A    between atoms: N_20  and  C_25
REMARK    7  A    between atoms: C_21  and  C_22
REMARK    8  A    between atoms: C_22  and  O_23
REMARK    9  A    between atoms: O_23  and  C_24
REMARK   10  A    between atoms: C_25  and  C_26
REMARK   11  A    between atoms: C_26  and  C_28
REMARK   12  A    between atoms: C_26  and  O_37
REMARK   13  A    between atoms: C_28  and  O_29
REMARK   14  A    between atoms: O_29  and  C_30
REMARK   15  A    between atoms: C_35  and  C_36
REMARK                            x       y       z     vdW  Elec       q    Type
REMARK                         _______ _______ _______ _____ _____    ______ ____
ROOT
ATOM      1  C   UNL     1       3.974  -7.962   1.859  0.00  0.00    -0.003 C 
ENDROOT
BRANCH   1  11
ATOM      2  C   UNL     1       9.427  -8.412   0.261  0.00  0.00    +0.004 A 
ATOM      3  C   UNL     1       9.791  -9.693   0.013  0.00  0.00    +0.056 A 
ATOM      4  S   UNL     1       8.298 -10.614   0.327  0.00  0.00    -0.076 S 
ATOM      5  C   UNL     1       7.230  -9.271   0.778  0.00  0.00    +0.116 A 
ATOM      6  C   UNL     1       8.058  -8.141   0.681  0.00  0.00    +0.080 A 
ATOM      7  C   UNL     1       7.439  -6.890   1.002  0.00  0.00    +0.260 A 
ATOM      8  O   UNL     1       8.075  -5.852   0.942  0.00  0.00    -0.267 OA
ATOM      9  N   UNL     1       6.145  -6.878   1.371  0.00  0.00    -0.312 N 
ATOM     10  H   UNL     1       5.721  -6.034   1.589  0.00  0.00    +0.170 HD
ATOM     11  C   UNL     1       5.421  -8.025   1.442  0.00  0.00    +0.094 A 
ATOM     12  N   UNL     1       5.955  -9.179   1.145  0.00  0.00    -0.229 NA
BRANCH   2  17
ATOM     13  C   UNL     1      13.223  -4.121  -0.318  0.00  0.00    +0.044 C 
ATOM     14  C   UNL     1      12.230  -5.244  -0.166  0.00  0.00    -0.050 A 
ATOM     15  C   UNL     1      12.566  -6.366   0.569  0.00  0.00    +0.004 A 
ATOM     16  C   UNL     1      11.660  -7.398   0.711  0.00  0.00    +0.009 A 
ATOM     17  C   UNL     1      10.404  -7.307   0.112  0.00  0.00    -0.017 A 
ATOM     18  C   UNL     1      10.071  -6.173  -0.628  0.00  0.00    +0.009 A 
ATOM     19  C   UNL     1      10.983  -5.146  -0.759  0.00  0.00    +0.004 A 
ENDBRANCH   2  17
ENDBRANCH   1  11
BRANCH   1  20
ATOM     20  N   UNL     1       3.444  -9.326   1.990  0.00  0.00    +0.388 N 
ATOM     21  H   UNL     1       3.620  -9.839   1.140  0.00  0.00    -0.081 HD
BRANCH  20  22
ATOM     22  C   UNL     1       1.997  -9.266   2.236  0.00  0.00    -0.050 C 
BRANCH  22  23
ATOM     23  C   UNL     1       1.304  -8.603   1.044  0.00  0.00    +0.141 C 
BRANCH  23  24
ATOM     24  O   UNL     1       1.497  -9.403  -0.124  0.00  0.00    -0.385 OA
ATOM     25  C   UNL     1       0.982  -8.817  -1.322  0.00  0.00    +0.193 C 
ENDBRANCH  23  24
ENDBRANCH  22  23
ENDBRANCH  20  22
BRANCH  20  26
ATOM     26  C   UNL     1       4.104 -10.002   3.115  0.00  0.00    -0.043 C 
BRANCH  26  27
ATOM     27  C   UNL     1       3.708 -11.480   3.125  0.00  0.00    +0.135 C 
BRANCH  27  28
ATOM     28  O   UNL     1       2.321 -11.599   3.444  0.00  0.00    -0.390 OA
ATOM     29  H   UNL     1       2.083 -11.234   4.307  0.00  0.00    +0.210 HD
ENDBRANCH  27  28
BRANCH  27  30
ATOM     30  C   UNL     1       4.538 -12.223   4.174  0.00  0.00    +0.258 C 
BRANCH  30  31
ATOM     31  O   UNL     1       4.253 -13.621   4.104  0.00  0.00    -0.489 OA
BRANCH  31  32
ATOM     32  C   UNL     1       4.912 -14.430   4.974  0.00  0.00    +0.124 A 
ATOM     33  C   UNL     1       5.811 -13.888   5.882  0.00  0.00    +0.046 A 
ATOM     34  C   UNL     1       6.479 -14.712   6.767  0.00  0.00    +0.004 A 
ATOM     35  C   UNL     1       6.253 -16.076   6.748  0.00  0.00    +0.000 A 
ATOM     36  C   UNL     1       5.359 -16.619   5.844  0.00  0.00    +0.007 A 
ATOM     37  C   UNL     1       4.684 -15.798   4.961  0.00  0.00    -0.009 A 
ATOM     38  C   UNL     1       3.704 -16.390   3.981  0.00  0.00    +0.047 C 
ENDBRANCH  31  32
ENDBRANCH  30  31
ENDBRANCH  27  30
ENDBRANCH  26  27
ENDBRANCH  20  26
ENDBRANCH   1  20
TORSDOF 12
