REMARK  Name = ZINC20827874
REMARK  9 active torsions:
REMARK  status: ('A' for Active; 'I' for Inactive)
REMARK    1  A    between atoms: C_1  and  O_2
REMARK    2  A    between atoms: O_2  and  C_3
REMARK    3  A    between atoms: C_6  and  C_18
REMARK    4  A    between atoms: C_8  and  C_9
REMARK    5  A    between atoms: C_9  and  O_10
REMARK    6  A    between atoms: O_10  and  C_11
REMARK    7  A    between atoms: N_19  and  N_20
REMARK    8  A    between atoms: C_21  and  C_23
REMARK    9  A    between atoms: C_25  and  N_31
REMARK                            x       y       z     vdW  Elec       q    Type
REMARK                         _______ _______ _______ _____ _____    ______ ____
ROOT
ATOM      1  C   UNL     1       2.491  -2.491  -4.359  0.00  0.00    +0.138 C 
ATOM      2  N   UNL     1       3.021  -1.771  -5.301  0.00  0.00    -0.187 NA
ENDROOT
BRANCH   1   6
ATOM      3  C   UNL     1       0.606  -0.607  -1.055  0.00  0.00    +0.127 A 
ATOM      4  C   UNL     1       1.173   0.165  -2.062  0.00  0.00    +0.046 A 
ATOM      5  C   UNL     1       1.786  -0.442  -3.136  0.00  0.00    +0.013 A 
ATOM      6  C   UNL     1       1.837  -1.837  -3.212  0.00  0.00    -0.005 A 
ATOM      7  C   UNL     1       1.266  -2.609  -2.197  0.00  0.00    +0.020 A 
ATOM      8  C   UNL     1       0.659  -1.993  -1.124  0.00  0.00    +0.032 A 
BRANCH   3  10
ATOM      9  C   UNL     1      -0.017   1.425   0.010  0.00  0.00    +0.277 C 
ATOM     10  O   UNL     1       0.002  -0.004   0.002  0.00  0.00    -0.495 OA
ENDBRANCH   3  10
BRANCH   8  11
ATOM     11  C   UNL     1       0.048  -2.825  -0.026  0.00  0.00    +0.268 C 
BRANCH  11  12
ATOM     12  O   UNL     1       0.229  -4.211  -0.322  0.00  0.00    -0.484 OA
BRANCH  12  13
ATOM     13  C   UNL     1      -0.268  -5.104   0.575  0.00  0.00    +0.156 A 
ATOM     14  C   UNL     1      -0.922  -4.654   1.713  0.00  0.00    +0.048 A 
ATOM     15  C   UNL     1      -1.427  -5.563   2.623  0.00  0.00    +0.004 A 
ATOM     16  C   UNL     1      -1.280  -6.920   2.402  0.00  0.00    +0.003 A 
ATOM     17  C   UNL     1      -0.629  -7.372   1.269  0.00  0.00    +0.042 A 
ATOM     18  C   UNL     1      -0.128  -6.467   0.351  0.00  0.00    +0.165 A 
ATOM     19  F   UNL     1       0.504  -6.909  -0.758  0.00  0.00    -0.202 F 
ENDBRANCH  12  13
ENDBRANCH  11  12
ENDBRANCH   8  11
ENDBRANCH   1   6
BRANCH   2  20
ATOM     20  N   UNL     1       3.643  -2.393  -6.392  0.00  0.00    -0.202 N 
ATOM     21  C   UNL     1       4.193  -1.646  -7.370  0.00  0.00    +0.283 C 
ATOM     22  O   UNL     1       4.149  -0.432  -7.305  0.00  0.00    -0.267 OA
ATOM     23  H   UNL     1       3.678  -3.361  -6.443  0.00  0.00    +0.178 HD
BRANCH  21  24
ATOM     24  C   UNL     1       4.850  -2.302  -8.522  0.00  0.00    +0.149 A 
ATOM     25  C   UNL     1       5.421  -1.524  -9.525  0.00  0.00    +0.094 A 
ATOM     26  C   UNL     1       6.037  -2.159 -10.604  0.00  0.00    +0.067 A 
ATOM     27  C   UNL     1       6.054  -3.553 -10.631  0.00  0.00    +0.100 A 
ATOM     28  C   UNL     1       5.464  -4.257  -9.594  0.00  0.00    +0.150 A 
ATOM     29  N   UNL     1       4.894  -3.629  -8.586  0.00  0.00    -0.228 NA
ATOM     30 CL   UNL     1       5.481  -5.993  -9.620  0.00  0.00    -0.060 Cl
ATOM     31 CL   UNL     1       6.805  -4.396 -11.949  0.00  0.00    -0.078 Cl
ATOM     32 CL   UNL     1       5.367   0.208  -9.435  0.00  0.00    -0.079 Cl
BRANCH  26  33
ATOM     33  N   UNL     1       6.620  -1.418 -11.630  0.00  0.00    -0.356 N 
ATOM     34  H   UNL     1       6.601  -0.449 -11.600  0.00  0.00    +0.142 HD
ATOM     35  H   UNL     1       7.045  -1.872 -12.375  0.00  0.00    +0.142 HD
ENDBRANCH  26  33
ENDBRANCH  21  24
ENDBRANCH   2  20
TORSDOF 8
