REMARK  Name = ZINC38615210
REMARK  10 active torsions:
REMARK  status: ('A' for Active; 'I' for Inactive)
REMARK    1  A    between atoms: C_1  and  O_2
REMARK    2  A    between atoms: O_2  and  C_3
REMARK    3  A    between atoms: C_6  and  C_9
REMARK    4  A    between atoms: C_9  and  C_11
REMARK    5  A    between atoms: C_9  and  N_32
REMARK    6  A    between atoms: C_11  and  N_12
REMARK    7  A    between atoms: C_13  and  C_15
REMARK    8  A    between atoms: C_15  and  C_16
REMARK    9  A    between atoms: C_16  and  N_17
REMARK   10  A    between atoms: C_21  and  C_22
REMARK                            x       y       z     vdW  Elec       q    Type
REMARK                         _______ _______ _______ _____ _____    ______ ____
ROOT
ATOM      1  N   UNL     1      -5.464  -3.271  -3.526  0.00  0.00    -0.316 N 
ATOM      2  C   UNL     1      -5.894  -3.122  -4.795  0.00  0.00    +0.214 C 
ATOM      3  O   UNL     1      -6.176  -4.098  -5.457  0.00  0.00    -0.276 OA
ATOM      4  H   UNL     1      -5.239  -2.490  -2.996  0.00  0.00    +0.149 HD
ENDROOT
BRANCH   1   5
ATOM      5  C   UNL     1      -5.337  -4.610  -2.947  0.00  0.00    +0.093 C 
BRANCH   5   6
ATOM      6  C   UNL     1      -4.932  -4.494  -1.476  0.00  0.00    -0.020 C 
BRANCH   6   7
ATOM      7  N   UNL     1      -4.917  -5.830  -0.866  0.00  0.00    +0.385 N 
ATOM      8  C   UNL     1      -6.274  -6.390  -0.884  0.00  0.00    -0.078 C 
ATOM      9  C   UNL     1      -6.250  -7.814  -0.323  0.00  0.00    -0.019 C 
ATOM     10  C   UNL     1      -5.729  -7.781   1.117  0.00  0.00    -0.004 C 
ATOM     11  C   UNL     1      -4.344  -7.127   1.133  0.00  0.00    -0.019 C 
ATOM     12  C   UNL     1      -4.439  -5.729   0.518  0.00  0.00    -0.078 C 
ATOM     13  H   UNL     1      -4.300  -6.432  -1.391  0.00  0.00    -0.081 HD
ENDBRANCH   6   7
BRANCH   6  17
ATOM     14  C   UNL     1      -1.037  -2.759  -1.203  0.00  0.00    +0.120 A 
ATOM     15  C   UNL     1      -2.162  -1.976  -0.992  0.00  0.00    +0.046 A 
ATOM     16  C   UNL     1      -3.421  -2.539  -1.081  0.00  0.00    +0.005 A 
ATOM     17  C   UNL     1      -3.559  -3.882  -1.380  0.00  0.00    -0.059 A 
ATOM     18  C   UNL     1      -2.438  -4.665  -1.591  0.00  0.00    +0.005 A 
ATOM     19  C   UNL     1      -1.178  -4.105  -1.509  0.00  0.00    +0.046 A 
BRANCH  14  21
ATOM     20  C   UNL     1       0.272  -0.816  -0.797  0.00  0.00    +0.277 C 
ATOM     21  O   UNL     1       0.202  -2.207  -1.116  0.00  0.00    -0.495 OA
ENDBRANCH  14  21
ENDBRANCH   6  17
ENDBRANCH   5   6
ENDBRANCH   1   5
BRANCH   2  22
ATOM     22  C   UNL     1      -6.025  -1.744  -5.390  0.00  0.00    +0.115 C 
BRANCH  22  23
ATOM     23  C   UNL     1      -6.528  -1.857  -6.830  0.00  0.00    +0.124 C 
BRANCH  23  24
ATOM     24  N   UNL     1      -6.655  -0.517  -7.409  0.00  0.00    -0.255 N 
ATOM     25  C   UNL     1      -7.799   0.135  -7.284  0.00  0.00    +0.258 C 
ATOM     26  O   UNL     1      -8.751  -0.349  -6.700  0.00  0.00    -0.269 OA
ATOM     27  C   UNL     1      -7.862   1.482  -7.889  0.00  0.00    +0.077 C 
ATOM     28  C   UNL     1      -8.888   2.369  -7.919  0.00  0.00    +0.028 C 
ATOM     29  S   UNL     1      -6.216   1.620  -8.572  0.00  0.00    -0.061 S 
ATOM     30  C   UNL     1      -5.601   0.026  -8.052  0.00  0.00    +0.121 C 
ATOM     31  S   UNL     1      -4.050  -0.651  -8.310  0.00  0.00    -0.027 S 
BRANCH  28  32
ATOM     32  C   UNL     1      -8.781   3.590  -8.730  0.00  0.00    -0.024 A 
ATOM     33  C   UNL     1      -7.795   3.692  -9.719  0.00  0.00    +0.011 A 
ATOM     34  C   UNL     1      -7.700   4.839 -10.476  0.00  0.00    +0.039 A 
ATOM     35  C   UNL     1      -8.578   5.891 -10.260  0.00  0.00    +0.123 A 
ATOM     36  C   UNL     1      -9.557   5.796  -9.282  0.00  0.00    +0.039 A 
ATOM     37  C   UNL     1      -9.667   4.653  -8.522  0.00  0.00    +0.011 A 
ATOM     38  F   UNL     1      -8.479   7.013 -11.006  0.00  0.00    -0.205 F 
ENDBRANCH  28  32
ENDBRANCH  23  24
ENDBRANCH  22  23
ENDBRANCH   2  22
TORSDOF 9
