REMARK  Name = ZINC43221919
REMARK  12 active torsions:
REMARK  status: ('A' for Active; 'I' for Inactive)
REMARK    1  A    between atoms: C_1  and  C_2
REMARK    2  A    between atoms: C_2  and  C_3
REMARK    3  A    between atoms: C_7  and  C_40
REMARK    4  A    between atoms: C_8  and  N_9
REMARK    5  A    between atoms: C_14  and  C_32
REMARK    6  A    between atoms: C_17  and  C_22
REMARK    7  A    between atoms: C_17  and  C_29
REMARK    8  A    between atoms: C_22  and  C_23
REMARK    9  A    between atoms: C_23  and  C_24
REMARK   10  A    between atoms: C_24  and  N_25
REMARK   11  A    between atoms: C_35  and  C_38
REMARK   12  A    between atoms: C_40  and  C_41
REMARK                            x       y       z     vdW  Elec       q    Type
REMARK                         _______ _______ _______ _____ _____    ______ ____
ROOT
ATOM      1  N   UNL     1       2.601  -0.743   0.022  0.00  0.00    -0.209 N 
ATOM      2  C   UNL     1       2.980   0.574   0.111  0.00  0.00    +0.229 C 
ATOM      3  O   UNL     1       2.549   1.514  -0.521  0.00  0.00    -0.275 OA
ATOM      4  C   UNL     1       4.008   0.590   1.125  0.00  0.00    +0.077 C 
ATOM      5  C   UNL     1       4.694   1.531   2.022  0.00  0.00    -0.027 C 
ATOM      6  N   UNL     1       5.304   0.658   3.079  0.00  0.00    +0.395 N 
ATOM      7  C   UNL     1       4.846  -0.746   2.825  0.00  0.00    +0.048 C 
ATOM      8  C   UNL     1       3.489  -0.520   2.124  0.00  0.00    +0.086 C 
ATOM      9  C   UNL     1       3.066  -1.498   1.062  0.00  0.00    +0.229 C 
ATOM     10  O   UNL     1       3.127  -2.707   1.116  0.00  0.00    -0.275 OA
ATOM     11  H   UNL     1       6.310   0.706   3.023  0.00  0.00    -0.083 HD
ATOM     12  H   UNL     1       4.995   0.959   3.992  0.00  0.00    -0.083 HD
ENDROOT
BRANCH   1  18
ATOM     13  C   UNL     1       0.432  -1.261  -0.911  0.00  0.00    -0.026 A 
ATOM     14  C   UNL     1      -0.339  -1.762  -1.941  0.00  0.00    +0.005 A 
ATOM     15  C   UNL     1       0.267  -2.264  -3.079  0.00  0.00    +0.001 A 
ATOM     16  C   UNL     1       1.645  -2.265  -3.188  0.00  0.00    +0.005 A 
ATOM     17  C   UNL     1       2.422  -1.765  -2.161  0.00  0.00    -0.026 A 
ATOM     18  C   UNL     1       1.816  -1.256  -1.020  0.00  0.00    +0.050 A 
BRANCH  13  20
ATOM     19  C   UNL     1      -0.391   0.801   0.194  0.00  0.00    +0.009 C 
ATOM     20  C   UNL     1      -0.229  -0.714   0.329  0.00  0.00    +0.033 C 
ENDBRANCH  13  20
BRANCH  17  21
ATOM     21  C   UNL     1       3.924  -1.767  -2.281  0.00  0.00    +0.033 C 
ATOM     22  C   UNL     1       4.488  -3.019  -1.607  0.00  0.00    +0.009 C 
ENDBRANCH  17  21
ENDBRANCH   1  18
BRANCH   5  23
ATOM     23  C   UNL     1       3.705   2.490   2.634  0.00  0.00    -0.061 A 
ATOM     24  C   UNL     1       2.940   2.094   3.716  0.00  0.00    +0.003 A 
ATOM     25  C   UNL     1       2.034   2.967   4.281  0.00  0.00    +0.019 A 
ATOM     26  C   UNL     1       1.889   4.253   3.757  0.00  0.00    +0.052 A 
ATOM     27  C   UNL     1       2.664   4.647   2.664  0.00  0.00    +0.019 A 
ATOM     28  C   UNL     1       3.571   3.765   2.113  0.00  0.00    +0.003 A 
BRANCH  26  29
ATOM     29  C   UNL     1       0.949   5.165   4.338  0.00  0.00    +0.099 C 
ATOM     30  N   UNL     1       0.204   5.888   4.798  0.00  0.00    -0.191 NA
ENDBRANCH  26  29
ENDBRANCH   5  23
BRANCH   7  31
ATOM     31  C   UNL     1       4.651  -1.488   4.122  0.00  0.00    +0.346 C 
ATOM     32  O   UNL     1       4.891  -0.935   5.182  0.00  0.00    -0.248 OA
ATOM     33  O   UNL     1       4.253  -2.640   4.111  0.00  0.00    -0.248 OA
ENDBRANCH   7  31
BRANCH   7  34
ATOM     34  C   UNL     1       5.835  -1.484   1.920  0.00  0.00    +0.001 C 
BRANCH  34  35
ATOM     35  C   UNL     1       7.183  -1.608   2.633  0.00  0.00    +0.018 C 
BRANCH  35  36
ATOM     36  C   UNL     1       8.172  -2.346   1.728  0.00  0.00    +0.105 C 
BRANCH  36  37
ATOM     37  N   UNL     1       9.463  -2.465   2.411  0.00  0.00    -0.300 N 
ATOM     38  C   UNL     1      10.494  -3.083   1.801  0.00  0.00    +0.297 C 
ATOM     39  O   UNL     1      10.352  -3.541   0.684  0.00  0.00    -0.253 OA
ATOM     40  N   UNL     1      11.681  -3.193   2.429  0.00  0.00    -0.313 N 
ATOM     41  H   UNL     1       9.576  -2.099   3.302  0.00  0.00    +0.150 HD
ATOM     42  H   UNL     1      11.794  -2.827   3.320  0.00  0.00    +0.146 HD
ATOM     43  H   UNL     1      12.423  -3.637   1.990  0.00  0.00    +0.146 HD
ENDBRANCH  36  37
ENDBRANCH  35  36
ENDBRANCH  34  35
ENDBRANCH   7  34
TORSDOF 10
