REMARK  Name = ZINC21500696
REMARK  4 active torsions:
REMARK  status: ('A' for Active; 'I' for Inactive)
REMARK    1  A    between atoms: C_3  and  N_11
REMARK    2  A    between atoms: C_4  and  N_8
REMARK    3  A    between atoms: N_11  and  C_12
REMARK    4  A    between atoms: C_15  and  O_18
REMARK                            x       y       z     vdW  Elec       q    Type
REMARK                         _______ _______ _______ _____ _____    ______ ____
ROOT
ATOM      1  C   UNL     1      -0.069   6.984  -2.740  0.00  0.00    +0.017 A 
ATOM      2  C   UNL     1      -0.324   5.719  -2.248  0.00  0.00    +0.026 A 
ATOM      3  C   UNL     1      -1.190   4.873  -2.928  0.00  0.00    +0.058 A 
ATOM      4  C   UNL     1      -1.805   5.305  -4.096  0.00  0.00    +0.148 A 
ATOM      5  C   UNL     1      -1.550   6.573  -4.580  0.00  0.00    +0.050 A 
ATOM      6  C   UNL     1      -0.683   7.412  -3.903  0.00  0.00    +0.020 A 
ATOM      7 BR   UNL     1      -0.337   9.148  -4.570  0.00  0.00    -0.050 Br
ENDROOT
BRANCH   4   8
ATOM      8  N   UNL     1      -2.734   4.408  -4.820  0.00  0.00    +0.058 N 
ATOM      9  O   UNL     1      -3.186   4.744  -5.899  0.00  0.00    -0.126 OA
ATOM     10  O   UNL     1      -3.045   3.335  -4.335  0.00  0.00    -0.126 OA
ENDBRANCH   4   8
BRANCH   3  11
ATOM     11  N   UNL     1      -1.446   3.591  -2.434  0.00  0.00    -0.339 N 
ATOM     12  H   UNL     1      -2.203   2.956  -2.919  0.00  0.00    +0.146 HD
BRANCH  11  13
ATOM     13  C   UNL     1      -0.708   3.092  -1.272  0.00  0.00    +0.071 C 
ATOM     14  C   UNL     1      -0.680   1.562  -1.303  0.00  0.00    +0.025 C 
ATOM     15  C   UNL     1       0.091   1.041  -0.089  0.00  0.00    +0.033 C 
ATOM     16  C   UNL     1      -0.598   1.513   1.194  0.00  0.00    +0.115 C 
ATOM     17  C   UNL     1      -0.625   3.042   1.225  0.00  0.00    +0.033 C 
ATOM     18  C   UNL     1      -1.397   3.564   0.011  0.00  0.00    +0.025 C 
BRANCH  16  19
ATOM     19  O   UNL     1       0.123   1.026   2.328  0.00  0.00    -0.392 OA
ATOM     20  H   UNL     1      -0.224   1.265   3.344  0.00  0.00    +0.210 HD
ENDBRANCH  16  19
ENDBRANCH  11  13
ENDBRANCH   3  11
TORSDOF 4
