REMARK  Name = ZINC36207799
REMARK  14 active torsions:
REMARK  status: ('A' for Active; 'I' for Inactive)
REMARK    1  A    between atoms: C_1  and  O_2
REMARK    2  A    between atoms: O_2  and  C_3
REMARK    3  A    between atoms: C_3  and  C_4
REMARK    4  A    between atoms: C_4  and  N_5
REMARK    5  A    between atoms: N_5  and  C_6
REMARK    6  A    between atoms: N_5  and  C_25
REMARK    7  A    between atoms: C_6  and  C_7
REMARK    8  A    between atoms: C_13  and  C_18
REMARK    9  A    between atoms: C_25  and  C_26
REMARK   10  A    between atoms: C_26  and  C_28
REMARK   11  A    between atoms: C_26  and  O_33
REMARK   12  A    between atoms: C_28  and  O_29
REMARK   13  A    between atoms: O_29  and  C_30
REMARK   14  A    between atoms: C_30  and  C_31
REMARK                            x       y       z     vdW  Elec       q    Type
REMARK                         _______ _______ _______ _____ _____    ______ ____
ROOT
ATOM      1  C   UNL     1       4.067  -2.370  -1.442  0.00  0.00    +0.094 A 
ATOM      2  N   UNL     1       5.390  -2.103  -1.296  0.00  0.00    -0.312 N 
ATOM      3  H   UNL     1       5.694  -1.623  -0.510  0.00  0.00    +0.170 HD
ATOM      4  C   UNL     1       6.288  -2.492  -2.220  0.00  0.00    +0.260 A 
ATOM      5  O   UNL     1       7.473  -2.245  -2.073  0.00  0.00    -0.267 OA
ATOM      6  C   UNL     1       5.831  -3.200  -3.377  0.00  0.00    +0.080 A 
ATOM      7  C   UNL     1       6.598  -3.720  -4.503  0.00  0.00    +0.006 A 
ATOM      8  C   UNL     1       5.940  -4.365  -5.497  0.00  0.00    +0.056 A 
ATOM      9  S   UNL     1       4.239  -4.309  -4.969  0.00  0.00    -0.076 S 
ATOM     10  C   UNL     1       4.447  -3.429  -3.442  0.00  0.00    +0.116 A 
ATOM     11  N   UNL     1       3.620  -3.018  -2.485  0.00  0.00    -0.229 NA
ENDROOT
BRANCH   7  12
ATOM     12  C   UNL     1       8.069  -3.545  -4.560  0.00  0.00    +0.019 A 
ATOM     13  C   UNL     1       8.642  -2.757  -5.557  0.00  0.00    +0.011 A 
ATOM     14  C   UNL     1      10.012  -2.598  -5.605  0.00  0.00    +0.001 A 
ATOM     15  C   UNL     1      10.818  -3.218  -4.666  0.00  0.00    +0.003 A 
ATOM     16  C   UNL     1      10.257  -4.002  -3.674  0.00  0.00    +0.039 A 
ATOM     17  C   UNL     1       8.885  -4.165  -3.612  0.00  0.00    +0.131 A 
ATOM     18  F   UNL     1       8.337  -4.926  -2.640  0.00  0.00    -0.205 F 
ENDBRANCH   7  12
BRANCH   1  19
ATOM     19  C   UNL     1       3.098  -1.917  -0.381  0.00  0.00    -0.003 C 
BRANCH  19  20
ATOM     20  N   UNL     1       1.763  -2.455  -0.675  0.00  0.00    +0.388 N 
ATOM     21  H   UNL     1       1.488  -2.184  -1.607  0.00  0.00    -0.081 HD
BRANCH  20  22
ATOM     22  C   UNL     1       0.796  -1.923   0.295  0.00  0.00    -0.050 C 
BRANCH  22  23
ATOM     23  C   UNL     1       0.703  -0.404   0.141  0.00  0.00    +0.141 C 
BRANCH  23  25
ATOM     24  C   UNL     1       0.232   1.314  -1.464  0.00  0.00    +0.193 C 
ATOM     25  O   UNL     1       0.249  -0.086  -1.177  0.00  0.00    -0.385 OA
ENDBRANCH  23  25
ENDBRANCH  22  23
ENDBRANCH  20  22
BRANCH  20  26
ATOM     26  C   UNL     1       1.795  -3.921  -0.581  0.00  0.00    -0.044 C 
BRANCH  26  27
ATOM     27  C   UNL     1       0.468  -4.493  -1.085  0.00  0.00    +0.124 C 
BRANCH  27  28
ATOM     28  O   UNL     1      -0.569  -4.182  -0.153  0.00  0.00    -0.391 OA
ATOM     29  H   UNL     1      -0.422  -4.540   0.734  0.00  0.00    +0.210 HD
ENDBRANCH  27  28
BRANCH  27  30
ATOM     30  C   UNL     1       0.589  -6.012  -1.226  0.00  0.00    +0.189 C 
BRANCH  30  31
ATOM     31  O   UNL     1      -0.609  -6.533  -1.806  0.00  0.00    -0.373 OA
BRANCH  31  32
ATOM     32  C   UNL     1      -0.600  -7.951  -1.982  0.00  0.00    +0.186 C 
BRANCH  32  33
ATOM     33  C   UNL     1      -1.904  -8.389  -2.597  0.00  0.00    -0.007 C 
ATOM     34  C   UNL     1      -1.906  -9.248  -3.586  0.00  0.00    +0.006 C 
ENDBRANCH  32  33
ENDBRANCH  31  32
ENDBRANCH  30  31
ENDBRANCH  27  30
ENDBRANCH  26  27
ENDBRANCH  20  26
ENDBRANCH  19  20
ENDBRANCH   1  19
TORSDOF 13
