REMARK  Name = ZINC39696163
REMARK  8 active torsions:
REMARK  status: ('A' for Active; 'I' for Inactive)
REMARK    1  A    between atoms: C_1  and  C_2
REMARK    2  A    between atoms: C_2  and  C_3
REMARK    3  A    between atoms: C_6  and  C_9
REMARK    4  A    between atoms: C_9  and  C_11
REMARK    5  A    between atoms: C_9  and  N_12
REMARK    6  A    between atoms: C_13  and  C_15
REMARK    7  A    between atoms: C_26  and  C_28
REMARK    8  A    between atoms: C_33  and  C_34
REMARK                            x       y       z     vdW  Elec       q    Type
REMARK                         _______ _______ _______ _____ _____    ______ ____
ROOT
ATOM      1  C   UNL     1       6.577  -0.606  -6.120  0.00  0.00    +0.100 C 
ATOM      2  C   UNL     1       6.160   0.845  -5.793  0.00  0.00    +0.121 C 
ATOM      3  N   UNL     1       6.854   1.672  -6.808  0.00  0.00    -0.296 N 
ATOM      4  C   UNL     1       6.758   0.880  -8.058  0.00  0.00    +0.115 C 
ATOM      5  C   UNL     1       6.968  -0.579  -7.608  0.00  0.00    -0.004 C 
ATOM      6  C   UNL     1       6.065  -1.513  -8.408  0.00  0.00    -0.010 C 
ATOM      7  C   UNL     1       6.510  -1.514  -9.873  0.00  0.00    -0.082 C 
ATOM      8  N   UNL     1       7.907  -1.956  -9.962  0.00  0.00    +0.379 N 
ATOM      9  C   UNL     1       8.780  -1.001  -9.268  0.00  0.00    -0.082 C 
ATOM     10  C   UNL     1       8.431  -0.979  -7.777  0.00  0.00    -0.010 C 
ATOM     11  C   UNL     1       7.441   2.873  -6.635  0.00  0.00    +0.247 C 
ATOM     12  O   UNL     1       7.888   3.475  -7.591  0.00  0.00    -0.270 OA
ATOM     13  H   UNL     1       7.999  -2.865  -9.534  0.00  0.00    -0.086 HD
ATOM     14  H   UNL     1       8.179  -2.014 -10.932  0.00  0.00    -0.086 HD
ENDROOT
BRANCH  11  15
ATOM     15  C   UNL     1       7.542   3.458  -5.280  0.00  0.00    +0.043 A 
ATOM     16  C   UNL     1       6.511   3.272  -4.359  0.00  0.00    +0.051 A 
ATOM     17  C   UNL     1       6.612   3.821  -3.095  0.00  0.00    +0.124 A 
ATOM     18  C   UNL     1       7.734   4.554  -2.743  0.00  0.00    +0.038 A 
ATOM     19  C   UNL     1       8.758   4.740  -3.653  0.00  0.00    +0.007 A 
ATOM     20  C   UNL     1       8.671   4.193  -4.917  0.00  0.00    -0.038 A 
ATOM     21  C   UNL     1       9.792   4.393  -5.905  0.00  0.00    +0.044 C 
ATOM     22  F   UNL     1       5.615   3.643  -2.200  0.00  0.00    -0.205 F 
ENDBRANCH  11  15
BRANCH   1  24
ATOM     23  N   UNL     1       5.653  -2.832  -5.563  0.00  0.00    -0.308 N 
ATOM     24  C   UNL     1       5.421  -1.547  -5.899  0.00  0.00    +0.219 C 
ATOM     25  O   UNL     1       4.282  -1.148  -6.022  0.00  0.00    -0.275 OA
ATOM     26  H   UNL     1       6.563  -3.151  -5.465  0.00  0.00    +0.149 HD
BRANCH  23  27
ATOM     27  C   UNL     1       4.529  -3.746  -5.348  0.00  0.00    +0.100 C 
ATOM     28  C   UNL     1       4.082  -4.330  -6.689  0.00  0.00    +0.033 C 
BRANCH  27  32
ATOM     29  C   UNL     1       5.747  -6.914  -2.753  0.00  0.00    -0.048 A 
ATOM     30  C   UNL     1       4.491  -6.353  -2.617  0.00  0.00    +0.004 A 
ATOM     31  C   UNL     1       4.097  -5.328  -3.456  0.00  0.00    +0.006 A 
ATOM     32  C   UNL     1       4.959  -4.863  -4.432  0.00  0.00    -0.027 A 
ATOM     33  C   UNL     1       6.215  -5.423  -4.568  0.00  0.00    +0.006 A 
ATOM     34  C   UNL     1       6.611  -6.446  -3.725  0.00  0.00    +0.004 A 
BRANCH  29  36
ATOM     35  C   UNL     1       6.848  -7.443  -0.595  0.00  0.00    +0.009 C 
ATOM     36  C   UNL     1       6.176  -8.031  -1.838  0.00  0.00    +0.032 C 
ENDBRANCH  29  36
ENDBRANCH  27  32
ENDBRANCH  23  27
ENDBRANCH   1  24
TORSDOF 5
