REMARK  Name = ZINC31040481
REMARK  12 active torsions:
REMARK  status: ('A' for Active; 'I' for Inactive)
REMARK    1  A    between atoms: C_1  and  C_2
REMARK    2  A    between atoms: C_3  and  N_11
REMARK    3  A    between atoms: C_7  and  N_8
REMARK    4  A    between atoms: C_12  and  C_14
REMARK    5  A    between atoms: C_14  and  C_15
REMARK    6  A    between atoms: C_15  and  N_16
REMARK    7  A    between atoms: N_16  and  C_17
REMARK    8  A    between atoms: N_16  and  C_18
REMARK    9  A    between atoms: C_18  and  C_19
REMARK   10  A    between atoms: N_21  and  C_22
REMARK   11  A    between atoms: C_27  and  S_28
REMARK   12  A    between atoms: S_28  and  C_29
REMARK                            x       y       z     vdW  Elec       q    Type
REMARK                         _______ _______ _______ _____ _____    ______ ____
ROOT
ATOM      1  C   UNL     1      -1.006  -0.327  -6.623  0.00  0.00    -0.069 C 
ENDROOT
BRANCH   1   2
ATOM      2  N   UNL     1      -1.314   0.260  -7.934  0.00  0.00    +0.384 N 
ATOM      3  C   UNL     1      -2.519   1.093  -7.827  0.00  0.00    -0.096 C 
ATOM      4  H   UNL     1      -0.538   0.829  -8.239  0.00  0.00    -0.082 HD
BRANCH   2   5
ATOM      5  C   UNL     1      -1.546  -0.814  -8.909  0.00  0.00    +0.018 C 
BRANCH   5   6
ATOM      6  C   UNL     1      -1.741  -0.216 -10.278  0.00  0.00    +0.201 C 
ATOM      7  O   UNL     1      -1.691   0.987 -10.428  0.00  0.00    -0.278 OA
ATOM      8  N   UNL     1      -1.970  -1.017 -11.338  0.00  0.00    -0.286 N 
ATOM      9  H   UNL     1      -2.094  -1.970 -11.207  0.00  0.00    +0.155 HD
BRANCH   8  10
ATOM     10  C   UNL     1      -2.029  -0.474 -12.628  0.00  0.00    +0.047 A 
ATOM     11  C   UNL     1      -1.231   0.609 -12.963  0.00  0.00    +0.024 A 
ATOM     12  C   UNL     1      -1.290   1.144 -14.237  0.00  0.00    +0.002 A 
ATOM     13  C   UNL     1      -2.145   0.602 -15.180  0.00  0.00    +0.001 A 
ATOM     14  C   UNL     1      -2.944  -0.478 -14.855  0.00  0.00    +0.016 A 
ATOM     15  C   UNL     1      -2.887  -1.025 -13.581  0.00  0.00    +0.029 A 
BRANCH  15  16
ATOM     16  S   UNL     1      -3.899  -2.405 -13.165  0.00  0.00    -0.127 S 
ATOM     17  C   UNL     1      -4.816  -2.753 -14.692  0.00  0.00    +0.090 C 
ENDBRANCH  15  16
ENDBRANCH   8  10
ENDBRANCH   5   6
ENDBRANCH   2   5
ENDBRANCH   1   2
BRANCH   1  18
ATOM     18  C   UNL     1      -0.642   0.786  -5.639  0.00  0.00    +0.077 C 
BRANCH  18  20
ATOM     19  N   UNL     1       0.023   0.981  -3.264  0.00  0.00    -0.285 N 
ATOM     20  C   UNL     1      -0.326   0.184  -4.294  0.00  0.00    +0.215 C 
ATOM     21  O   UNL     1      -0.386  -1.017  -4.138  0.00  0.00    -0.276 OA
ATOM     22  H   UNL     1       0.130   1.935  -3.403  0.00  0.00    +0.155 HD
BRANCH  19  25
ATOM     23  C   UNL     1      -0.709   2.531  -0.992  0.00  0.00    +0.048 C 
ATOM     24  C   UNL     1      -0.111   1.154  -0.859  0.00  0.00    +0.001 A 
ATOM     25  C   UNL     1       0.232   0.432  -1.994  0.00  0.00    +0.038 A 
ATOM     26  C   UNL     1       0.783  -0.837  -1.867  0.00  0.00    +0.024 A 
ATOM     27  C   UNL     1       0.988  -1.376  -0.612  0.00  0.00    +0.004 A 
ATOM     28  C   UNL     1       0.644  -0.655   0.517  0.00  0.00    +0.033 A 
ATOM     29  C   UNL     1       0.101   0.611   0.393  0.00  0.00    +0.131 A 
BRANCH  29  30
ATOM     30  N   UNL     1      -0.259   1.382   1.604  0.00  0.00    +0.057 N 
ATOM     31  O   UNL     1      -0.273   2.590   1.569  0.00  0.00    -0.126 OA
ATOM     32  O   UNL     1      -0.539   0.803   2.628  0.00  0.00    -0.126 OA
ENDBRANCH  29  30
ENDBRANCH  19  25
ENDBRANCH  18  20
ENDBRANCH   1  18
TORSDOF 9
