REMARK  Name = ZINC00782350
REMARK  9 active torsions:
REMARK  status: ('A' for Active; 'I' for Inactive)
REMARK    1  A    between atoms: C_1  and  C_2
REMARK    2  A    between atoms: C_12  and  C_14
REMARK    3  A    between atoms: C_14  and  C_16
REMARK    4  A    between atoms: C_14  and  N_26
REMARK    5  A    between atoms: N_20  and  C_21
REMARK    6  A    between atoms: N_26  and  C_27
REMARK    7  A    between atoms: N_26  and  C_33
REMARK    8  A    between atoms: C_27  and  C_28
REMARK    9  A    between atoms: C_33  and  C_34
REMARK                            x       y       z     vdW  Elec       q    Type
REMARK                         _______ _______ _______ _____ _____    ______ ____
ROOT
ATOM      1  C   UNL     1       0.273  -3.164   5.165  0.00  0.00    +0.163 C 
ENDROOT
BRANCH   1  13
ATOM      2  C   UNL     1      -0.976   1.170   0.384  0.00  0.00    +0.046 C 
ATOM      3  C   UNL     1      -0.675  -0.306   0.336  0.00  0.00    -0.026 A 
ATOM      4  C   UNL     1      -0.625  -0.962  -0.875  0.00  0.00    +0.005 A 
ATOM      5  C   UNL     1      -0.351  -2.321  -0.933  0.00  0.00    +0.001 A 
ATOM      6  C   UNL     1      -0.124  -3.034   0.210  0.00  0.00    +0.010 A 
ATOM      7  C   UNL     1      -0.169  -2.389   1.450  0.00  0.00    -0.001 A 
ATOM      8  C   UNL     1      -0.442  -1.010   1.513  0.00  0.00    +0.052 A 
ATOM      9  N   UNL     1      -0.481  -0.377   2.737  0.00  0.00    -0.322 N 
ATOM     10  H   UNL     1      -0.673   0.573   2.779  0.00  0.00    +0.169 HD
ATOM     11  C   UNL     1      -0.256  -1.058   3.874  0.00  0.00    +0.254 A 
ATOM     12  O   UNL     1      -0.299  -0.467   4.939  0.00  0.00    -0.268 OA
ATOM     13  C   UNL     1       0.027  -2.441   3.866  0.00  0.00    +0.042 A 
ATOM     14  C   UNL     1       0.069  -3.123   2.695  0.00  0.00    +0.021 A 
ENDBRANCH   1  13
BRANCH   1  15
ATOM     15  C   UNL     1      -0.981  -3.135   6.001  0.00  0.00    +0.173 A 
ATOM     16  N   UNL     1      -1.670  -2.073   6.341  0.00  0.00    -0.111 NA
ATOM     17  N   UNL     1      -2.670  -2.459   7.055  0.00  0.00    -0.023 NA
ATOM     18  N   UNL     1      -2.637  -3.740   7.179  0.00  0.00    -0.044 NA
ATOM     19  N   UNL     1      -1.613  -4.194   6.539  0.00  0.00    -0.224 N 
BRANCH  19  20
ATOM     20  C   UNL     1      -1.212  -5.598   6.422  0.00  0.00    +0.111 C 
ATOM     21  C   UNL     1      -2.360  -6.426   5.808  0.00  0.00    +0.027 C 
ATOM     22  C   UNL     1      -2.296  -7.780   6.559  0.00  0.00    +0.002 C 
ATOM     23  C   UNL     1      -1.937  -7.353   8.004  0.00  0.00    +0.002 C 
ATOM     24  C   UNL     1      -0.943  -6.188   7.818  0.00  0.00    +0.027 C 
ENDBRANCH  19  20
ENDBRANCH   1  15
BRANCH   1  25
ATOM     25  N   UNL     1       1.364  -2.505   5.895  0.00  0.00    -0.282 NA
BRANCH  25  26
ATOM     26  C   UNL     1       2.620  -2.570   5.135  0.00  0.00    +0.128 C 
BRANCH  26  27
ATOM     27  C   UNL     1       2.673  -1.427   4.154  0.00  0.00    +0.004 A 
ATOM     28  C   UNL     1       3.030  -0.137   4.364  0.00  0.00    +0.012 A 
ATOM     29  C   UNL     1       3.004   0.747   3.302  0.00  0.00    +0.008 A 
ATOM     30  C   UNL     1       2.622   0.298   2.082  0.00  0.00    +0.045 A 
ATOM     31  S   UNL     1       2.289  -1.425   2.410  0.00  0.00    -0.100 S 
ENDBRANCH  26  27
ENDBRANCH  25  26
BRANCH  25  32
ATOM     32  C   UNL     1       1.528  -3.085   7.234  0.00  0.00    +0.117 C 
BRANCH  32  33
ATOM     33  C   UNL     1       0.521  -2.447   8.194  0.00  0.00    +0.132 C 
ATOM     34  C   UNL     1       0.816  -2.884   9.651  0.00  0.00    +0.035 C 
ATOM     35  C   UNL     1       0.188  -1.706  10.444  0.00  0.00    +0.031 C 
ATOM     36  C   UNL     1       0.456  -0.504   9.513  0.00  0.00    +0.160 C 
ATOM     37  O   UNL     1       0.668  -1.018   8.191  0.00  0.00    -0.375 OA
ENDBRANCH  32  33
ENDBRANCH  25  32
ENDBRANCH   1  25
TORSDOF 8
