REMARK  Name = ZINC38573551
REMARK  12 active torsions:
REMARK  status: ('A' for Active; 'I' for Inactive)
REMARK    1  A    between atoms: C_1  and  C_2
REMARK    2  A    between atoms: C_2  and  N_3
REMARK    3  A    between atoms: C_5  and  C_18
REMARK    4  A    between atoms: N_20  and  C_21
REMARK    5  A    between atoms: C_21  and  C_23
REMARK    6  A    between atoms: C_21  and  C_24
REMARK    7  A    between atoms: N_26  and  C_27
REMARK    8  A    between atoms: N_26  and  C_28
REMARK    9  A    between atoms: C_28  and  C_29
REMARK   10  A    between atoms: C_29  and  C_30
REMARK   11  A    between atoms: C_34  and  O_39
REMARK   12  A    between atoms: O_39  and  C_40
REMARK                            x       y       z     vdW  Elec       q    Type
REMARK                         _______ _______ _______ _____ _____    ______ ____
ROOT
ATOM      1  C   UNL     1      -3.469  -2.413   2.504  0.00  0.00    +0.226 C 
ATOM      2  O   UNL     1      -3.503  -1.567   3.372  0.00  0.00    -0.275 OA
ATOM      3  N   UNL     1      -4.121  -3.580   2.674  0.00  0.00    -0.304 N 
ATOM      4  H   UNL     1      -4.094  -4.257   1.980  0.00  0.00    +0.149 HD
ENDROOT
BRANCH   1   7
ATOM      5  N   UNL     1      -1.372  -0.511   0.012  0.00  0.00    -0.328 N 
ATOM      6  C   UNL     1      -2.052  -0.767   1.288  0.00  0.00    +0.126 C 
ATOM      7  C   UNL     1      -2.698  -2.159   1.234  0.00  0.00    +0.163 C 
ATOM      8  C   UNL     1      -3.639  -2.187   0.046  0.00  0.00    +0.178 C 
ATOM      9  O   UNL     1      -4.741  -2.690   0.128  0.00  0.00    -0.291 OA
ATOM     10  C   UNL     1      -3.170  -1.585  -1.207  0.00  0.00    +0.043 A 
ATOM     11  C   UNL     1      -2.037  -0.746  -1.185  0.00  0.00    +0.044 A 
ATOM     12  C   UNL     1      -1.590  -0.165  -2.361  0.00  0.00    +0.073 A 
ATOM     13  C   UNL     1      -2.257  -0.406  -3.553  0.00  0.00    +0.168 A 
ATOM     14  C   UNL     1      -3.384  -1.235  -3.577  0.00  0.00    +0.167 A 
ATOM     15  C   UNL     1      -3.836  -1.830  -2.413  0.00  0.00    +0.062 A 
ATOM     16  O   UNL     1      -3.845  -1.304  -4.861  0.00  0.00    -0.453 OA
ATOM     17  C   UNL     1      -3.241  -0.190  -5.545  0.00  0.00    +0.466 C 
ATOM     18  O   UNL     1      -2.019   0.038  -4.819  0.00  0.00    -0.453 OA
BRANCH   5  20
ATOM     19  C   UNL     1      -0.019   1.526   0.010  0.00  0.00    +0.024 C 
ATOM     20  C   UNL     1       0.002  -0.004   0.002  0.00  0.00    +0.102 C 
ENDBRANCH   5  20
ENDBRANCH   1   7
BRANCH   3  21
ATOM     21  C   UNL     1      -4.871  -3.827   3.908  0.00  0.00    +0.156 C 
ATOM     22  C   UNL     1      -6.274  -3.231   3.781  0.00  0.00    +0.038 C 
BRANCH  21  23
ATOM     23  C   UNL     1      -4.975  -5.312   4.144  0.00  0.00    +0.235 C 
ATOM     24  O   UNL     1      -4.473  -6.088   3.358  0.00  0.00    -0.274 OA
ATOM     25  N   UNL     1      -5.627  -5.778   5.228  0.00  0.00    -0.303 N 
ATOM     26  C   UNL     1      -6.234  -4.841   6.177  0.00  0.00    +0.132 C 
BRANCH  25  27
ATOM     27  C   UNL     1      -5.729  -7.221   5.457  0.00  0.00    +0.112 C 
BRANCH  27  28
ATOM     28  C   UNL     1      -4.535  -7.691   6.290  0.00  0.00    +0.056 C 
BRANCH  28  29
ATOM     29  C   UNL     1      -4.639  -9.176   6.526  0.00  0.00    -0.021 A 
ATOM     30  C   UNL     1      -4.179 -10.236   5.625  0.00  0.00    +0.003 A 
ATOM     31  C   UNL     1      -3.554 -10.243   4.376  0.00  0.00    +0.014 A 
ATOM     32  C   UNL     1      -3.244 -11.431   3.778  0.00  0.00    +0.046 A 
ATOM     33  C   UNL     1      -3.546 -12.637   4.404  0.00  0.00    +0.122 A 
ATOM     34  C   UNL     1      -4.165 -12.651   5.640  0.00  0.00    +0.071 A 
ATOM     35  C   UNL     1      -4.487 -11.451   6.264  0.00  0.00    +0.050 A 
ATOM     36  N   UNL     1      -5.090 -11.138   7.462  0.00  0.00    -0.360 N 
ATOM     37  C   UNL     1      -5.166  -9.778   7.603  0.00  0.00    +0.087 A 
ATOM     38  H   UNL     1      -5.409 -11.784   8.111  0.00  0.00    +0.165 HD
BRANCH  33  39
ATOM     39  O   UNL     1      -3.230 -13.811   3.795  0.00  0.00    -0.495 OA
ATOM     40  C   UNL     1      -2.592 -13.728   2.519  0.00  0.00    +0.277 C 
ENDBRANCH  33  39
ENDBRANCH  28  29
ENDBRANCH  27  28
ENDBRANCH  25  27
ENDBRANCH  21  23
ENDBRANCH   3  21
TORSDOF 8
