REMARK  Name = ZINC34977961
REMARK  10 active torsions:
REMARK  status: ('A' for Active; 'I' for Inactive)
REMARK    1  A    between atoms: C_1  and  C_2
REMARK    2  A    between atoms: C_2  and  C_3
REMARK    3  A    between atoms: C_3  and  C_4
REMARK    4  A    between atoms: C_4  and  C_5
REMARK    5  A    between atoms: C_12  and  C_14
REMARK    6  A    between atoms: C_15  and  C_17
REMARK    7  A    between atoms: C_17  and  C_19
REMARK    8  A    between atoms: C_17  and  N_26
REMARK    9  A    between atoms: C_19  and  C_20
REMARK   10  A    between atoms: N_29  and  C_30
REMARK                            x       y       z     vdW  Elec       q    Type
REMARK                         _______ _______ _______ _____ _____    ______ ____
ROOT
ATOM      1  C   UNL     1       2.804  -8.517  -1.713  0.00  0.00    +0.165 C 
ENDROOT
BRANCH   1  11
ATOM      2  C   UNL     1       5.175  -2.850  -1.717  0.00  0.00    +0.216 C 
ATOM      3  O   UNL     1       4.937  -2.358  -0.635  0.00  0.00    -0.276 OA
ATOM      4  N   UNL     1       4.956  -4.164  -1.922  0.00  0.00    -0.296 N 
ATOM      5  C   UNL     1       5.246  -4.776  -3.227  0.00  0.00    +0.127 C 
ATOM      6  C   UNL     1       3.977  -5.475  -3.732  0.00  0.00    +0.127 C 
ATOM      7  N   UNL     1       3.446  -6.322  -2.655  0.00  0.00    -0.297 N 
ATOM      8  C   UNL     1       3.157  -5.710  -1.350  0.00  0.00    +0.130 C 
ATOM      9  C   UNL     1       4.431  -5.013  -0.843  0.00  0.00    +0.090 C 
ATOM     10  C   UNL     1       5.476  -6.061  -0.458  0.00  0.00    +0.029 C 
ATOM     11  C   UNL     1       3.228  -7.636  -2.860  0.00  0.00    +0.236 C 
ATOM     12  O   UNL     1       3.373  -8.109  -3.967  0.00  0.00    -0.274 OA
BRANCH   2  13
ATOM     13  C   UNL     1       5.714  -1.993  -2.833  0.00  0.00    +0.096 C 
BRANCH  13  14
ATOM     14  C   UNL     1       5.868  -0.553  -2.341  0.00  0.00    +0.009 C 
BRANCH  14  16
ATOM     15  C   UNL     1       6.570   1.758  -2.982  0.00  0.00    +0.004 C 
ATOM     16  C   UNL     1       6.416   0.318  -3.474  0.00  0.00    -0.003 C 
ENDBRANCH  14  16
ENDBRANCH  13  14
ENDBRANCH   2  13
ENDBRANCH   1  11
BRANCH   1  17
ATOM     17  N   UNL     1       3.032  -9.921  -2.066  0.00  0.00    -0.288 N 
ATOM     18  C   UNL     1       3.218 -10.838  -1.096  0.00  0.00    +0.305 C 
ATOM     19  O   UNL     1       3.197 -10.500   0.072  0.00  0.00    -0.252 OA
ATOM     20  N   UNL     1       3.427 -12.129  -1.420  0.00  0.00    -0.268 N 
ATOM     21  H   UNL     1       3.049 -10.190  -2.998  0.00  0.00    +0.151 HD
ATOM     22  H   UNL     1       3.361 -12.413  -2.345  0.00  0.00    +0.156 HD
BRANCH  20  23
ATOM     23  C   UNL     1       3.741 -13.060  -0.422  0.00  0.00    +0.053 A 
ATOM     24  C   UNL     1       4.233 -12.627   0.802  0.00  0.00    +0.026 A 
ATOM     25  C   UNL     1       4.542 -13.547   1.785  0.00  0.00    +0.022 A 
ATOM     26  C   UNL     1       4.362 -14.899   1.551  0.00  0.00    +0.042 A 
ATOM     27  C   UNL     1       3.873 -15.334   0.332  0.00  0.00    +0.041 A 
ATOM     28  C   UNL     1       3.556 -14.417  -0.653  0.00  0.00    +0.064 A 
ATOM     29 CL   UNL     1       2.934 -14.962  -2.180  0.00  0.00    -0.082 Cl
ATOM     30 CL   UNL     1       4.751 -16.053   2.789  0.00  0.00    -0.083 Cl
ENDBRANCH  20  23
ENDBRANCH   1  17
BRANCH   1  31
ATOM     31  C   UNL     1       1.318  -8.298  -1.424  0.00  0.00    +0.067 C 
BRANCH  31  32
ATOM     32  C   UNL     1       0.933  -9.049  -0.175  0.00  0.00    -0.045 A 
ATOM     33  C   UNL     1       0.492 -10.356  -0.263  0.00  0.00    +0.004 A 
ATOM     34  C   UNL     1       0.139 -11.045   0.882  0.00  0.00    +0.000 A 
ATOM     35  C   UNL     1       0.228 -10.427   2.116  0.00  0.00    +0.000 A 
ATOM     36  C   UNL     1       0.670  -9.120   2.203  0.00  0.00    +0.000 A 
ATOM     37  C   UNL     1       1.027  -8.432   1.058  0.00  0.00    +0.004 A 
ENDBRANCH  31  32
ENDBRANCH   1  31
TORSDOF 8
