REMARK  Name = ZINC09130634
REMARK  7 active torsions:
REMARK  status: ('A' for Active; 'I' for Inactive)
REMARK    1  A    between atoms: C_1  and  C_2
REMARK    2  A    between atoms: C_3  and  C_24
REMARK    3  A    between atoms: C_4  and  C_8
REMARK    4  A    between atoms: C_11  and  O_15
REMARK    5  A    between atoms: C_13  and  O_14
REMARK    6  A    between atoms: O_15  and  C_16
REMARK    7  A    between atoms: C_16  and  C_17
REMARK                            x       y       z     vdW  Elec       q    Type
REMARK                         _______ _______ _______ _____ _____    ______ ____
ROOT
ATOM      1  C   UNL     1       0.248  -3.213  -1.685  0.00  0.00    +0.044 A 
ATOM      2  C   UNL     1       0.353  -2.964  -3.052  0.00  0.00    +0.017 A 
ATOM      3  C   UNL     1       0.470  -4.016  -3.937  0.00  0.00    +0.046 A 
ATOM      4  C   UNL     1       0.485  -5.324  -3.469  0.00  0.00    +0.124 A 
ATOM      5  C   UNL     1       0.382  -5.580  -2.110  0.00  0.00    +0.091 A 
ATOM      6  C   UNL     1       0.270  -4.530  -1.214  0.00  0.00    +0.130 A 
ENDROOT
BRANCH   1  10
ATOM      7  C   UNL     1      -1.286   1.114   0.515  0.00  0.00    +0.065 C 
ATOM      8  C   UNL     1      -0.564  -0.177   0.227  0.00  0.00    +0.041 A 
ATOM      9  C   UNL     1      -0.761  -0.982  -0.855  0.00  0.00    +0.030 A 
ATOM     10  C   UNL     1       0.122  -2.085  -0.732  0.00  0.00    +0.104 A 
ATOM     11  N   UNL     1       0.808  -1.928   0.380  0.00  0.00    -0.173 NA
ATOM     12  N   UNL     1       0.396  -0.737   0.990  0.00  0.00    -0.281 N 
ATOM     13  H   UNL     1       0.742  -0.378   1.822  0.00  0.00    +0.189 HD
BRANCH   9  14
ATOM     14  C   UNL     1      -1.724  -0.749  -1.959  0.00  0.00    -0.014 A 
ATOM     15  C   UNL     1      -2.815  -1.600  -2.128  0.00  0.00    +0.010 A 
ATOM     16  C   UNL     1      -3.708  -1.378  -3.156  0.00  0.00    +0.016 A 
ATOM     17  C   UNL     1      -3.522  -0.312  -4.019  0.00  0.00    +0.018 A 
ATOM     18  C   UNL     1      -2.441   0.536  -3.856  0.00  0.00    +0.016 A 
ATOM     19  C   UNL     1      -1.545   0.326  -2.828  0.00  0.00    +0.010 A 
ATOM     20 BR   UNL     1      -4.750  -0.014  -5.426  0.00  0.00    -0.050 Br
ENDBRANCH   9  14
ENDBRANCH   1  10
BRANCH   6  21
ATOM     21  O   UNL     1       0.174  -4.779   0.118  0.00  0.00    -0.506 OA
ATOM     22  H   UNL     1      -0.733  -4.890   0.433  0.00  0.00    +0.292 HD
ENDBRANCH   6  21
BRANCH   4  23
ATOM     23  O   UNL     1       0.601  -6.355  -4.346  0.00  0.00    -0.487 OA
BRANCH  23  24
ATOM     24  C   UNL     1       0.703  -6.021  -5.731  0.00  0.00    +0.264 C 
BRANCH  24  25
ATOM     25  C   UNL     1       0.823  -7.284  -6.545  0.00  0.00    -0.010 A 
ATOM     26  C   UNL     1       2.070  -7.816  -6.814  0.00  0.00    +0.010 A 
ATOM     27  C   UNL     1       2.182  -8.974  -7.560  0.00  0.00    +0.039 A 
ATOM     28  C   UNL     1       1.044  -9.601  -8.038  0.00  0.00    +0.123 A 
ATOM     29  C   UNL     1      -0.205  -9.067  -7.768  0.00  0.00    +0.039 A 
ATOM     30  C   UNL     1      -0.314  -7.912  -7.018  0.00  0.00    +0.010 A 
ATOM     31  F   UNL     1       1.151 -10.733  -8.768  0.00  0.00    -0.205 F 
ENDBRANCH  24  25
ENDBRANCH  23  24
ENDBRANCH   4  23
TORSDOF 6
