REMARK  Name = ZINC14474558
REMARK  7 active torsions:
REMARK  status: ('A' for Active; 'I' for Inactive)
REMARK    1  A    between atoms: C_1  and  C_2
REMARK    2  A    between atoms: C_2  and  C_3
REMARK    3  A    between atoms: C_2  and  C_4
REMARK    4  A    between atoms: C_2  and  C_5
REMARK    5  A    between atoms: C_8  and  N_11
REMARK    6  A    between atoms: C_12  and  C_14
REMARK    7  A    between atoms: C_14  and  N_15
REMARK                            x       y       z     vdW  Elec       q    Type
REMARK                         _______ _______ _______ _____ _____    ______ ____
ROOT
ATOM      1  N   UNL     1      -1.464  -6.845  -2.056  0.00  0.00    -0.215 N 
ATOM      2  C   UNL     1      -2.801  -7.037  -2.038  0.00  0.00    +0.251 C 
ATOM      3  O   UNL     1      -3.560  -6.842  -1.113  0.00  0.00    -0.272 OA
ATOM      4  C   UNL     1      -3.148  -7.543  -3.414  0.00  0.00    +0.138 C 
ATOM      5  C   UNL     1      -3.806  -8.927  -3.343  0.00  0.00    +0.045 C 
ATOM      6  C   UNL     1      -5.311  -8.575  -3.388  0.00  0.00    +0.038 C 
ATOM      7  C   UNL     1      -5.386  -7.239  -4.096  0.00  0.00    -0.042 A 
ATOM      8  C   UNL     1      -4.135  -6.643  -4.108  0.00  0.00    -0.012 A 
ATOM      9  C   UNL     1      -3.970  -5.405  -4.706  0.00  0.00    +0.006 A 
ATOM     10  C   UNL     1      -5.045  -4.764  -5.290  0.00  0.00    +0.000 A 
ATOM     11  C   UNL     1      -6.293  -5.360  -5.279  0.00  0.00    +0.000 A 
ATOM     12  C   UNL     1      -6.461  -6.594  -4.682  0.00  0.00    +0.004 A 
ATOM     13  N   UNL     1      -1.869  -7.595  -4.121  0.00  0.00    -0.281 N 
ATOM     14  C   UNL     1      -0.937  -7.168  -3.245  0.00  0.00    +0.310 C 
ATOM     15  O   UNL     1       0.247  -7.084  -3.504  0.00  0.00    -0.252 OA
ATOM     16  H   UNL     1      -1.720  -7.881  -5.036  0.00  0.00    +0.152 HD
ENDROOT
BRANCH   1  17
ATOM     17  C   UNL     1      -0.687  -6.352  -0.917  0.00  0.00    +0.214 C 
BRANCH  17  19
ATOM     18  N   UNL     1       0.057  -4.170  -0.020  0.00  0.00    -0.284 N 
ATOM     19  C   UNL     1      -0.613  -4.848  -0.973  0.00  0.00    +0.235 C 
ATOM     20  O   UNL     1      -1.156  -4.247  -1.876  0.00  0.00    -0.274 OA
ATOM     21  H   UNL     1       0.555  -4.652   0.659  0.00  0.00    +0.155 HD
BRANCH  18  25
ATOM     22  C   UNL     1      -0.011  -0.004   0.011  0.00  0.00    -0.042 A 
ATOM     23  C   UNL     1       1.121  -0.679   0.431  0.00  0.00    +0.006 A 
ATOM     24  C   UNL     1       1.145  -2.060   0.427  0.00  0.00    +0.023 A 
ATOM     25  C   UNL     1       0.034  -2.771  -0.009  0.00  0.00    +0.033 A 
ATOM     26  C   UNL     1      -1.099  -2.090  -0.435  0.00  0.00    +0.023 A 
ATOM     27  C   UNL     1      -1.118  -0.709  -0.424  0.00  0.00    +0.006 A 
BRANCH  22  29
ATOM     28  C   UNL     1      -1.165   1.988   0.932  0.00  0.00    +0.015 C 
ATOM     29  C   UNL     1      -0.035   1.502   0.021  0.00  0.00    -0.013 C 
ATOM     30  C   UNL     1       1.303   2.030   0.543  0.00  0.00    +0.015 C 
ATOM     31  C   UNL     1      -0.268   2.019  -1.400  0.00  0.00    +0.015 C 
ENDBRANCH  22  29
ENDBRANCH  18  25
ENDBRANCH  17  19
ENDBRANCH   1  17
TORSDOF 4
