REMARK  Name = ZINC06720055
REMARK  6 active torsions:
REMARK  status: ('A' for Active; 'I' for Inactive)
REMARK    1  A    between atoms: C_4  and  C_7
REMARK    2  A    between atoms: C_14  and  N_31
REMARK    3  A    between atoms: C_15  and  C_29
REMARK    4  A    between atoms: C_16  and  C_18
REMARK    5  A    between atoms: C_21  and  O_24
REMARK    6  A    between atoms: O_24  and  C_25
REMARK                            x       y       z     vdW  Elec       q    Type
REMARK                         _______ _______ _______ _____ _____    ______ ____
ROOT
ATOM      1  C   UNL     1       3.696  -0.686  -0.038  0.00  0.00    +0.074 A 
ATOM      2  C   UNL     1       4.018  -1.743  -0.822  0.00  0.00    +0.054 A 
ATOM      3  C   UNL     1       5.341  -2.122  -0.523  0.00  0.00    +0.245 A 
ATOM      4  N   UNL     1       5.797  -1.326   0.401  0.00  0.00    -0.135 NA
ATOM      5  N   UNL     1       4.791  -0.404   0.730  0.00  0.00    -0.273 N 
ATOM      6  H   UNL     1       4.860   0.306   1.387  0.00  0.00    +0.189 HD
ATOM      7  O   UNL     1       5.951  -3.164  -1.151  0.00  0.00    -0.421 OA
ATOM      8  C   UNL     1       5.173  -3.997  -1.871  0.00  0.00    +0.201 C 
ATOM      9  C   UNL     1       3.898  -3.736  -2.228  0.00  0.00    +0.098 C 
ATOM     10  C   UNL     1       3.188  -2.458  -1.857  0.00  0.00    +0.102 C 
ENDROOT
BRANCH   1  14
ATOM     11  C   UNL     1      -0.017   1.379   0.010  0.00  0.00    +0.000 A 
ATOM     12  C   UNL     1       1.168   2.093   0.002  0.00  0.00    +0.001 A 
ATOM     13  C   UNL     1       2.377   1.428  -0.013  0.00  0.00    +0.010 A 
ATOM     14  C   UNL     1       2.403   0.033  -0.021  0.00  0.00    +0.000 A 
ATOM     15  C   UNL     1       1.205  -0.680  -0.013  0.00  0.00    +0.010 A 
ATOM     16  C   UNL     1       0.002  -0.004   0.002  0.00  0.00    +0.001 A 
ENDBRANCH   1  14
BRANCH  10  17
ATOM     17  C   UNL     1       3.036  -1.588  -3.078  0.00  0.00    -0.034 A 
ATOM     18  C   UNL     1       4.156  -1.183  -3.781  0.00  0.00    +0.008 A 
ATOM     19  C   UNL     1       4.019  -0.385  -4.900  0.00  0.00    +0.046 A 
ATOM     20  C   UNL     1       2.757   0.010  -5.319  0.00  0.00    +0.130 A 
ATOM     21  C   UNL     1       1.635  -0.397  -4.612  0.00  0.00    +0.046 A 
ATOM     22  C   UNL     1       1.776  -1.200  -3.497  0.00  0.00    +0.008 A 
BRANCH  20  23
ATOM     23  O   UNL     1       2.620   0.796  -6.419  0.00  0.00    -0.406 OA
BRANCH  23  24
ATOM     24  C   UNL     1       1.291   1.164  -6.792  0.00  0.00    +0.575 C 
ATOM     25  F   UNL     1       0.693   1.875  -5.746  0.00  0.00    -0.133 F 
ATOM     26  F   UNL     1       1.333   1.967  -7.937  0.00  0.00    -0.133 F 
ATOM     27  F   UNL     1       0.545   0.011  -7.058  0.00  0.00    -0.133 F 
ENDBRANCH  23  24
ENDBRANCH  20  23
ENDBRANCH  10  17
BRANCH   8  28
ATOM     28  N   UNL     1       5.716  -5.193  -2.271  0.00  0.00    -0.328 N 
ATOM     29  H   UNL     1       6.630  -5.414  -2.033  0.00  0.00    +0.145 HD
ATOM     30  H   UNL     1       5.186  -5.816  -2.790  0.00  0.00    +0.145 HD
ENDBRANCH   8  28
BRANCH   9  31
ATOM     31  C   UNL     1       3.188  -4.716  -2.993  0.00  0.00    +0.101 C 
ATOM     32  N   UNL     1       2.624  -5.493  -3.600  0.00  0.00    -0.191 NA
ENDBRANCH   9  31
TORSDOF 6
