REMARK  Name = ZINC12056830
REMARK  9 active torsions:
REMARK  status: ('A' for Active; 'I' for Inactive)
REMARK    1  A    between atoms: C_5  and  C_7
REMARK    2  A    between atoms: C_7  and  N_62
REMARK    3  A    between atoms: C_8  and  C_9
REMARK    4  A    between atoms: C_8  and  N_62
REMARK    5  A    between atoms: C_9  and  C_10
REMARK    6  A    between atoms: N_16  and  C_17
REMARK    7  A    between atoms: C_17  and  C_18
REMARK    8  A    between atoms: C_18  and  C_20
REMARK    9  A    between atoms: C_18  and  N_65
REMARK                            x       y       z     vdW  Elec       q    Type
REMARK                         _______ _______ _______ _____ _____    ______ ____
ROOT
ATOM      1  C   UNL     1      -0.792   8.024   1.956  0.00  0.00    +0.075 C 
ATOM      2  C   UNL     1      -0.287   9.416   1.517  0.00  0.00    +0.031 C 
ATOM      3  C   UNL     1       1.244   9.200   1.483  0.00  0.00    +0.098 C 
ATOM      4  C   UNL     1       1.405   7.711   1.271  0.00  0.00    +0.216 C 
ATOM      5  O   UNL     1       2.429   7.167   0.915  0.00  0.00    -0.276 OA
ATOM      6  N   UNL     1       0.248   7.079   1.532  0.00  0.00    -0.300 N 
ENDROOT
BRANCH   1   7
ATOM      7  C   UNL     1      -0.962   7.978   3.476  0.00  0.00    +0.003 C 
BRANCH   7   8
ATOM      8  C   UNL     1      -1.485   6.600   3.888  0.00  0.00    -0.080 C 
BRANCH   8   9
ATOM      9  N   UNL     1      -1.783   6.609   5.333  0.00  0.00    +0.382 N 
ATOM     10  H   UNL     1      -0.925   6.827   5.854  0.00  0.00    -0.085 HD
ATOM     11  H   UNL     1      -2.493   7.325   5.528  0.00  0.00    -0.085 HD
BRANCH   9  12
ATOM     12  C   UNL     1      -2.290   5.291   5.760  0.00  0.00    -0.044 C 
BRANCH  12  17
ATOM     13  C   UNL     1      -4.164   5.431   9.034  0.00  0.00    +0.000 A 
ATOM     14  C   UNL     1      -3.127   5.400   9.949  0.00  0.00    +0.003 A 
ATOM     15  C   UNL     1      -1.819   5.334   9.509  0.00  0.00    +0.038 A 
ATOM     16  C   UNL     1      -1.546   5.295   8.152  0.00  0.00    +0.125 A 
ATOM     17  C   UNL     1      -2.585   5.330   7.237  0.00  0.00    -0.029 A 
ATOM     18  C   UNL     1      -3.893   5.395   7.679  0.00  0.00    +0.004 A 
ATOM     19  F   UNL     1      -0.268   5.225   7.720  0.00  0.00    -0.205 F 
ENDBRANCH  12  17
ENDBRANCH   9  12
ENDBRANCH   8   9
ENDBRANCH   7   8
ENDBRANCH   1   7
BRANCH   6  20
ATOM     20  C   UNL     1       0.052   5.632   1.415  0.00  0.00    +0.097 C 
BRANCH  20  21
ATOM     21  C   UNL     1      -0.267   5.277  -0.038  0.00  0.00    -0.019 C 
BRANCH  21  27
ATOM     22  C   UNL     1       0.841   3.140   0.223  0.00  0.00    -0.078 C 
ATOM     23  C   UNL     1       0.619   1.626   0.215  0.00  0.00    -0.019 C 
ATOM     24  C   UNL     1       0.194   1.184  -1.188  0.00  0.00    -0.004 C 
ATOM     25  C   UNL     1      -1.074   1.942  -1.590  0.00  0.00    -0.019 C 
ATOM     26  C   UNL     1      -0.804   3.447  -1.530  0.00  0.00    -0.078 C 
ATOM     27  N   UNL     1      -0.423   3.811  -0.149  0.00  0.00    +0.385 N 
ATOM     28  H   UNL     1      -1.164   3.505   0.493  0.00  0.00    -0.081 HD
ENDBRANCH  21  27
BRANCH  21  29
ATOM     29  C   UNL     1      -1.559   5.938  -0.445  0.00  0.00    -0.041 A 
ATOM     30  C   UNL     1      -1.545   7.109  -1.187  0.00  0.00    +0.005 A 
ATOM     31  C   UNL     1      -2.757   7.680  -1.543  0.00  0.00    +0.020 A 
ATOM     32  C   UNL     1      -3.931   7.072  -1.141  0.00  0.00    +0.111 A 
ATOM     33  N   UNL     1      -3.907   5.957  -0.436  0.00  0.00    -0.263 NA
ATOM     34  C   UNL     1      -2.772   5.385  -0.084  0.00  0.00    +0.112 A 
ENDBRANCH  21  29
ENDBRANCH  20  21
ENDBRANCH   6  20
TORSDOF 9
