REMARK  Name = ZINC04782821
REMARK  3 active torsions:
REMARK  status: ('A' for Active; 'I' for Inactive)
REMARK    1  A    between atoms: C_1  and  C_2
REMARK    2  A    between atoms: C_7  and  C_8
REMARK    3  A    between atoms: C_13  and  C_18
REMARK                            x       y       z     vdW  Elec       q    Type
REMARK                         _______ _______ _______ _____ _____    ______ ____
ROOT
ATOM      1  C   UNL     1       0.243   0.049   2.492  0.00  0.00    +0.176 C 
ATOM      2  C   UNL     1      -0.836  -0.424   3.441  0.00  0.00    +0.041 C 
ATOM      3  C   UNL     1      -0.565  -1.222   4.496  0.00  0.00    +0.020 C 
ATOM      4  C   UNL     1      -1.666  -1.693   5.416  0.00  0.00    +0.060 C 
ATOM      5  C   UNL     1      -2.766  -0.631   5.487  0.00  0.00    +0.032 C 
ATOM      6  C   UNL     1      -3.296  -0.390   4.070  0.00  0.00    +0.088 C 
ATOM      7  C   UNL     1      -2.150   0.006   3.181  0.00  0.00    +0.164 C 
ATOM      8  O   UNL     1      -2.363   0.713   2.216  0.00  0.00    -0.292 OA
ATOM      9  N   UNL     1       0.714  -1.635   4.782  0.00  0.00    -0.287 N 
ATOM     10  C   UNL     1       1.764  -0.991   4.148  0.00  0.00    +0.218 A 
ATOM     11  N   UNL     1       1.557  -0.193   3.074  0.00  0.00    -0.221 N 
ATOM     12  N   UNL     1       2.809   0.292   2.698  0.00  0.00    -0.156 NA
ATOM     13  C   UNL     1       3.679  -0.223   3.531  0.00  0.00    +0.247 A 
ATOM     14  N   UNL     1       3.043  -0.998   4.405  0.00  0.00    -0.201 NA
ATOM     15  H   UNL     1       0.877  -2.357   5.409  0.00  0.00    +0.155 HD
ENDROOT
BRANCH   1  22
ATOM     16  C   UNL     1      -0.036   1.502   0.010  0.00  0.00    +0.044 C 
ATOM     17  C   UNL     1      -0.006  -0.004   0.002  0.00  0.00    -0.045 A 
ATOM     18  C   UNL     1      -0.107  -0.691  -1.194  0.00  0.00    +0.004 A 
ATOM     19  C   UNL     1      -0.080  -2.073  -1.201  0.00  0.00    +0.000 A 
ATOM     20  C   UNL     1       0.048  -2.768  -0.013  0.00  0.00    +0.000 A 
ATOM     21  C   UNL     1       0.150  -2.082   1.182  0.00  0.00    +0.006 A 
ATOM     22  C   UNL     1       0.127  -0.699   1.189  0.00  0.00    -0.016 A 
ENDBRANCH   1  22
BRANCH   5  23
ATOM     23  C   UNL     1      -3.884  -1.117   6.372  0.00  0.00    -0.043 A 
ATOM     24  C   UNL     1      -4.561  -2.280   6.054  0.00  0.00    +0.007 A 
ATOM     25  C   UNL     1      -5.587  -2.727   6.866  0.00  0.00    +0.038 A 
ATOM     26  C   UNL     1      -5.936  -2.010   7.997  0.00  0.00    +0.123 A 
ATOM     27  C   UNL     1      -5.258  -0.845   8.314  0.00  0.00    +0.038 A 
ATOM     28  C   UNL     1      -4.229  -0.403   7.504  0.00  0.00    +0.007 A 
ATOM     29  F   UNL     1      -6.939  -2.446   8.791  0.00  0.00    -0.205 F 
ENDBRANCH   5  23
TORSDOF 2
