REMARK  Name = ZINC38604655
REMARK  8 active torsions:
REMARK  status: ('A' for Active; 'I' for Inactive)
REMARK    1  A    between atoms: C_1  and  C_2
REMARK    2  A    between atoms: C_2  and  O_3
REMARK    3  A    between atoms: O_3  and  C_4
REMARK    4  A    between atoms: C_4  and  C_6
REMARK    5  A    between atoms: C_8  and  N_17
REMARK    6  A    between atoms: C_18  and  C_20
REMARK    7  A    between atoms: C_20  and  N_21
REMARK    8  A    between atoms: N_24  and  C_27
REMARK                            x       y       z     vdW  Elec       q    Type
REMARK                         _______ _______ _______ _____ _____    ______ ____
ROOT
ATOM      1  N   UNL     1      -0.232  -0.975  -4.108  0.00  0.00    -0.288 N 
ATOM      2  C   UNL     1      -1.049  -1.197  -5.156  0.00  0.00    +0.200 C 
ATOM      3  O   UNL     1      -1.433  -2.322  -5.398  0.00  0.00    -0.278 OA
ATOM      4  H   UNL     1       0.015  -0.067  -3.870  0.00  0.00    +0.155 HD
ENDROOT
BRANCH   1   6
ATOM      5  C   UNL     1       0.070  -3.497  -3.680  0.00  0.00    +0.234 C 
ATOM      6  C   UNL     1       0.246  -2.024  -3.381  0.00  0.00    +0.053 C 
ATOM      7  C   UNL     1       0.992  -1.964  -2.218  0.00  0.00    +0.020 A 
ATOM      8  C   UNL     1       1.475  -0.877  -1.448  0.00  0.00    +0.050 A 
ATOM      9  C   UNL     1       2.199  -1.117  -0.326  0.00  0.00    +0.124 A 
ATOM     10  C   UNL     1       2.485  -2.420   0.097  0.00  0.00    +0.040 A 
ATOM     11  C   UNL     1       2.055  -3.506  -0.591  0.00  0.00    +0.029 A 
ATOM     12  C   UNL     1       1.293  -3.336  -1.775  0.00  0.00    +0.045 A 
ATOM     13  N   UNL     1       0.767  -4.214  -2.608  0.00  0.00    -0.367 N 
ATOM     14  F   UNL     1       2.655  -0.073   0.401  0.00  0.00    -0.205 F 
ATOM     15  H   UNL     1       0.830  -5.178  -2.524  0.00  0.00    +0.161 HD
BRANCH   5  16
ATOM     16  C   UNL     1       0.686  -3.832  -5.014  0.00  0.00    +0.336 C 
ATOM     17  O   UNL     1       1.887  -3.913  -5.122  0.00  0.00    -0.248 OA
BRANCH  16  18
ATOM     18  O   UNL     1      -0.099  -4.041  -6.083  0.00  0.00    -0.463 OA
BRANCH  18  20
ATOM     19  C   UNL     1      -0.494  -4.582  -8.405  0.00  0.00    +0.048 C 
ATOM     20  C   UNL     1       0.542  -4.474  -7.284  0.00  0.00    +0.229 C 
ENDBRANCH  18  20
ENDBRANCH  16  18
ENDBRANCH   5  16
ENDBRANCH   1   6
BRANCH   2  21
ATOM     21  C   UNL     1      -1.486  -0.049  -6.029  0.00  0.00    +0.019 C 
BRANCH  21  22
ATOM     22  N   UNL     1      -2.526  -0.508  -6.958  0.00  0.00    +0.387 N 
ATOM     23  C   UNL     1      -1.936  -1.434  -7.932  0.00  0.00    -0.059 C 
ATOM     24  C   UNL     1      -3.040  -2.002  -8.830  0.00  0.00    +0.086 C 
ATOM     25  N   UNL     1      -3.776  -0.879  -9.430  0.00  0.00    -0.331 N 
ATOM     26  C   UNL     1      -4.265   0.185  -8.539  0.00  0.00    +0.086 C 
ATOM     27  C   UNL     1      -3.103   0.649  -7.655  0.00  0.00    -0.059 C 
ATOM     28  H   UNL     1      -3.251  -0.983  -6.442  0.00  0.00    -0.081 HD
BRANCH  25  29
ATOM     29  C   UNL     1      -4.005  -0.824 -10.809  0.00  0.00    +0.065 A 
ATOM     30  C   UNL     1      -5.154  -1.389 -11.347  0.00  0.00    +0.026 A 
ATOM     31  C   UNL     1      -5.378  -1.332 -12.709  0.00  0.00    +0.002 A 
ATOM     32  C   UNL     1      -4.460  -0.714 -13.537  0.00  0.00    +0.003 A 
ATOM     33  C   UNL     1      -3.314  -0.150 -13.007  0.00  0.00    +0.040 A 
ATOM     34  C   UNL     1      -3.086  -0.197 -11.643  0.00  0.00    +0.144 A 
ATOM     35  F   UNL     1      -1.970   0.359 -11.124  0.00  0.00    -0.204 F 
ENDBRANCH  25  29
ENDBRANCH  21  22
ENDBRANCH   2  21
TORSDOF 7
