REMARK  Name = ZINC40315529
REMARK  15 active torsions:
REMARK  status: ('A' for Active; 'I' for Inactive)
REMARK    1  A    between atoms: C_1  and  C_2
REMARK    2  A    between atoms: C_5  and  O_9
REMARK    3  A    between atoms: C_6  and  C_8
REMARK    4  A    between atoms: O_9  and  C_10
REMARK    5  A    between atoms: C_10  and  C_11
REMARK    6  A    between atoms: C_11  and  C_13
REMARK    7  A    between atoms: C_11  and  O_34
REMARK    8  A    between atoms: C_13  and  N_14
REMARK    9  A    between atoms: N_14  and  C_15
REMARK   10  A    between atoms: N_14  and  C_26
REMARK   11  A    between atoms: C_15  and  C_16
REMARK   12  A    between atoms: C_19  and  C_22
REMARK   13  A    between atoms: C_22  and  C_23
REMARK   14  A    between atoms: C_22  and  C_24
REMARK   15  A    between atoms: C_22  and  C_25
REMARK                            x       y       z     vdW  Elec       q    Type
REMARK                         _______ _______ _______ _____ _____    ______ ____
ROOT
ATOM      1  N   UNL     1       0.331  -8.468  -2.340  0.00  0.00    +0.387 N 
ATOM      2  H   UNL     1       1.112  -9.079  -2.158  0.00  0.00    -0.081 HD
ENDROOT
BRANCH   1   3
ATOM      3  C   UNL     1      -0.762  -8.780  -1.409  0.00  0.00    -0.045 C 
ATOM      4  C   UNL     1      -0.872 -10.303  -1.229  0.00  0.00    +0.009 C 
ATOM      5  C   UNL     1      -2.200 -10.656  -0.517  0.00  0.00    +0.164 C 
ATOM      6  S   UNL     1      -3.305  -9.272  -1.014  0.00  0.00    -0.033 S 
ATOM      7  O   UNL     1      -3.686  -8.545   0.146  0.00  0.00    -0.174 OA
ATOM      8  O   UNL     1      -4.308  -9.771  -1.888  0.00  0.00    -0.174 OA
ATOM      9  C   UNL     1      -2.110  -8.263  -1.988  0.00  0.00    +0.151 C 
ENDBRANCH   1   3
BRANCH   1  10
ATOM     10  C   UNL     1       0.748  -7.072  -2.155  0.00  0.00    -0.043 C 
BRANCH  10  11
ATOM     11  C   UNL     1       1.372  -6.905  -0.768  0.00  0.00    +0.135 C 
BRANCH  11  12
ATOM     12  O   UNL     1       2.511  -7.759  -0.653  0.00  0.00    -0.390 OA
ATOM     13  H   UNL     1       3.205  -7.579  -1.302  0.00  0.00    +0.210 HD
ENDBRANCH  11  12
BRANCH  11  14
ATOM     14  C   UNL     1       1.804  -5.450  -0.575  0.00  0.00    +0.258 C 
BRANCH  14  15
ATOM     15  O   UNL     1       2.279  -5.268   0.760  0.00  0.00    -0.489 OA
BRANCH  15  20
ATOM     16  C   UNL     1       4.040  -0.105   2.165  0.00  0.00    +0.044 C 
ATOM     17  C   UNL     1       3.569  -1.487   1.789  0.00  0.00    -0.050 A 
ATOM     18  C   UNL     1       3.097  -1.731   0.512  0.00  0.00    +0.007 A 
ATOM     19  C   UNL     1       2.665  -2.997   0.166  0.00  0.00    +0.046 A 
ATOM     20  C   UNL     1       2.704  -4.022   1.099  0.00  0.00    +0.124 A 
ATOM     21  C   UNL     1       3.179  -3.774   2.379  0.00  0.00    -0.009 A 
ATOM     22  C   UNL     1       3.615  -2.508   2.719  0.00  0.00    +0.010 A 
ATOM     23  C   UNL     1       3.223  -4.886   3.395  0.00  0.00    +0.047 C 
ENDBRANCH  15  20
ENDBRANCH  14  15
ENDBRANCH  11  14
ENDBRANCH  10  11
ENDBRANCH   1  10
BRANCH   1  24
ATOM     24  C   UNL     1      -0.132  -8.662  -3.721  0.00  0.00    -0.042 C 
BRANCH  24  25
ATOM     25  C   UNL     1      -0.406 -10.125  -3.957  0.00  0.00    -0.064 A 
ATOM     26  C   UNL     1       0.641 -11.025  -4.009  0.00  0.00    +0.002 A 
ATOM     27  C   UNL     1       0.390 -12.367  -4.226  0.00  0.00    +0.004 A 
ATOM     28  C   UNL     1      -0.910 -12.809  -4.391  0.00  0.00    -0.042 A 
ATOM     29  C   UNL     1      -1.958 -11.909  -4.338  0.00  0.00    +0.004 A 
ATOM     30  C   UNL     1      -1.706 -10.568  -4.117  0.00  0.00    +0.002 A 
BRANCH  28  31
ATOM     31  C   UNL     1      -1.184 -14.271  -4.628  0.00  0.00    -0.013 C 
ATOM     32  C   UNL     1      -0.664 -15.087  -3.443  0.00  0.00    +0.015 C 
ATOM     33  C   UNL     1      -2.691 -14.490  -4.776  0.00  0.00    +0.015 C 
ATOM     34  C   UNL     1      -0.475 -14.722  -5.907  0.00  0.00    +0.015 C 
ENDBRANCH  28  31
ENDBRANCH  24  25
ENDBRANCH   1  24
TORSDOF 10
