REMARK  Name = ZINC65873709
REMARK  3 active torsions:
REMARK  status: ('A' for Active; 'I' for Inactive)
REMARK    1  A    between atoms: C_7  and  C_13
REMARK    2  A    between atoms: N_15  and  C_16
REMARK    3  A    between atoms: C_16  and  C_19
REMARK                            x       y       z     vdW  Elec       q    Type
REMARK                         _______ _______ _______ _____ _____    ______ ____
ROOT
ATOM      1  C   UNL     1       0.002  -2.927  -0.081  0.00  0.00    +0.265 C 
ATOM      2  O   UNL     1      -1.121  -2.464  -0.118  0.00  0.00    -0.268 OA
ATOM      3  N   UNL     1       0.180  -4.262  -0.030  0.00  0.00    -0.301 N 
ATOM      4  H   UNL     1       1.074  -4.635  -0.077  0.00  0.00    +0.150 HD
ENDROOT
BRANCH   1  11
ATOM      5  C   UNL     1      -0.356   1.408  -0.240  0.00  0.00    +0.001 A 
ATOM      6  C   UNL     1       0.788   2.196  -0.245  0.00  0.00    +0.001 A 
ATOM      7  C   UNL     1       2.040   1.621  -0.202  0.00  0.00    +0.014 A 
ATOM      8  C   UNL     1       2.153   0.235  -0.151  0.00  0.00    +0.050 A 
ATOM      9  C   UNL     1       0.989  -0.568  -0.145  0.00  0.00    +0.020 A 
ATOM     10  C   UNL     1      -0.265   0.033  -0.190  0.00  0.00    +0.011 A 
ATOM     11  C   UNL     1       1.172  -2.027  -0.090  0.00  0.00    +0.153 A 
ATOM     12  N   UNL     1       2.387  -2.518  -0.050  0.00  0.00    -0.166 NA
ATOM     13  N   UNL     1       3.451  -1.807  -0.054  0.00  0.00    -0.242 N 
ATOM     14  H   UNL     1       4.307  -2.263  -0.022  0.00  0.00    +0.192 HD
ATOM     15  C   UNL     1       3.447  -0.459  -0.102  0.00  0.00    +0.272 A 
ATOM     16  O   UNL     1       4.491   0.167  -0.103  0.00  0.00    -0.266 OA
ENDBRANCH   1  11
BRANCH   3  17
ATOM     17  C   UNL     1      -0.978  -5.151   0.097  0.00  0.00    +0.060 C 
ATOM     18  C   UNL     1      -1.057  -6.348  -0.852  0.00  0.00    +0.033 C 
ATOM     19  C   UNL     1      -1.994  -5.155  -1.048  0.00  0.00    +0.033 C 
BRANCH  17  20
ATOM     20  C   UNL     1      -1.506  -5.336   1.496  0.00  0.00    -0.024 A 
ATOM     21  C   UNL     1      -2.624  -6.118   1.715  0.00  0.00    +0.007 A 
ATOM     22  C   UNL     1      -3.108  -6.288   2.999  0.00  0.00    +0.015 A 
ATOM     23  C   UNL     1      -2.473  -5.675   4.064  0.00  0.00    +0.018 A 
ATOM     24  C   UNL     1      -1.354  -4.893   3.844  0.00  0.00    +0.015 A 
ATOM     25  C   UNL     1      -0.868  -4.727   2.561  0.00  0.00    +0.007 A 
ATOM     26 BR   UNL     1      -3.135  -5.907   5.820  0.00  0.00    -0.050 Br
ENDBRANCH  17  20
ENDBRANCH   3  17
TORSDOF 3
