REMARK  Name = ZINC35894525
REMARK  7 active torsions:
REMARK  status: ('A' for Active; 'I' for Inactive)
REMARK    1  A    between atoms: C_1  and  C_2
REMARK    2  A    between atoms: C_2  and  O_3
REMARK    3  A    between atoms: O_3  and  C_4
REMARK    4  A    between atoms: C_12  and  C_14
REMARK    5  A    between atoms: C_19  and  N_37
REMARK    6  A    between atoms: N_27  and  C_30
REMARK    7  A    between atoms: C_30  and  C_31
REMARK                            x       y       z     vdW  Elec       q    Type
REMARK                         _______ _______ _______ _____ _____    ______ ____
ROOT
ATOM      1  C   UNL     1      -6.421  -5.361  -1.268  0.00  0.00    +0.098 C 
ATOM      2  C   UNL     1      -5.712  -5.865  -2.524  0.00  0.00    +0.051 C 
ATOM      3  C   UNL     1      -6.391  -5.298  -3.744  0.00  0.00    -0.023 A 
ATOM      4  C   UNL     1      -5.669  -5.157  -4.916  0.00  0.00    +0.038 A 
ATOM      5  C   UNL     1      -6.272  -4.635  -6.045  0.00  0.00    +0.127 A 
ATOM      6  C   UNL     1      -7.600  -4.252  -6.007  0.00  0.00    +0.034 A 
ATOM      7  C   UNL     1      -8.327  -4.394  -4.842  0.00  0.00    +0.025 A 
ATOM      8  C   UNL     1      -7.722  -4.921  -3.705  0.00  0.00    +0.033 A 
ATOM      9  N   UNL     1      -8.490  -5.063  -2.538  0.00  0.00    -0.329 N 
ATOM     10  C   UNL     1      -7.916  -5.690  -1.358  0.00  0.00    +0.069 C 
ATOM     11  C   UNL     1      -8.591  -5.273  -0.062  0.00  0.00    -0.055 C 
ATOM     12  N   UNL     1     -10.039  -5.140  -0.218  0.00  0.00    +0.385 N 
ATOM     13  C   UNL     1     -10.316  -4.089  -1.209  0.00  0.00    -0.059 C 
ATOM     14  C   UNL     1      -9.877  -4.591  -2.582  0.00  0.00    +0.087 C 
ATOM     15  H   UNL     1     -10.427  -6.015  -0.537  0.00  0.00    -0.081 HD
ENDROOT
BRANCH   1  24
ATOM     16  C   UNL     1      -2.424  -1.878   1.921  0.00  0.00    +0.403 C 
ATOM     17  O   UNL     1      -1.580  -2.626   2.373  0.00  0.00    -0.226 OA
ATOM     18  N   UNL     1      -3.559  -2.382   1.397  0.00  0.00    -0.264 N 
ATOM     19  C   UNL     1      -4.587  -1.490   0.842  0.00  0.00    +0.130 C 
ATOM     20  C   UNL     1      -4.874  -1.914  -0.604  0.00  0.00    +0.127 C 
ATOM     21  N   UNL     1      -5.106  -3.365  -0.630  0.00  0.00    -0.298 N 
ATOM     22  C   UNL     1      -4.079  -4.257  -0.074  0.00  0.00    +0.127 C 
ATOM     23  C   UNL     1      -3.789  -3.833   1.366  0.00  0.00    +0.130 C 
ATOM     24  C   UNL     1      -6.241  -3.869  -1.154  0.00  0.00    +0.221 C 
ATOM     25  O   UNL     1      -7.118  -3.122  -1.533  0.00  0.00    -0.275 OA
BRANCH  16  26
ATOM     26  O   UNL     1      -2.226  -0.547   1.944  0.00  0.00    -0.451 OA
BRANCH  26  28
ATOM     27  C   UNL     1      -0.955   1.445   2.451  0.00  0.00    +0.048 C 
ATOM     28  C   UNL     1      -1.001  -0.083   2.514  0.00  0.00    +0.230 C 
ENDBRANCH  26  28
ENDBRANCH  16  26
ENDBRANCH   1  24
BRANCH   5  29
ATOM     29  N   UNL     1      -5.495  -4.486  -7.295  0.00  0.00    +0.056 N 
ATOM     30  O   UNL     1      -4.333  -4.821  -7.329  0.00  0.00    -0.126 OA
ATOM     31  O   UNL     1      -6.021  -4.029  -8.283  0.00  0.00    -0.126 OA
ENDBRANCH   5  29
BRANCH  12  32
ATOM     32  C   UNL     1     -10.642  -4.772   1.070  0.00  0.00    -0.043 C 
BRANCH  32  33
ATOM     33  C   UNL     1     -12.142  -4.755   0.936  0.00  0.00    -0.064 A 
ATOM     34  C   UNL     1     -12.790  -3.594   0.559  0.00  0.00    +0.002 A 
ATOM     35  C   UNL     1     -14.166  -3.578   0.436  0.00  0.00    +0.000 A 
ATOM     36  C   UNL     1     -14.896  -4.724   0.690  0.00  0.00    +0.000 A 
ATOM     37  C   UNL     1     -14.249  -5.886   1.067  0.00  0.00    +0.000 A 
ATOM     38  C   UNL     1     -12.872  -5.903   1.185  0.00  0.00    +0.002 A 
ENDBRANCH  32  33
ENDBRANCH  12  32
TORSDOF 6
