REMARK  Name = ZINC13815085
REMARK  7 active torsions:
REMARK  status: ('A' for Active; 'I' for Inactive)
REMARK    1  A    between atoms: C_1  and  C_2
REMARK    2  A    between atoms: C_4  and  C_37
REMARK    3  A    between atoms: C_6  and  N_8
REMARK    4  A    between atoms: C_13  and  C_32
REMARK    5  A    between atoms: C_25  and  C_30
REMARK    6  A    between atoms: C_32  and  C_33
REMARK    7  A    between atoms: C_33  and  C_34
REMARK                            x       y       z     vdW  Elec       q    Type
REMARK                         _______ _______ _______ _____ _____    ______ ____
ROOT
ATOM      1  N   UNL     1       0.050  -2.798   2.395  0.00  0.00    -0.210 N 
ATOM      2  C   UNL     1      -0.025  -4.133   2.452  0.00  0.00    +0.232 C 
ATOM      3  O   UNL     1      -0.116  -4.871   1.494  0.00  0.00    -0.274 OA
ATOM      4  C   UNL     1       0.021  -4.578   3.896  0.00  0.00    +0.107 C 
ATOM      5  C   UNL     1      -1.346  -5.178   4.288  0.00  0.00    +0.068 C 
ATOM      6  N   UNL     1      -2.163  -4.015   4.726  0.00  0.00    -0.295 NA
ATOM      7  C   UNL     1      -1.210  -3.162   5.460  0.00  0.00    +0.136 C 
ATOM      8  C   UNL     1       0.126  -3.240   4.681  0.00  0.00    +0.123 C 
ATOM      9  C   UNL     1       0.146  -2.196   3.586  0.00  0.00    +0.233 C 
ATOM     10  O   UNL     1       0.233  -1.000   3.761  0.00  0.00    -0.274 OA
ATOM     11  C   UNL     1      -1.706  -1.749   5.571  0.00  0.00    +0.004 A 
ATOM     12  C   UNL     1      -2.047  -0.787   4.645  0.00  0.00    +0.009 A 
ATOM     13  C   UNL     1      -2.483   0.456   5.066  0.00  0.00    +0.021 A 
ATOM     14  C   UNL     1      -2.577   0.731   6.419  0.00  0.00    +0.046 A 
ATOM     15  C   UNL     1      -2.236  -0.229   7.350  0.00  0.00    -0.011 A 
ATOM     16  C   UNL     1      -1.795  -1.483   6.934  0.00  0.00    +0.043 A 
ATOM     17  N   UNL     1      -1.399  -2.601   7.671  0.00  0.00    -0.283 N 
ATOM     18  C   UNL     1      -1.038  -3.630   6.879  0.00  0.00    +0.243 C 
ATOM     19  O   UNL     1      -0.651  -4.721   7.241  0.00  0.00    -0.273 OA
ATOM     20  C   UNL     1      -2.341   0.080   8.822  0.00  0.00    +0.047 C 
ATOM     21 CL   UNL     1      -3.125   2.291   6.948  0.00  0.00    -0.083 Cl
ATOM     22  H   UNL     1      -2.550  -3.526   3.932  0.00  0.00    +0.123 HD
ATOM     23  H   UNL     1      -1.384  -2.633   8.640  0.00  0.00    +0.155 HD
ENDROOT
BRANCH   1  29
ATOM     24  C   UNL     1       2.382   0.035  -0.880  0.00  0.00    +0.044 C 
ATOM     25  C   UNL     1       1.152  -0.707  -0.424  0.00  0.00    -0.048 A 
ATOM     26  C   UNL     1       0.007  -0.687  -1.199  0.00  0.00    +0.006 A 
ATOM     27  C   UNL     1      -1.124  -1.366  -0.784  0.00  0.00    -0.048 A 
ATOM     28  C   UNL     1      -1.113  -2.067   0.406  0.00  0.00    +0.027 A 
ATOM     29  C   UNL     1       0.035  -2.088   1.186  0.00  0.00    +0.044 A 
ATOM     30  C   UNL     1       1.171  -1.410   0.764  0.00  0.00    +0.027 A 
ATOM     31  C   UNL     1      -2.370  -1.342  -1.631  0.00  0.00    +0.044 C 
ENDBRANCH   1  29
BRANCH   5  32
ATOM     32  C   UNL     1      -1.992  -5.863   3.082  0.00  0.00    +0.028 C 
BRANCH  32  33
ATOM     33  C   UNL     1      -3.283  -6.557   3.521  0.00  0.00    +0.097 C 
BRANCH  33  34
ATOM     34  C   UNL     1      -3.920  -7.231   2.333  0.00  0.00    +0.211 C 
ATOM     35  O   UNL     1      -3.393  -7.162   1.242  0.00  0.00    -0.276 OA
ATOM     36  N   UNL     1      -5.075  -7.909   2.482  0.00  0.00    -0.329 N 
ATOM     37  H   UNL     1      -5.496  -7.964   3.354  0.00  0.00    +0.145 HD
ATOM     38  H   UNL     1      -5.485  -8.343   1.717  0.00  0.00    +0.145 HD
ENDBRANCH  33  34
ENDBRANCH  32  33
ENDBRANCH   5  32
TORSDOF 4
