REMARK  Name = ZINC12408344
REMARK  8 active torsions:
REMARK  status: ('A' for Active; 'I' for Inactive)
REMARK    1  A    between atoms: C_1  and  C_2
REMARK    2  A    between atoms: C_9  and  C_33
REMARK    3  A    between atoms: C_10  and  C_16
REMARK    4  A    between atoms: C_16  and  C_17
REMARK    5  A    between atoms: C_17  and  C_18
REMARK    6  A    between atoms: N_20  and  C_21
REMARK    7  A    between atoms: C_21  and  C_22
REMARK    8  A    between atoms: C_24  and  C_27
REMARK                            x       y       z     vdW  Elec       q    Type
REMARK                         _______ _______ _______ _____ _____    ______ ____
ROOT
ATOM      1  C   UNL     1       0.025   0.017   2.485  0.00  0.00    +0.052 C 
ENDROOT
BRANCH   1  11
ATOM      2  C   UNL     1      -0.068   0.922  -5.677  0.00  0.00    +0.047 C 
ATOM      3  C   UNL     1      -0.043  -0.465  -5.087  0.00  0.00    -0.005 A 
ATOM      4  C   UNL     1      -0.035  -1.624  -5.758  0.00  0.00    +0.199 A 
ATOM      5  O   UNL     1      -0.013  -2.659  -4.900  0.00  0.00    -0.463 OA
ATOM      6  C   UNL     1      -0.005  -2.227  -3.622  0.00  0.00    +0.139 A 
ATOM      7  C   UNL     1      -0.024  -0.818  -3.661  0.00  0.00    +0.024 A 
ATOM      8  C   UNL     1      -0.021  -0.081  -2.484  0.00  0.00    +0.023 A 
ATOM      9  C   UNL     1      -0.006  -0.750  -1.260  0.00  0.00    +0.022 A 
ATOM     10  C   UNL     1       0.002  -0.004   0.002  0.00  0.00    -0.030 A 
ATOM     11  C   UNL     1       0.023  -0.707   1.163  0.00  0.00    +0.041 A 
ATOM     12  C   UNL     1       0.041  -2.118   1.129  0.00  0.00    +0.341 A 
ATOM     13  O   UNL     1       0.059  -2.736   2.178  0.00  0.00    -0.245 OA
ATOM     14  O   UNL     1       0.038  -2.796  -0.029  0.00  0.00    -0.422 OA
ATOM     15  C   UNL     1       0.018  -2.160  -1.222  0.00  0.00    +0.143 A 
ATOM     16  C   UNL     1       0.016  -2.884  -2.401  0.00  0.00    +0.093 A 
ATOM     17  C   UNL     1      -0.018   1.503   0.010  0.00  0.00    +0.045 C 
ENDBRANCH   1  11
BRANCH   1  18
ATOM     18  C   UNL     1      -1.416   0.242   2.946  0.00  0.00    +0.100 C 
BRANCH  18  19
ATOM     19  C   UNL     1      -1.413   0.966   4.267  0.00  0.00    +0.214 C 
ATOM     20  O   UNL     1      -0.362   1.271   4.789  0.00  0.00    -0.276 OA
ATOM     21  N   UNL     1      -2.579   1.274   4.870  0.00  0.00    -0.308 N 
ATOM     22  H   UNL     1      -3.420   1.029   4.452  0.00  0.00    +0.149 HD
BRANCH  21  23
ATOM     23  C   UNL     1      -2.577   1.977   6.154  0.00  0.00    +0.184 C 
BRANCH  23  24
ATOM     24  C   UNL     1      -3.996   2.199   6.609  0.00  0.00    +0.189 A 
ATOM     25  N   UNL     1      -4.725   1.366   7.367  0.00  0.00    -0.190 NA
ATOM     26  C   UNL     1      -5.897   1.956   7.516  0.00  0.00    +0.259 A 
ATOM     27  O   UNL     1      -5.832   3.117   6.845  0.00  0.00    -0.333 OA
ATOM     28  N   UNL     1      -4.735   3.235   6.340  0.00  0.00    -0.059 NA
BRANCH  26  29
ATOM     29  C   UNL     1      -7.056   1.440   8.275  0.00  0.00    +0.039 A 
ATOM     30  C   UNL     1      -6.977   0.205   8.921  0.00  0.00    +0.013 A 
ATOM     31  C   UNL     1      -8.060  -0.268   9.632  0.00  0.00    +0.001 A 
ATOM     32  C   UNL     1      -9.227   0.472   9.695  0.00  0.00    +0.000 A 
ATOM     33  C   UNL     1      -9.315   1.694   9.052  0.00  0.00    +0.001 A 
ATOM     34  C   UNL     1      -8.236   2.182   8.343  0.00  0.00    +0.013 A 
ENDBRANCH  26  29
ENDBRANCH  23  24
ENDBRANCH  21  23
ENDBRANCH  18  19
ENDBRANCH   1  18
TORSDOF 6
