REMARK  Name = ZINC09865535
REMARK  12 active torsions:
REMARK  status: ('A' for Active; 'I' for Inactive)
REMARK    1  A    between atoms: C_1  and  C_2
REMARK    2  A    between atoms: C_5  and  C_7
REMARK    3  A    between atoms: C_16  and  C_18
REMARK    4  A    between atoms: C_18  and  S_19
REMARK    5  A    between atoms: S_19  and  C_20
REMARK    6  A    between atoms: C_23  and  C_29
REMARK    7  A    between atoms: N_24  and  C_25
REMARK    8  A    between atoms: C_25  and  C_26
REMARK    9  A    between atoms: C_26  and  C_27
REMARK   10  A    between atoms: C_26  and  C_28
REMARK   11  A    between atoms: C_29  and  C_30
REMARK   12  A    between atoms: C_30  and  C_31
REMARK                            x       y       z     vdW  Elec       q    Type
REMARK                         _______ _______ _______ _____ _____    ______ ____
ROOT
ATOM      1  C   UNL     1       3.662  -0.707  -0.037  0.00  0.00    +0.151 C 
ENDROOT
BRANCH   1  11
ATOM      2  C   UNL     1      -1.159   2.334   0.020  0.00  0.00    +0.010 A 
ATOM      3  C   UNL     1      -0.929   3.671   0.030  0.00  0.00    +0.057 A 
ATOM      4  S   UNL     1       0.850   3.783   0.014  0.00  0.00    -0.076 S 
ATOM      5  C   UNL     1       1.240   2.052   0.001  0.00  0.00    +0.116 A 
ATOM      6  C   UNL     1      -0.017   1.427   0.010  0.00  0.00    +0.080 A 
ATOM      7  C   UNL     1       0.002  -0.004   0.002  0.00  0.00    +0.260 A 
ATOM      8  O   UNL     1      -1.040  -0.637   0.008  0.00  0.00    -0.267 OA
ATOM      9  N   UNL     1       1.188  -0.640  -0.013  0.00  0.00    -0.310 N 
ATOM     10  H   UNL     1       1.207  -1.610  -0.018  0.00  0.00    +0.170 HD
ATOM     11  C   UNL     1       2.358   0.048  -0.020  0.00  0.00    +0.121 A 
ATOM     12  N   UNL     1       2.373   1.354  -0.013  0.00  0.00    -0.226 NA
BRANCH   2  17
ATOM     13  C   UNL     1      -6.121  -0.233  -0.726  0.00  0.00    +0.051 C 
ATOM     14  C   UNL     1      -4.917   0.581  -0.331  0.00  0.00    -0.013 A 
ATOM     15  C   UNL     1      -4.798   1.504   0.657  0.00  0.00    +0.011 A 
ATOM     16  C   UNL     1      -3.585   2.131   0.848  0.00  0.00    +0.016 A 
ATOM     17  C   UNL     1      -2.540   1.808   0.024  0.00  0.00    +0.021 A 
ATOM     18  S   UNL     1      -3.279   0.579  -1.041  0.00  0.00    -0.093 S 
ENDBRANCH   2  17
ENDBRANCH   1  11
BRANCH   1  19
ATOM     19  S   UNL     1       5.039   0.467  -0.044  0.00  0.00    -0.078 S 
BRANCH  19  20
ATOM     20  C   UNL     1       6.398  -0.655  -0.064  0.00  0.00    +0.192 A 
ATOM     21  N   UNL     1       6.328  -1.966  -0.065  0.00  0.00    -0.122 NA
ATOM     22  N   UNL     1       7.511  -2.466  -0.084  0.00  0.00    -0.134 NA
ATOM     23  C   UNL     1       8.400  -1.513  -0.087  0.00  0.00    +0.135 A 
ATOM     24  N   UNL     1       7.723  -0.325  -0.075  0.00  0.00    -0.306 N 
BRANCH  24  25
ATOM     25  C   UNL     1       8.300   1.022  -0.073  0.00  0.00    +0.128 C 
BRANCH  25  26
ATOM     26  C   UNL     1       8.514   1.483   1.369  0.00  0.00    +0.003 C 
ATOM     27  C   UNL     1       9.229   2.835   1.371  0.00  0.00    +0.009 C 
ATOM     28  C   UNL     1       7.159   1.622   2.067  0.00  0.00    +0.009 C 
ENDBRANCH  25  26
ENDBRANCH  24  25
BRANCH  23  29
ATOM     29  C   UNL     1       9.897  -1.688  -0.102  0.00  0.00    +0.085 C 
BRANCH  29  30
ATOM     30  C   UNL     1      10.417  -1.755   1.335  0.00  0.00    +0.103 C 
BRANCH  30  31
ATOM     31  C   UNL     1      11.914  -1.930   1.319  0.00  0.00    +0.211 C 
ATOM     32  O   UNL     1      12.506  -1.995   0.263  0.00  0.00    -0.276 OA
ATOM     33  N   UNL     1      12.594  -2.014   2.480  0.00  0.00    -0.329 N 
ATOM     34  H   UNL     1      12.121  -1.962   3.325  0.00  0.00    +0.145 HD
ATOM     35  H   UNL     1      13.558  -2.126   2.470  0.00  0.00    +0.145 HD
ENDBRANCH  30  31
ENDBRANCH  29  30
ENDBRANCH  23  29
ENDBRANCH  19  20
ENDBRANCH   1  19
TORSDOF 9
