REMARK  Name = ZINC09645844
REMARK  9 active torsions:
REMARK  status: ('A' for Active; 'I' for Inactive)
REMARK    1  A    between atoms: C_1  and  C_2
REMARK    2  A    between atoms: C_2  and  C_3
REMARK    3  A    between atoms: C_2  and  C_4
REMARK    4  A    between atoms: C_2  and  C_5
REMARK    5  A    between atoms: C_8  and  C_11
REMARK    6  A    between atoms: C_14  and  S_23
REMARK    7  A    between atoms: N_15  and  C_16
REMARK    8  A    between atoms: S_23  and  C_24
REMARK    9  A    between atoms: C_24  and  C_25
REMARK                            x       y       z     vdW  Elec       q    Type
REMARK                         _______ _______ _______ _____ _____    ______ ____
ROOT
ATOM      1  C   UNL     1      -1.969   2.488  -1.073  0.00  0.00    +0.169 A 
ATOM      2  N   UNL     1      -3.044   3.085  -0.612  0.00  0.00    -0.128 NA
ATOM      3  N   UNL     1      -3.035   3.076   0.673  0.00  0.00    -0.122 NA
ATOM      4  C   UNL     1      -1.956   2.469   1.114  0.00  0.00    +0.197 A 
ATOM      5  N   UNL     1      -1.240   2.070   0.019  0.00  0.00    -0.269 N 
ENDROOT
BRANCH   5   6
ATOM      6  C   UNL     1      -0.017   1.384   0.010  0.00  0.00    +0.069 A 
ATOM      7  C   UNL     1       0.002  -0.004   0.002  0.00  0.00    +0.028 A 
ATOM      8  C   UNL     1       1.208  -0.677  -0.013  0.00  0.00    +0.002 A 
ATOM      9  C   UNL     1       2.397   0.030  -0.021  0.00  0.00    +0.002 A 
ATOM     10  C   UNL     1       2.382   1.412  -0.014  0.00  0.00    +0.022 A 
ATOM     11  C   UNL     1       1.179   2.092   0.002  0.00  0.00    +0.065 A 
ATOM     12 CL   UNL     1       1.161   3.828   0.011  0.00  0.00    -0.081 Cl
ENDBRANCH   5   6
BRANCH   1  16
ATOM     13  C   UNL     1      -0.938   1.943  -5.157  0.00  0.00    -0.042 A 
ATOM     14  C   UNL     1      -2.228   2.308  -4.815  0.00  0.00    +0.005 A 
ATOM     15  C   UNL     1      -2.569   2.487  -3.490  0.00  0.00    +0.012 A 
ATOM     16  C   UNL     1      -1.610   2.299  -2.494  0.00  0.00    +0.020 A 
ATOM     17  C   UNL     1      -0.309   1.935  -2.846  0.00  0.00    +0.012 A 
ATOM     18  C   UNL     1       0.018   1.754  -4.174  0.00  0.00    +0.005 A 
BRANCH  13  20
ATOM     19  C   UNL     1      -0.803   3.055  -7.369  0.00  0.00    +0.015 C 
ATOM     20  C   UNL     1      -0.572   1.749  -6.606  0.00  0.00    -0.013 C 
ATOM     21  C   UNL     1       0.901   1.351  -6.711  0.00  0.00    +0.015 C 
ATOM     22  C   UNL     1      -1.444   0.645  -7.208  0.00  0.00    +0.015 C 
ENDBRANCH  13  20
ENDBRANCH   1  16
BRANCH   4  23
ATOM     23  S   UNL     1      -1.514   2.216   2.801  0.00  0.00    -0.078 S 
BRANCH  23  24
ATOM     24  C   UNL     1      -2.924   3.006   3.617  0.00  0.00    +0.153 C 
BRANCH  24  25
ATOM     25  C   UNL     1      -2.758   2.908   5.112  0.00  0.00    +0.146 A 
ATOM     26  N   UNL     1      -3.252   1.870   5.763  0.00  0.00    -0.199 NA
ATOM     27  C   UNL     1      -3.104   1.778   7.083  0.00  0.00    +0.217 A 
ATOM     28  N   UNL     1      -2.467   2.737   7.746  0.00  0.00    -0.181 NA
ATOM     29  C   UNL     1      -1.977   3.782   7.089  0.00  0.00    +0.217 A 
ATOM     30  N   UNL     1      -2.124   3.864   5.768  0.00  0.00    -0.199 NA
ATOM     31  N   UNL     1      -1.315   4.781   7.773  0.00  0.00    -0.327 N 
ATOM     32  N   UNL     1      -3.615   0.691   7.761  0.00  0.00    -0.327 N 
ATOM     33  H   UNL     1      -0.958   5.544   7.293  0.00  0.00    +0.145 HD
ATOM     34  H   UNL     1      -1.208   4.720   8.736  0.00  0.00    +0.145 HD
ATOM     35  H   UNL     1      -3.510   0.626   8.723  0.00  0.00    +0.145 HD
ATOM     36  H   UNL     1      -4.079  -0.009   7.276  0.00  0.00    +0.145 HD
ENDBRANCH  24  25
ENDBRANCH  23  24
ENDBRANCH   4  23
TORSDOF 6
