REMARK  Name = ZINC13640629
REMARK  12 active torsions:
REMARK  status: ('A' for Active; 'I' for Inactive)
REMARK    1  A    between atoms: C_1  and  C_2
REMARK    2  A    between atoms: C_5  and  N_9
REMARK    3  A    between atoms: C_7  and  C_8
REMARK    4  A    between atoms: N_9  and  S_10
REMARK    5  A    between atoms: S_10  and  C_13
REMARK    6  A    between atoms: C_26  and  C_29
REMARK    7  A    between atoms: C_31  and  O_39
REMARK    8  A    between atoms: C_32  and  O_37
REMARK    9  A    between atoms: C_33  and  O_35
REMARK   10  A    between atoms: O_35  and  C_36
REMARK   11  A    between atoms: O_37  and  C_38
REMARK   12  A    between atoms: O_39  and  C_40
REMARK                            x       y       z     vdW  Elec       q    Type
REMARK                         _______ _______ _______ _____ _____    ______ ____
ROOT
ATOM      1  C   UNL     1       1.701   2.266   0.240  0.00  0.00    +0.109 A 
ATOM      2  C   UNL     1       2.416   2.303   1.423  0.00  0.00    +0.030 A 
ATOM      3  C   UNL     1       3.696   2.820   1.433  0.00  0.00    +0.025 A 
ATOM      4  C   UNL     1       4.256   3.310   0.259  0.00  0.00    +0.031 A 
ATOM      5  C   UNL     1       3.541   3.283  -0.925  0.00  0.00    -0.018 A 
ATOM      6  C   UNL     1       2.257   2.754  -0.925  0.00  0.00    +0.034 A 
ATOM      7  C   UNL     1       4.089   3.808  -2.225  0.00  0.00    +0.049 C 
ATOM      8  C   UNL     1       3.155   4.915  -2.698  0.00  0.00    -0.023 C 
ATOM      9  C   UNL     1       3.615   6.086  -2.335  0.00  0.00    -0.030 C 
ATOM     10  C   UNL     1       4.920   5.932  -1.575  0.00  0.00    +0.033 C 
ATOM     11  C   UNL     1       5.428   4.546  -2.038  0.00  0.00    +0.029 C 
ATOM     12  C   UNL     1       6.295   3.898  -0.976  0.00  0.00    +0.105 C 
ATOM     13  N   UNL     1       5.554   3.832   0.289  0.00  0.00    -0.336 N 
ATOM     14  H   UNL     1       5.951   4.141   1.119  0.00  0.00    +0.147 HD
ENDROOT
BRANCH  12  15
ATOM     15  C   UNL     1       6.668   2.505  -1.412  0.00  0.00    -0.020 A 
ATOM     16  C   UNL     1       6.393   1.429  -0.590  0.00  0.00    +0.055 A 
ATOM     17  C   UNL     1       6.731   0.144  -0.991  0.00  0.00    +0.165 A 
ATOM     18  C   UNL     1       7.356  -0.058  -2.215  0.00  0.00    +0.204 A 
ATOM     19  C   UNL     1       7.635   1.028  -3.037  0.00  0.00    +0.165 A 
ATOM     20  C   UNL     1       7.289   2.308  -2.631  0.00  0.00    +0.055 A 
BRANCH  19  21
ATOM     21  O   UNL     1       8.246   0.835  -4.236  0.00  0.00    -0.491 OA
ATOM     22  C   UNL     1       8.502   1.996  -5.028  0.00  0.00    +0.277 C 
ENDBRANCH  19  21
BRANCH  18  23
ATOM     23  O   UNL     1       7.694  -1.316  -2.609  0.00  0.00    -0.488 OA
ATOM     24  C   UNL     1       8.991  -1.785  -2.238  0.00  0.00    +0.277 C 
ENDBRANCH  18  23
BRANCH  17  25
ATOM     25  O   UNL     1       6.455  -0.915  -0.183  0.00  0.00    -0.491 OA
ATOM     26  C   UNL     1       5.722  -0.645   1.013  0.00  0.00    +0.277 C 
ENDBRANCH  17  25
ENDBRANCH  12  15
BRANCH   1  27
ATOM     27  S   UNL     1       0.070   1.599   0.221  0.00  0.00    +0.072 S 
ATOM     28  O   UNL     1      -0.559   2.097  -0.952  0.00  0.00    -0.150 OA
ATOM     29  O   UNL     1      -0.468   1.805   1.520  0.00  0.00    -0.150 OA
BRANCH  27  30
ATOM     30  N   UNL     1       0.213  -0.039   0.023  0.00  0.00    -0.216 N 
ATOM     31  H   UNL     1      -0.161  -0.467  -0.764  0.00  0.00    +0.174 HD
BRANCH  30  36
ATOM     32  C   UNL     1       2.886  -3.148   3.940  0.00  0.00    +0.044 C 
ATOM     33  C   UNL     1       2.176  -2.322   2.899  0.00  0.00    -0.047 A 
ATOM     34  C   UNL     1       1.246  -1.375   3.287  0.00  0.00    +0.005 A 
ATOM     35  C   UNL     1       0.593  -0.616   2.335  0.00  0.00    +0.025 A 
ATOM     36  C   UNL     1       0.872  -0.805   0.988  0.00  0.00    +0.048 A 
ATOM     37  C   UNL     1       1.802  -1.761   0.601  0.00  0.00    +0.028 A 
ATOM     38  C   UNL     1       2.456  -2.512   1.558  0.00  0.00    -0.046 A 
ATOM     39  C   UNL     1       3.470  -3.545   1.141  0.00  0.00    +0.044 C 
ENDBRANCH  30  36
ENDBRANCH  27  30
ENDBRANCH   1  27
TORSDOF 7
