REMARK  Name = ZINC09102289
REMARK  11 active torsions:
REMARK  status: ('A' for Active; 'I' for Inactive)
REMARK    1  A    between atoms: C_1  and  C_2
REMARK    2  A    between atoms: C_2  and  C_4
REMARK    3  A    between atoms: C_2  and  N_53
REMARK    4  A    between atoms: C_7  and  S_16
REMARK    5  A    between atoms: N_8  and  C_9
REMARK    6  A    between atoms: S_16  and  C_17
REMARK    7  A    between atoms: C_17  and  C_19
REMARK    8  A    between atoms: C_17  and  C_20
REMARK    9  A    between atoms: N_22  and  C_23
REMARK   10  A    between atoms: C_32  and  N_53
REMARK   11  A    between atoms: C_33  and  N_53
REMARK                            x       y       z     vdW  Elec       q    Type
REMARK                         _______ _______ _______ _____ _____    ______ ____
ROOT
ATOM      1  C   UNL     1      -8.251   3.065  -1.434  0.00  0.00    +0.125 A 
ATOM      2  N   UNL     1      -7.444   3.959  -0.938  0.00  0.00    -0.135 NA
ATOM      3  N   UNL     1      -6.298   3.433  -0.692  0.00  0.00    -0.122 NA
ATOM      4  C   UNL     1      -6.306   2.164  -1.028  0.00  0.00    +0.197 A 
ATOM      5  N   UNL     1      -7.556   1.887  -1.510  0.00  0.00    -0.275 N 
ENDROOT
BRANCH   5   6
ATOM      6  C   UNL     1      -8.028   0.654  -1.984  0.00  0.00    +0.050 A 
ATOM      7  C   UNL     1      -8.391   0.513  -3.316  0.00  0.00    +0.028 A 
ATOM      8  C   UNL     1      -8.851  -0.703  -3.781  0.00  0.00    +0.022 A 
ATOM      9  C   UNL     1      -8.960  -1.779  -2.918  0.00  0.00    +0.041 A 
ATOM     10  C   UNL     1      -8.604  -1.640  -1.588  0.00  0.00    +0.022 A 
ATOM     11  C   UNL     1      -8.139  -0.427  -1.119  0.00  0.00    +0.028 A 
ATOM     12 CL   UNL     1      -9.544  -3.305  -3.503  0.00  0.00    -0.084 Cl
ENDBRANCH   5   6
BRANCH   1  14
ATOM     13  C   UNL     1     -10.565   3.386  -0.601  0.00  0.00    -0.005 C 
ATOM     14  C   UNL     1      -9.683   3.286  -1.848  0.00  0.00    -0.003 C 
BRANCH  14  17
ATOM     15  C   UNL     1      -8.878   4.508  -3.776  0.00  0.00    -0.096 C 
ATOM     16  C   UNL     1     -11.169   4.779  -3.041  0.00  0.00    -0.096 C 
ATOM     17  N   UNL     1      -9.775   4.553  -2.603  0.00  0.00    +0.382 N 
ATOM     18  H   UNL     1      -9.488   5.327  -1.992  0.00  0.00    -0.082 HD
ENDBRANCH  14  17
ENDBRANCH   1  14
BRANCH   4  19
ATOM     19  S   UNL     1      -4.965   1.031  -0.881  0.00  0.00    -0.073 S 
BRANCH  19  20
ATOM     20  C   UNL     1      -3.704   2.126  -0.184  0.00  0.00    +0.137 C 
ATOM     21  C   UNL     1      -4.141   2.586   1.208  0.00  0.00    +0.029 C 
BRANCH  20  22
ATOM     22  C   UNL     1      -2.396   1.385  -0.081  0.00  0.00    +0.230 C 
ATOM     23  O   UNL     1      -2.385   0.172  -0.088  0.00  0.00    -0.274 OA
ATOM     24  N   UNL     1      -1.239   2.069   0.019  0.00  0.00    -0.282 N 
ATOM     25  H   UNL     1      -1.253   3.035   0.105  0.00  0.00    +0.155 HD
BRANCH  24  26
ATOM     26  C   UNL     1      -0.016   1.385  -0.002  0.00  0.00    +0.072 A 
ATOM     27  C   UNL     1       0.075   0.144  -0.617  0.00  0.00    +0.029 A 
ATOM     28  C   UNL     1       1.283  -0.527  -0.642  0.00  0.00    +0.043 A 
ATOM     29  C   UNL     1       2.403   0.036  -0.055  0.00  0.00    +0.161 A 
ATOM     30  C   UNL     1       2.316   1.275   0.561  0.00  0.00    +0.195 A 
ATOM     31  C   UNL     1       1.107   1.951   0.589  0.00  0.00    +0.182 A 
ATOM     32  F   UNL     1       1.021   3.159   1.188  0.00  0.00    -0.200 F 
ATOM     33  F   UNL     1       3.410   1.823   1.134  0.00  0.00    -0.199 F 
ATOM     34  F   UNL     1       3.582  -0.623  -0.081  0.00  0.00    -0.202 F 
ENDBRANCH  24  26
ENDBRANCH  20  22
ENDBRANCH  19  20
ENDBRANCH   4  19
TORSDOF 7
