REMARK  Name = ZINC40919373
REMARK  4 active torsions:
REMARK  status: ('A' for Active; 'I' for Inactive)
REMARK    1  A    between atoms: C_6  and  C_7
REMARK    2  A    between atoms: C_16  and  C_19
REMARK    3  A    between atoms: C_24  and  C_27
REMARK    4  A    between atoms: C_24  and  N_30
REMARK                            x       y       z     vdW  Elec       q    Type
REMARK                         _______ _______ _______ _____ _____    ______ ____
ROOT
ATOM      1  C   UNL     1      -7.529  -4.628   1.207  0.00  0.00    +0.219 C 
ATOM      2  O   UNL     1      -7.697  -3.528   1.690  0.00  0.00    -0.275 OA
ATOM      3  N   UNL     1      -7.986  -5.722   1.847  0.00  0.00    -0.301 N 
ATOM      4  C   UNL     1      -7.700  -7.067   1.329  0.00  0.00    +0.107 C 
ATOM      5  C   UNL     1      -9.021  -7.827   1.175  0.00  0.00    +0.016 C 
ATOM      6  C   UNL     1      -9.771  -7.814   2.509  0.00  0.00    +0.015 C 
ATOM      7  C   UNL     1     -10.088  -6.370   2.904  0.00  0.00    +0.016 C 
ATOM      8  C   UNL     1      -8.775  -5.593   3.080  0.00  0.00    +0.107 C 
ENDROOT
BRANCH   1  18
ATOM      9  C   UNL     1      -6.216  -1.683  -6.123  0.00  0.00    +0.093 A 
ATOM     10  C   UNL     1      -5.199  -1.419  -5.199  0.00  0.00    +0.033 A 
ATOM     11  C   UNL     1      -5.156  -2.181  -4.046  0.00  0.00    +0.047 A 
ATOM     12  C   UNL     1      -6.131  -3.166  -3.874  0.00  0.00    +0.144 A 
ATOM     13  N   UNL     1      -7.059  -3.346  -4.803  0.00  0.00    -0.134 NA
ATOM     14  N   UNL     1      -7.103  -2.636  -5.872  0.00  0.00    -0.147 NA
ATOM     15  N   UNL     1      -6.129  -3.957  -2.731  0.00  0.00    -0.314 N 
ATOM     16  C   UNL     1      -7.098  -5.049  -2.574  0.00  0.00    +0.107 C 
ATOM     17  C   UNL     1      -7.833  -4.870  -1.242  0.00  0.00    +0.032 C 
ATOM     18  C   UNL     1      -6.809  -4.771  -0.109  0.00  0.00    +0.078 C 
ATOM     19  C   UNL     1      -5.912  -3.551  -0.335  0.00  0.00    +0.032 C 
ATOM     20  C   UNL     1      -5.152  -3.719  -1.659  0.00  0.00    +0.107 C 
BRANCH   9  26
ATOM     21  C   UNL     1      -7.323  -1.153  -8.293  0.00  0.00    +0.013 A 
ATOM     22  C   UNL     1      -7.403  -0.417  -9.457  0.00  0.00    +0.039 A 
ATOM     23  C   UNL     1      -6.474   0.578  -9.715  0.00  0.00    +0.123 A 
ATOM     24  C   UNL     1      -5.461   0.839  -8.806  0.00  0.00    +0.039 A 
ATOM     25  C   UNL     1      -5.373   0.107  -7.639  0.00  0.00    +0.013 A 
ATOM     26  C   UNL     1      -6.306  -0.894  -7.375  0.00  0.00    +0.002 A 
ATOM     27  F   UNL     1      -6.556   1.297 -10.856  0.00  0.00    -0.205 F 
ENDBRANCH   9  26
ENDBRANCH   1  18
BRANCH   6  28
ATOM     28  N   UNL     1     -11.023  -8.571   2.373  0.00  0.00    +0.389 N 
ATOM     29  C   UNL     1     -10.717  -9.961   2.017  0.00  0.00    -0.077 C 
ATOM     30  C   UNL     1     -12.019 -10.734   1.795  0.00  0.00    -0.019 C 
ATOM     31  C   UNL     1     -12.847 -10.706   3.083  0.00  0.00    -0.004 C 
ATOM     32  C   UNL     1     -13.098  -9.250   3.486  0.00  0.00    -0.019 C 
ATOM     33  C   UNL     1     -11.756  -8.533   3.645  0.00  0.00    -0.077 C 
ATOM     34  H   UNL     1     -11.589  -8.156   1.648  0.00  0.00    -0.080 HD
ENDBRANCH   6  28
BRANCH   6  35
ATOM     35  C   UNL     1      -8.914  -8.449   3.573  0.00  0.00    +0.200 C 
ATOM     36  O   UNL     1      -7.961  -9.130   3.258  0.00  0.00    -0.278 OA
ATOM     37  N   UNL     1      -9.205  -8.259   4.875  0.00  0.00    -0.330 N 
ATOM     38  H   UNL     1     -10.001  -7.765   5.127  0.00  0.00    +0.145 HD
ATOM     39  H   UNL     1      -8.619  -8.617   5.561  0.00  0.00    +0.145 HD
ENDBRANCH   6  35
TORSDOF 4
