REMARK  Name = ZINC32844156
REMARK  3 active torsions:
REMARK  status: ('A' for Active; 'I' for Inactive)
REMARK    1  A    between atoms: C_1  and  C_2
REMARK    2  A    between atoms: C_15  and  C_17
REMARK    3  A    between atoms: C_17  and  N_18
REMARK                            x       y       z     vdW  Elec       q    Type
REMARK                         _______ _______ _______ _____ _____    ______ ____
ROOT
ATOM      1  C   UNL     1       0.712   5.828   2.350  0.00  0.00    +0.029 C 
ATOM      2  C   UNL     1      -0.461   5.880   1.369  0.00  0.00    +0.087 C 
ATOM      3  C   UNL     1      -1.660   5.145   1.969  0.00  0.00    +0.118 C 
ATOM      4  C   UNL     1      -2.669   4.837   0.895  0.00  0.00    +0.219 C 
ATOM      5  O   UNL     1      -3.687   5.493   0.818  0.00  0.00    -0.275 OA
ATOM      6  N   UNL     1      -2.449   3.835   0.016  0.00  0.00    -0.284 N 
ATOM      7  C   UNL     1      -1.238   3.133   0.031  0.00  0.00    +0.055 A 
ATOM      8  C   UNL     1      -1.221   1.748   0.017  0.00  0.00    +0.025 A 
ATOM      9  C   UNL     1      -0.013   1.076   0.008  0.00  0.00    +0.002 A 
ATOM     10  C   UNL     1       1.177   1.781   0.000  0.00  0.00    +0.002 A 
ATOM     11  C   UNL     1       1.168   3.164   0.016  0.00  0.00    +0.025 A 
ATOM     12  C   UNL     1      -0.038   3.844   0.041  0.00  0.00    +0.058 A 
ATOM     13  N   UNL     1      -0.067   5.244   0.110  0.00  0.00    -0.265 N 
ATOM     14  C   UNL     1       0.261   5.991  -0.963  0.00  0.00    +0.238 C 
ATOM     15  O   UNL     1       0.232   7.202  -0.891  0.00  0.00    -0.273 OA
ATOM     16  H   UNL     1      -3.224   3.566  -0.717  0.00  0.00    +0.155 HD
ENDROOT
BRANCH  14  17
ATOM     17  C   UNL     1       0.663   5.322  -2.252  0.00  0.00    +0.214 C 
BRANCH  17  18
ATOM     18  N   UNL     1       0.968   6.344  -3.258  0.00  0.00    -0.215 N 
ATOM     19  C   UNL     1       2.191   6.877  -3.448  0.00  0.00    +0.248 C 
ATOM     20  O   UNL     1       3.208   6.613  -2.842  0.00  0.00    -0.273 OA
ATOM     21  C   UNL     1       2.031   7.876  -4.576  0.00  0.00    +0.122 C 
ATOM     22  C   UNL     1       2.365   9.278  -4.092  0.00  0.00    +0.047 C 
ATOM     23  C   UNL     1       3.485   9.969  -4.902  0.00  0.00    +0.072 C 
ATOM     24  S   UNL     1       3.411   9.031  -6.490  0.00  0.00    -0.158 S 
ATOM     25  C   UNL     1       2.875   7.412  -5.784  0.00  0.00    +0.104 C 
ATOM     26  N   UNL     1       0.603   7.781  -4.924  0.00  0.00    -0.284 N 
ATOM     27  C   UNL     1       0.069   6.858  -4.104  0.00  0.00    +0.310 C 
ATOM     28  O   UNL     1      -1.101   6.529  -4.128  0.00  0.00    -0.252 OA
ATOM     29  H   UNL     1       0.190   8.410  -5.726  0.00  0.00    +0.151 HD
ENDBRANCH  17  18
ENDBRANCH  14  17
TORSDOF 2
