REMARK  Name = ZINC36591427
REMARK  14 active torsions:
REMARK  status: ('A' for Active; 'I' for Inactive)
REMARK    1  A    between atoms: C_1  and  C_2
REMARK    2  A    between atoms: C_5  and  S_8
REMARK    3  A    between atoms: S_8  and  C_11
REMARK    4  A    between atoms: C_11  and  N_12
REMARK    5  A    between atoms: C_13  and  C_15
REMARK    6  A    between atoms: C_15  and  C_17
REMARK    7  A    between atoms: C_15  and  N_26
REMARK    8  A    between atoms: C_17  and  C_19
REMARK    9  A    between atoms: C_17  and  C_20
REMARK   10  A    between atoms: N_26  and  C_36
REMARK   11  A    between atoms: C_27  and  C_29
REMARK   12  A    between atoms: C_36  and  C_37
REMARK   13  A    between atoms: C_36  and  C_38
REMARK   14  A    between atoms: C_36  and  C_39
REMARK                            x       y       z     vdW  Elec       q    Type
REMARK                         _______ _______ _______ _____ _____    ______ ____
ROOT
ATOM      1  C   UNL     1       3.026  -4.997   3.655  0.00  0.00    +0.170 C 
ENDROOT
BRANCH   1   3
ATOM      2  N   UNL     1       2.664  -4.066   1.393  0.00  0.00    -0.295 N 
ATOM      3  C   UNL     1       2.708  -5.151   2.190  0.00  0.00    +0.235 C 
ATOM      4  O   UNL     1       2.491  -6.252   1.729  0.00  0.00    -0.274 OA
ATOM      5  H   UNL     1       2.745  -3.178   1.776  0.00  0.00    +0.150 HD
BRANCH   2   6
ATOM      6  C   UNL     1       2.493  -4.226  -0.054  0.00  0.00    +0.278 C 
BRANCH   6   7
ATOM      7  S   UNL     1       0.736  -4.071  -0.476  0.00  0.00    +0.013 S 
ATOM      8  O   UNL     1      -0.050  -4.863   0.404  0.00  0.00    -0.168 OA
ATOM      9  O   UNL     1       0.561  -4.161  -1.883  0.00  0.00    -0.168 OA
BRANCH   7  14
ATOM     10  C   UNL     1      -0.696   1.629   0.890  0.00  0.00    +0.044 C 
ATOM     11  C   UNL     1      -0.338   0.205   0.549  0.00  0.00    -0.050 A 
ATOM     12  C   UNL     1       0.124  -0.107  -0.716  0.00  0.00    +0.005 A 
ATOM     13  C   UNL     1       0.452  -1.413  -1.029  0.00  0.00    +0.027 A 
ATOM     14  C   UNL     1       0.319  -2.407  -0.077  0.00  0.00    +0.090 A 
ATOM     15  C   UNL     1      -0.142  -2.094   1.188  0.00  0.00    +0.027 A 
ATOM     16  C   UNL     1      -0.466  -0.787   1.503  0.00  0.00    +0.005 A 
ENDBRANCH   7  14
ENDBRANCH   6   7
ENDBRANCH   2   6
ENDBRANCH   1   3
BRANCH   1  17
ATOM     17  N   UNL     1       3.418  -6.296   4.209  0.00  0.00    -0.283 N 
ATOM     18  C   UNL     1       2.774  -6.793   5.283  0.00  0.00    +0.237 C 
ATOM     19  O   UNL     1       1.865  -6.168   5.787  0.00  0.00    -0.274 OA
BRANCH  18  20
ATOM     20  C   UNL     1       3.184  -8.124   5.858  0.00  0.00    +0.159 C 
ATOM     21  C   UNL     1       2.417  -9.268   5.158  0.00  0.00    +0.041 C 
ATOM     22  C   UNL     1       1.206  -9.457   6.101  0.00  0.00    +0.098 C 
ATOM     23  C   UNL     1       1.692  -8.944   7.438  0.00  0.00    +0.214 C 
ATOM     24  O   UNL     1       1.157  -9.166   8.504  0.00  0.00    -0.276 OA
ATOM     25  N   UNL     1       2.805  -8.204   7.274  0.00  0.00    -0.304 N 
ATOM     26  H   UNL     1       3.293  -7.780   7.996  0.00  0.00    +0.149 HD
ENDBRANCH  18  20
BRANCH  17  27
ATOM     27  C   UNL     1       4.511  -7.054   3.594  0.00  0.00    +0.030 C 
ATOM     28  C   UNL     1       5.736  -7.018   4.510  0.00  0.00    +0.031 C 
ATOM     29  C   UNL     1       4.071  -8.505   3.388  0.00  0.00    +0.031 C 
ATOM     30  C   UNL     1       4.866  -6.432   2.242  0.00  0.00    +0.031 C 
ENDBRANCH  17  27
ENDBRANCH   1  17
BRANCH   1  31
ATOM     31  C   UNL     1       4.175  -4.002   3.826  0.00  0.00    +0.045 C 
ATOM     32  C   UNL     1       4.466  -3.809   5.315  0.00  0.00    +0.015 C 
BRANCH  31  33
ATOM     33  C   UNL     1       3.790  -2.680   3.214  0.00  0.00    -0.042 A 
ATOM     34  C   UNL     1       2.726  -1.964   3.729  0.00  0.00    +0.004 A 
ATOM     35  C   UNL     1       2.372  -0.751   3.168  0.00  0.00    +0.000 A 
ATOM     36  C   UNL     1       3.083  -0.254   2.091  0.00  0.00    +0.000 A 
ATOM     37  C   UNL     1       4.148  -0.970   1.576  0.00  0.00    +0.000 A 
ATOM     38  C   UNL     1       4.504  -2.181   2.140  0.00  0.00    +0.004 A 
ENDBRANCH  31  33
ENDBRANCH   1  31
TORSDOF 9
