REMARK  Name = ZINC62496735
REMARK  7 active torsions:
REMARK  status: ('A' for Active; 'I' for Inactive)
REMARK    1  A    between atoms: C_1  and  C_2
REMARK    2  A    between atoms: C_2  and  N_3
REMARK    3  A    between atoms: C_6  and  N_24
REMARK    4  A    between atoms: C_11  and  C_15
REMARK    5  A    between atoms: C_15  and  C_16
REMARK    6  A    between atoms: C_19  and  C_23
REMARK    7  A    between atoms: C_21  and  C_22
REMARK                            x       y       z     vdW  Elec       q    Type
REMARK                         _______ _______ _______ _____ _____    ______ ____
ROOT
ATOM      1  N   UNL     1       0.557  -1.472  -1.534  0.00  0.00    -0.265 N 
ATOM      2  C   UNL     1      -0.015  -1.658  -2.800  0.00  0.00    +0.080 A 
ATOM      3  C   UNL     1      -1.359  -1.395  -3.009  0.00  0.00    +0.050 A 
ATOM      4  C   UNL     1      -1.907  -1.571  -4.272  0.00  0.00    +0.027 A 
ATOM      5  C   UNL     1      -1.110  -2.008  -5.322  0.00  0.00    +0.026 A 
ATOM      6  C   UNL     1       0.230  -2.275  -5.112  0.00  0.00    +0.049 A 
ATOM      7  C   UNL     1       0.780  -2.107  -3.852  0.00  0.00    +0.143 A 
ATOM      8  O   UNL     1       2.091  -2.397  -3.630  0.00  0.00    -0.477 OA
ATOM      9  C   UNL     1       2.766  -1.626  -2.633  0.00  0.00    +0.263 C 
ATOM     10  C   UNL     1       1.900  -1.510  -1.405  0.00  0.00    +0.261 C 
ATOM     11  O   UNL     1       2.409  -1.456  -0.305  0.00  0.00    -0.271 OA
ENDROOT
BRANCH   4  12
ATOM     12  N   UNL     1      -3.265  -1.308  -4.488  0.00  0.00    -0.358 N 
ATOM     13  H   UNL     1      -3.822  -1.003  -3.755  0.00  0.00    +0.142 HD
ATOM     14  H   UNL     1      -3.648  -1.431  -5.370  0.00  0.00    +0.142 HD
ENDBRANCH   4  12
BRANCH   1  16
ATOM     15  C   UNL     1      -0.525   0.269  -0.200  0.00  0.00    +0.025 C 
ATOM     16  C   UNL     1      -0.292  -1.234  -0.364  0.00  0.00    +0.110 C 
ENDBRANCH   1  16
BRANCH   9  17
ATOM     17  C   UNL     1       3.054  -0.227  -3.180  0.00  0.00    +0.089 C 
BRANCH  17  18
ATOM     18  C   UNL     1       4.019  -0.326  -4.333  0.00  0.00    -0.040 A 
ATOM     19  C   UNL     1       3.549  -0.294  -5.633  0.00  0.00    +0.004 A 
ATOM     20  C   UNL     1       4.435  -0.386  -6.690  0.00  0.00    +0.003 A 
ATOM     21  C   UNL     1       5.790  -0.508  -6.448  0.00  0.00    -0.050 A 
ATOM     22  C   UNL     1       6.260  -0.540  -5.149  0.00  0.00    +0.007 A 
ATOM     23  C   UNL     1       5.375  -0.444  -4.091  0.00  0.00    -0.047 A 
ATOM     24  C   UNL     1       5.888  -0.473  -2.674  0.00  0.00    +0.044 C 
ATOM     25  C   UNL     1       6.756  -0.609  -7.601  0.00  0.00    +0.044 C 
ENDBRANCH  17  18
ENDBRANCH   9  17
TORSDOF 4
