REMARK  Name = ZINC28429231
REMARK  4 active torsions:
REMARK  status: ('A' for Active; 'I' for Inactive)
REMARK    1  A    between atoms: C_1  and  C_2
REMARK    2  A    between atoms: C_2  and  C_3
REMARK    3  A    between atoms: C_2  and  C_4
REMARK    4  A    between atoms: C_12  and  C_17
REMARK                            x       y       z     vdW  Elec       q    Type
REMARK                         _______ _______ _______ _____ _____    ______ ____
ROOT
ATOM      1  C   UNL     1       3.027  -1.915  -0.035  0.00  0.00    +0.155 A 
ATOM      2  N   UNL     1       3.410  -0.640  -0.033  0.00  0.00    -0.205 NA
ATOM      3  C   UNL     1       2.354   0.126  -0.019  0.00  0.00    +0.196 A 
ATOM      4  N   UNL     1       1.232  -0.641  -0.012  0.00  0.00    -0.210 N 
ATOM      5  N   UNL     1       1.722  -1.972  -0.023  0.00  0.00    -0.149 NA
ATOM      6  C   UNL     1       0.002  -0.004   0.002  0.00  0.00    +0.058 A 
ATOM      7  C   UNL     1      -0.016   1.338   0.009  0.00  0.00    +0.036 A 
ATOM      8  S   UNL     1       1.700   1.779  -0.005  0.00  0.00    -0.051 S 
ATOM      9  C   UNL     1      -1.216   2.227   0.031  0.00  0.00    +0.125 C 
ATOM     10  N   UNL     1      -2.391   1.409   0.384  0.00  0.00    -0.305 NA
ATOM     11  C   UNL     1      -2.431   0.183  -0.427  0.00  0.00    +0.088 C 
ATOM     12  C   UNL     1      -1.318  -0.773   0.007  0.00  0.00    +0.071 C 
ATOM     13  H   UNL     1      -2.339   1.131   1.447  0.00  0.00    +0.123 HD
ENDROOT
BRANCH   9  14
ATOM     14  C   UNL     1      -1.022   3.317   1.053  0.00  0.00    -0.007 A 
ATOM     15  C   UNL     1      -0.627   4.586   0.660  0.00  0.00    +0.008 A 
ATOM     16  C   UNL     1      -0.461   5.558   1.635  0.00  0.00    +0.020 A 
ATOM     17  C   UNL     1      -0.694   5.231   2.958  0.00  0.00    +0.111 A 
ATOM     18  N   UNL     1      -1.069   4.013   3.295  0.00  0.00    -0.263 NA
ATOM     19  C   UNL     1      -1.242   3.066   2.394  0.00  0.00    +0.116 A 
ENDBRANCH   9  14
BRANCH   1  21
ATOM     20  C   UNL     1       4.823  -3.058  -1.307  0.00  0.00    +0.015 C 
ATOM     21  C   UNL     1       3.953  -3.105  -0.050  0.00  0.00    +0.053 C 
ATOM     22  C   UNL     1       4.847  -3.070   1.191  0.00  0.00    +0.015 C 
ENDBRANCH   1  21
TORSDOF 2
