REMARK  Name = ZINC00096676
REMARK  4 active torsions:
REMARK  status: ('A' for Active; 'I' for Inactive)
REMARK    1  A    between atoms: C_1  and  C_2
REMARK    2  A    between atoms: C_2  and  C_3
REMARK    3  A    between atoms: N_9  and  N_10
REMARK    4  A    between atoms: N_10  and  C_11
REMARK                            x       y       z     vdW  Elec       q    Type
REMARK                         _______ _______ _______ _____ _____    ______ ____
ROOT
ATOM      1  C   UNL     1      -4.495   1.877  -1.042  0.00  0.00    +0.152 A 
ATOM      2  N   UNL     1      -5.524   2.567  -0.668  0.00  0.00    -0.155 NA
ATOM      3  N   UNL     1      -5.364   2.889   0.687  0.00  0.00    -0.225 N 
ATOM      4  H   UNL     1      -5.981   3.401   1.233  0.00  0.00    +0.194 HD
ATOM      5  C   UNL     1      -4.194   2.352   1.092  0.00  0.00    +0.361 A 
ATOM      6  O   UNL     1      -3.719   2.419   2.212  0.00  0.00    -0.243 OA
ATOM      7  N   UNL     1      -3.647   1.729   0.029  0.00  0.00    -0.194 N 
ENDROOT
BRANCH   1   9
ATOM      8  C   UNL     1      -5.439   1.708  -3.329  0.00  0.00    +0.012 C 
ATOM      9  C   UNL     1      -4.264   1.326  -2.425  0.00  0.00    +0.074 C 
ENDBRANCH   1   9
BRANCH   7  10
ATOM     10  N   UNL     1      -2.426   1.042   0.020  0.00  0.00    -0.248 N 
ATOM     11  H   UNL     1      -2.415   0.072   0.015  0.00  0.00    +0.173 HD
BRANCH  10  12
ATOM     12  C   UNL     1      -1.224   1.755   0.017  0.00  0.00    +0.047 A 
ATOM     13  C   UNL     1      -0.013   1.076   0.008  0.00  0.00    +0.024 A 
ATOM     14  C   UNL     1       1.173   1.783   0.000  0.00  0.00    +0.002 A 
ATOM     15  C   UNL     1       1.156   3.166   0.007  0.00  0.00    +0.000 A 
ATOM     16  C   UNL     1      -0.049   3.845   0.021  0.00  0.00    +0.002 A 
ATOM     17  C   UNL     1      -1.239   3.144   0.029  0.00  0.00    +0.024 A 
ENDBRANCH  10  12
ENDBRANCH   7  10
TORSDOF 3
