REMARK  Name = ZINC15226866
REMARK  4 active torsions:
REMARK  status: ('A' for Active; 'I' for Inactive)
REMARK    1  A    between atoms: C_1  and  S_2
REMARK    2  A    between atoms: S_2  and  C_3
REMARK    3  A    between atoms: C_14  and  C_19
REMARK    4  A    between atoms: C_22  and  C_24
REMARK                            x       y       z     vdW  Elec       q    Type
REMARK                         _______ _______ _______ _____ _____    ______ ____
ROOT
ATOM      1  C   UNL     1      -1.702  -0.454   0.016  0.00  0.00    +0.273 C 
ATOM      2  N   UNL     1      -2.597   0.491   0.024  0.00  0.00    -0.137 NA
ATOM      3  N   UNL     1      -3.969   0.205   0.035  0.00  0.00    -0.228 N 
ATOM      4  C   UNL     1      -4.364  -1.086   0.037  0.00  0.00    +0.119 C 
ATOM      5  C   UNL     1      -5.756  -1.235   0.048  0.00  0.00    +0.026 A 
ATOM      6  C   UNL     1      -6.438  -0.006   0.055  0.00  0.00    +0.012 A 
ATOM      7  C   UNL     1      -7.799   0.006   0.066  0.00  0.00    +0.001 A 
ATOM      8  C   UNL     1      -8.543  -1.173   0.070  0.00  0.00    +0.002 A 
ATOM      9  C   UNL     1      -7.947  -2.395   0.065  0.00  0.00    +0.026 A 
ATOM     10  C   UNL     1      -6.538  -2.480   0.053  0.00  0.00    +0.046 A 
ATOM     11  N   UNL     1      -6.101  -3.729   0.048  0.00  0.00    -0.357 N 
ATOM     12  C   UNL     1      -4.716  -4.209   0.037  0.00  0.00    +0.268 C 
ATOM     13  N   UNL     1      -3.475  -3.429   0.027  0.00  0.00    -0.216 NA
ATOM     14  C   UNL     1      -3.325  -2.139   0.028  0.00  0.00    +0.244 C 
ATOM     15  O   UNL     1      -2.026  -1.763   0.012  0.00  0.00    -0.412 OA
ATOM     16  H   UNL     1      -4.623   0.921   0.041  0.00  0.00    +0.175 HD
ATOM     17  H   UNL     1      -6.786  -4.416   0.053  0.00  0.00    +0.162 HD
ENDROOT
BRANCH  12  18
ATOM     18  C   UNL     1      -4.600  -5.131   1.223  0.00  0.00    +0.150 A 
ATOM     19  C   UNL     1      -3.482  -5.346   1.945  0.00  0.00    +0.049 A 
ATOM     20  C   UNL     1      -3.815  -6.272   2.954  0.00  0.00    +0.050 A 
ATOM     21  C   UNL     1      -5.130  -6.574   2.791  0.00  0.00    +0.137 A 
ATOM     22  O   UNL     1      -5.595  -5.870   1.741  0.00  0.00    -0.456 OA
BRANCH  21  23
ATOM     23  C   UNL     1      -5.915  -7.508   3.624  0.00  0.00    +0.036 A 
ATOM     24  C   UNL     1      -5.427  -8.788   3.893  0.00  0.00    +0.013 A 
ATOM     25  C   UNL     1      -6.165  -9.655   4.671  0.00  0.00    +0.001 A 
ATOM     26  C   UNL     1      -7.387  -9.259   5.186  0.00  0.00    +0.001 A 
ATOM     27  C   UNL     1      -7.878  -7.993   4.924  0.00  0.00    +0.021 A 
ATOM     28  C   UNL     1      -7.147  -7.113   4.151  0.00  0.00    +0.052 A 
ATOM     29 CL   UNL     1      -7.760  -5.521   3.830  0.00  0.00    -0.083 Cl
ENDBRANCH  21  23
ENDBRANCH  12  18
BRANCH   1  31
ATOM     30  C   UNL     1      -0.022   1.810   0.012  0.00  0.00    +0.094 C 
ATOM     31  S   UNL     1       0.002  -0.004   0.002  0.00  0.00    -0.069 S 
ENDBRANCH   1  31
TORSDOF 3
