REMARK  Name = ZINC39280455
REMARK  12 active torsions:
REMARK  status: ('A' for Active; 'I' for Inactive)
REMARK    1  A    between atoms: C_1  and  C_2
REMARK    2  A    between atoms: C_2  and  O_3
REMARK    3  A    between atoms: O_3  and  C_4
REMARK    4  A    between atoms: C_9  and  S_14
REMARK    5  A    between atoms: S_14  and  C_15
REMARK    6  A    between atoms: C_15  and  C_16
REMARK    7  A    between atoms: C_16  and  C_20
REMARK    8  A    between atoms: C_20  and  S_21
REMARK    9  A    between atoms: S_21  and  C_22
REMARK   10  A    between atoms: C_28  and  O_32
REMARK   11  A    between atoms: O_32  and  C_33
REMARK   12  A    between atoms: C_33  and  C_34
REMARK                            x       y       z     vdW  Elec       q    Type
REMARK                         _______ _______ _______ _____ _____    ______ ____
ROOT
ATOM      1  C   UNL     1      -1.498  -6.448   5.536  0.00  0.00    +0.036 C 
ATOM      2  C   UNL     1      -2.012  -7.655   4.729  0.00  0.00    +0.170 C 
ATOM      3  O   UNL     1      -3.230  -7.498   5.486  0.00  0.00    -0.378 OA
ATOM      4  C   UNL     1      -2.984  -6.103   5.753  0.00  0.00    +0.170 C 
ENDROOT
BRANCH   1   5
ATOM      5  C   UNL     1      -0.742  -5.419   4.693  0.00  0.00    +0.085 C 
BRANCH   5   6
ATOM      6  S   UNL     1      -0.685  -3.837   5.579  0.00  0.00    -0.114 S 
BRANCH   6  12
ATOM      7  C   UNL     1       1.289  -3.760   0.096  0.00  0.00    +0.123 A 
ATOM      8  C   UNL     1       2.537  -4.158   0.734  0.00  0.00    +0.048 A 
ATOM      9  C   UNL     1       2.723  -4.046   2.063  0.00  0.00    +0.031 A 
ATOM     10  C   UNL     1       1.647  -3.508   2.908  0.00  0.00    +0.061 A 
ATOM     11  N   UNL     1       1.563  -3.298   4.191  0.00  0.00    -0.355 N 
ATOM     12  C   UNL     1       0.233  -2.741   4.462  0.00  0.00    +0.235 C 
ATOM     13  N   UNL     1      -0.452  -2.654   3.166  0.00  0.00    -0.355 N 
ATOM     14  C   UNL     1       0.373  -3.101   2.258  0.00  0.00    +0.064 A 
ATOM     15  C   UNL     1       0.253  -3.251   0.806  0.00  0.00    +0.073 A 
ATOM     16  H   UNL     1       2.255  -3.477   4.847  0.00  0.00    +0.162 HD
ATOM     17  H   UNL     1      -1.351  -2.324   3.013  0.00  0.00    +0.162 HD
BRANCH   7  18
ATOM     18  O   UNL     1       1.163  -3.898  -1.248  0.00  0.00    -0.492 OA
BRANCH  18  20
ATOM     19  C   UNL     1       1.955  -4.519  -3.445  0.00  0.00    +0.048 C 
ATOM     20  C   UNL     1       2.282  -4.439  -1.952  0.00  0.00    +0.225 C 
ENDBRANCH  18  20
ENDBRANCH   7  18
ENDBRANCH   6  12
ENDBRANCH   5   6
ENDBRANCH   1   5
BRANCH   1  21
ATOM     21  C   UNL     1      -0.759  -6.829   6.820  0.00  0.00    +0.089 C 
BRANCH  21  22
ATOM     22  S   UNL     1       0.788  -7.678   6.397  0.00  0.00    -0.087 S 
BRANCH  22  23
ATOM     23  C   UNL     1       1.513  -8.047   7.961  0.00  0.00    +0.167 A 
ATOM     24  H   UNL     1       3.286  -9.031   7.444  0.00  0.00    +0.168 HD
ATOM     25  N   UNL     1       0.990  -7.744   9.123  0.00  0.00    -0.222 NA
ATOM     26  C   UNL     1       1.810  -8.174  10.119  0.00  0.00    +0.090 A 
ATOM     27  C   UNL     1       1.739  -8.113  11.512  0.00  0.00    +0.033 A 
ATOM     28  C   UNL     1       2.752  -8.652  12.274  0.00  0.00    +0.048 A 
ATOM     29  C   UNL     1       3.846  -9.256  11.666  0.00  0.00    +0.123 A 
ATOM     30  C   UNL     1       3.930  -9.323  10.286  0.00  0.00    +0.073 A 
ATOM     31  C   UNL     1       2.917  -8.785   9.507  0.00  0.00    +0.070 A 
ATOM     32  N   UNL     1       2.701  -8.697   8.142  0.00  0.00    -0.333 N 
BRANCH  29  33
ATOM     33  O   UNL     1       4.840  -9.784  12.431  0.00  0.00    -0.492 OA
BRANCH  33  34
ATOM     34  C   UNL     1       4.691  -9.681  13.848  0.00  0.00    +0.225 C 
ATOM     35  C   UNL     1       5.897 -10.325  14.536  0.00  0.00    +0.048 C 
ENDBRANCH  33  34
ENDBRANCH  29  33
ENDBRANCH  22  23
ENDBRANCH  21  22
ENDBRANCH   1  21
TORSDOF 10
