REMARK  Name = ZINC20181170
REMARK  6 active torsions:
REMARK  status: ('A' for Active; 'I' for Inactive)
REMARK    1  A    between atoms: C_1  and  C_2
REMARK    2  A    between atoms: C_7  and  N_12
REMARK    3  A    between atoms: C_9  and  C_11
REMARK    4  A    between atoms: C_13  and  C_15
REMARK    5  A    between atoms: C_15  and  N_16
REMARK    6  A    between atoms: C_25  and  C_26
REMARK                            x       y       z     vdW  Elec       q    Type
REMARK                         _______ _______ _______ _____ _____    ______ ____
ROOT
ATOM      1  N   UNL     1       2.362   3.935   0.276  0.00  0.00    -0.257 N 
ATOM      2  C   UNL     1       3.652   3.439   0.420  0.00  0.00    +0.051 A 
ATOM      3  C   UNL     1       4.575   4.189   1.148  0.00  0.00    +0.024 A 
ATOM      4  C   UNL     1       5.865   3.732   1.321  0.00  0.00    +0.002 A 
ATOM      5  C   UNL     1       6.261   2.522   0.780  0.00  0.00    +0.001 A 
ATOM      6  C   UNL     1       5.360   1.769   0.050  0.00  0.00    +0.017 A 
ATOM      7  C   UNL     1       4.063   2.223  -0.128  0.00  0.00    +0.034 A 
ATOM      8  S   UNL     1       2.911   1.259  -1.059  0.00  0.00    -0.082 S 
ATOM      9  C   UNL     1       1.367   1.796  -0.370  0.00  0.00    +0.076 C 
ATOM     10  C   UNL     1       0.337   0.940  -0.162  0.00  0.00    +0.031 C 
ATOM     11  C   UNL     1       1.269   3.234  -0.035  0.00  0.00    +0.258 C 
ATOM     12  O   UNL     1       0.183   3.783  -0.044  0.00  0.00    -0.269 OA
ENDROOT
BRANCH  10  13
ATOM     13  C   UNL     1       0.425  -0.446  -0.645  0.00  0.00    +0.011 A 
ATOM     14  C   UNL     1       1.038  -0.726  -1.871  0.00  0.00    +0.011 A 
ATOM     15  C   UNL     1       1.117  -2.028  -2.317  0.00  0.00    +0.001 A 
ATOM     16  C   UNL     1       0.590  -3.058  -1.557  0.00  0.00    +0.003 A 
ATOM     17  C   UNL     1      -0.018  -2.792  -0.343  0.00  0.00    +0.039 A 
ATOM     18  C   UNL     1      -0.101  -1.494   0.122  0.00  0.00    +0.131 A 
ATOM     19  F   UNL     1      -0.690  -1.235   1.310  0.00  0.00    -0.205 F 
ENDBRANCH  10  13
BRANCH   1  20
ATOM     20  C   UNL     1       2.183   5.373   0.487  0.00  0.00    +0.209 C 
BRANCH  20  22
ATOM     21  N   UNL     1       1.588   6.886   2.351  0.00  0.00    -0.311 N 
ATOM     22  C   UNL     1       1.804   5.627   1.924  0.00  0.00    +0.231 C 
ATOM     23  O   UNL     1       1.695   4.697   2.695  0.00  0.00    -0.274 OA
ATOM     24  H   UNL     1       1.687   7.730   1.652  0.00  0.00    +0.149 HD
BRANCH  21  30
ATOM     25  C   UNL     1       1.651  10.233   5.990  0.00  0.00    +0.008 C 
ATOM     26  C   UNL     1       1.243   8.812   5.598  0.00  0.00    -0.009 C 
ATOM     27  C   UNL     1      -0.270   8.652   5.762  0.00  0.00    +0.003 C 
ATOM     28  C   UNL     1      -0.678   7.230   5.370  0.00  0.00    +0.002 C 
ATOM     29  C   UNL     1      -0.293   6.973   3.912  0.00  0.00    +0.022 C 
ATOM     30  C   UNL     1       1.219   7.133   3.748  0.00  0.00    +0.076 C 
ATOM     31  C   UNL     1       1.627   8.555   4.139  0.00  0.00    +0.009 C 
ATOM     32  C   UNL     1       3.140   8.714   3.975  0.00  0.00    +0.009 C 
ENDBRANCH  21  30
ENDBRANCH  20  22
ENDBRANCH   1  20
TORSDOF 4
