REMARK  Name = ZINC35034760
REMARK  14 active torsions:
REMARK  status: ('A' for Active; 'I' for Inactive)
REMARK    1  A    between atoms: C_1  and  C_2
REMARK    2  A    between atoms: C_2  and  C_4
REMARK    3  A    between atoms: C_2  and  N_22
REMARK    4  A    between atoms: N_14  and  C_15
REMARK    5  A    between atoms: C_15  and  C_16
REMARK    6  A    between atoms: N_22  and  C_23
REMARK    7  A    between atoms: C_23  and  C_24
REMARK    8  A    between atoms: C_24  and  N_25
REMARK    9  A    between atoms: N_25  and  C_26
REMARK   10  A    between atoms: N_25  and  C_27
REMARK   11  A    between atoms: C_28  and  C_30
REMARK   12  A    between atoms: C_30  and  O_31
REMARK   13  A    between atoms: O_31  and  C_32
REMARK   14  A    between atoms: C_32  and  C_33
REMARK                            x       y       z     vdW  Elec       q    Type
REMARK                         _______ _______ _______ _____ _____    ______ ____
ROOT
ATOM      1  C   UNL     1       0.076   1.689  -0.228  0.00  0.00    +0.036 C 
ATOM      2  C   UNL     1      -0.019   0.164  -0.157  0.00  0.00    +0.139 C 
ENDROOT
BRANCH   2   3
ATOM      3  C   UNL     1       0.583  -0.435  -1.402  0.00  0.00    +0.134 A 
ATOM      4  N   UNL     1       1.795  -0.098  -1.724  0.00  0.00    -0.232 NA
ATOM      5  C   UNL     1       2.402  -0.596  -2.830  0.00  0.00    +0.078 A 
ATOM      6  C   UNL     1       3.705  -0.235  -3.177  0.00  0.00    +0.028 A 
ATOM      7  C   UNL     1       4.282  -0.766  -4.308  0.00  0.00    +0.002 A 
ATOM      8  C   UNL     1       3.584  -1.658  -5.111  0.00  0.00    +0.001 A 
ATOM      9  C   UNL     1       2.297  -2.030  -4.790  0.00  0.00    +0.015 A 
ATOM     10  C   UNL     1       1.695  -1.504  -3.649  0.00  0.00    +0.065 A 
ATOM     11  C   UNL     1       0.324  -1.865  -3.256  0.00  0.00    +0.262 A 
ATOM     12  O   UNL     1      -0.339  -2.642  -3.918  0.00  0.00    -0.267 OA
ATOM     13  N   UNL     1      -0.168  -1.304  -2.127  0.00  0.00    -0.290 N 
BRANCH  13  14
ATOM     14  C   UNL     1      -1.526  -1.633  -1.686  0.00  0.00    +0.161 C 
BRANCH  14  15
ATOM     15  C   UNL     1      -2.503  -0.670  -2.309  0.00  0.00    -0.028 A 
ATOM     16  C   UNL     1      -2.926   0.440  -1.602  0.00  0.00    +0.005 A 
ATOM     17  C   UNL     1      -3.823   1.323  -2.173  0.00  0.00    +0.000 A 
ATOM     18  C   UNL     1      -4.297   1.096  -3.452  0.00  0.00    +0.000 A 
ATOM     19  C   UNL     1      -3.873  -0.013  -4.159  0.00  0.00    +0.000 A 
ATOM     20  C   UNL     1      -2.973  -0.894  -3.590  0.00  0.00    +0.005 A 
ENDBRANCH  14  15
ENDBRANCH  13  14
ENDBRANCH   2   3
BRANCH   2  21
ATOM     21  N   UNL     1       0.712  -0.317   1.018  0.00  0.00    -0.292 N 
ATOM     22  C   UNL     1       0.065  -1.010   1.977  0.00  0.00    +0.242 C 
ATOM     23  O   UNL     1      -1.122  -1.235   1.866  0.00  0.00    -0.273 OA
BRANCH  21  24
ATOM     24  C   UNL     1       2.145  -0.045   1.152  0.00  0.00    +0.090 C 
BRANCH  24  25
ATOM     25  C   UNL     1       2.346   1.281   1.887  0.00  0.00    -0.060 C 
BRANCH  25  26
ATOM     26  N   UNL     1       3.783   1.554   2.021  0.00  0.00    +0.377 N 
ATOM     27  C   UNL     1       4.370   1.755   0.690  0.00  0.00    -0.097 C 
ATOM     28  C   UNL     1       3.979   2.764   2.830  0.00  0.00    -0.097 C 
ATOM     29  H   UNL     1       4.233   0.772   2.472  0.00  0.00    -0.083 HD
ENDBRANCH  25  26
ENDBRANCH  24  25
ENDBRANCH  21  24
BRANCH  22  30
ATOM     30  C   UNL     1       0.816  -1.504   3.186  0.00  0.00    +0.256 C 
BRANCH  30  31
ATOM     31  O   UNL     1      -0.081  -2.204   4.050  0.00  0.00    -0.366 OA
BRANCH  31  32
ATOM     32  C   UNL     1       0.534  -2.718   5.233  0.00  0.00    +0.195 C 
BRANCH  32  33
ATOM     33  C   UNL     1      -0.498  -3.433   6.066  0.00  0.00    -0.022 A 
ATOM     34  C   UNL     1      -1.222  -2.738   7.016  0.00  0.00    +0.006 A 
ATOM     35  C   UNL     1      -2.169  -3.394   7.780  0.00  0.00    +0.000 A 
ATOM     36  C   UNL     1      -2.392  -4.746   7.594  0.00  0.00    +0.000 A 
ATOM     37  C   UNL     1      -1.668  -5.441   6.643  0.00  0.00    +0.000 A 
ATOM     38  C   UNL     1      -0.724  -4.784   5.877  0.00  0.00    +0.006 A 
ENDBRANCH  32  33
ENDBRANCH  31  32
ENDBRANCH  30  31
ENDBRANCH  22  30
ENDBRANCH   2  21
TORSDOF 11
