REMARK  Name = ZINC04192302
REMARK  6 active torsions:
REMARK  status: ('A' for Active; 'I' for Inactive)
REMARK    1  A    between atoms: C_1  and  C_2
REMARK    2  A    between atoms: C_7  and  N_12
REMARK    3  A    between atoms: C_9  and  C_11
REMARK    4  A    between atoms: C_13  and  C_15
REMARK    5  A    between atoms: N_25  and  C_28
REMARK    6  A    between atoms: C_28  and  C_29
REMARK                            x       y       z     vdW  Elec       q    Type
REMARK                         _______ _______ _______ _____ _____    ______ ____
ROOT
ATOM      1  C   UNL     1       2.471  -2.737  -0.038  0.00  0.00    +0.039 A 
ATOM      2  C   UNL     1       3.662  -2.005  -0.046  0.00  0.00    +0.014 A 
ATOM      3  C   UNL     1       3.631  -0.628  -0.037  0.00  0.00    +0.016 A 
ATOM      4  C   UNL     1       2.406   0.035  -0.021  0.00  0.00    +0.063 A 
ATOM      5  C   UNL     1       1.205  -0.696  -0.014  0.00  0.00    +0.054 A 
ATOM      6  C   UNL     1       1.242  -2.081  -0.022  0.00  0.00    +0.039 A 
ATOM      7  N   UNL     1       0.002  -0.004   0.002  0.00  0.00    -0.335 N 
ATOM      8  H   UNL     1      -0.860  -0.511   0.008  0.00  0.00    +0.168 HD
ATOM      9  C   UNL     1      -0.016   1.340   0.009  0.00  0.00    +0.161 A 
ATOM     10  S   UNL     1      -1.530   2.138   0.021  0.00  0.00    -0.013 S 
ATOM     11  N   UNL     1       1.102   2.083   0.003  0.00  0.00    -0.284 N 
ATOM     12  C   UNL     1       2.324   1.509  -0.012  0.00  0.00    +0.263 A 
ATOM     13  O   UNL     1       3.332   2.189  -0.018  0.00  0.00    -0.267 OA
ENDROOT
BRANCH   1  15
ATOM     14  N   UNL     1       3.703  -4.856  -0.063  0.00  0.00    -0.308 N 
ATOM     15  C   UNL     1       2.516  -4.217  -0.047  0.00  0.00    +0.244 C 
ATOM     16  O   UNL     1       1.482  -4.857  -0.041  0.00  0.00    -0.270 OA
ATOM     17  H   UNL     1       4.527  -4.345  -0.068  0.00  0.00    +0.149 HD
BRANCH  14  23
ATOM     18  C   UNL     1       7.561  -6.717   0.280  0.00  0.00    +0.008 C 
ATOM     19  C   UNL     1       6.232  -6.243  -0.314  0.00  0.00    -0.009 C 
ATOM     20  C   UNL     1       6.108  -6.749  -1.753  0.00  0.00    +0.003 C 
ATOM     21  C   UNL     1       4.779  -6.275  -2.346  0.00  0.00    +0.002 C 
ATOM     22  C   UNL     1       3.622  -6.825  -1.510  0.00  0.00    +0.022 C 
ATOM     23  C   UNL     1       3.747  -6.320  -0.072  0.00  0.00    +0.076 C 
ATOM     24  C   UNL     1       5.075  -6.793   0.522  0.00  0.00    +0.009 C 
ATOM     25  C   UNL     1       5.200  -6.288   1.961  0.00  0.00    +0.009 C 
ENDBRANCH  14  23
ENDBRANCH   1  15
BRANCH  11  26
ATOM     26  C   UNL     1       0.994   3.543   0.011  0.00  0.00    +0.154 C 
BRANCH  26  27
ATOM     27  C   UNL     1       0.970   4.037   1.435  0.00  0.00    -0.013 C 
ATOM     28  C   UNL     1       1.839   4.934   1.832  0.00  0.00    +0.005 C 
ENDBRANCH  26  27
ENDBRANCH  11  26
TORSDOF 4
