REMARK  Name = ZINC04643557
REMARK  10 active torsions:
REMARK  status: ('A' for Active; 'I' for Inactive)
REMARK    1  A    between atoms: C_1  and  C_2
REMARK    2  A    between atoms: C_2  and  O_3
REMARK    3  A    between atoms: O_3  and  C_4
REMARK    4  A    between atoms: C_6  and  C_11
REMARK    5  A    between atoms: C_9  and  O_10
REMARK    6  A    between atoms: C_14  and  C_29
REMARK    7  A    between atoms: N_21  and  C_22
REMARK    8  A    between atoms: C_22  and  C_23
REMARK    9  A    between atoms: C_32  and  C_36
REMARK   10  A    between atoms: C_34  and  O_35
REMARK                            x       y       z     vdW  Elec       q    Type
REMARK                         _______ _______ _______ _____ _____    ______ ____
ROOT
ATOM      1  C   UNL     1      -0.217  -4.963  -0.535  0.00  0.00    +0.142 C 
ATOM      2  C   UNL     1      -1.533  -5.510  -0.053  0.00  0.00    +0.035 A 
ATOM      3  C   UNL     1      -2.803  -5.252   0.352  0.00  0.00    +0.075 A 
ATOM      4  N   UNL     1      -3.376  -6.459   0.638  0.00  0.00    -0.276 N 
ATOM      5  H   UNL     1      -4.285  -6.583   0.951  0.00  0.00    +0.189 HD
ATOM      6  N   UNL     1      -2.531  -7.405   0.428  0.00  0.00    -0.168 NA
ATOM      7  C   UNL     1      -1.383  -6.914   0.006  0.00  0.00    +0.153 A 
ATOM      8  C   UNL     1      -0.012  -7.241  -0.427  0.00  0.00    +0.268 C 
ATOM      9  O   UNL     1       0.444  -8.366  -0.492  0.00  0.00    -0.268 OA
ATOM     10  N   UNL     1       0.662  -6.120  -0.740  0.00  0.00    -0.281 N 
ENDROOT
BRANCH   3  11
ATOM     11  C   UNL     1      -3.443  -3.923   0.464  0.00  0.00    +0.043 A 
ATOM     12  C   UNL     1      -3.825  -3.431   1.712  0.00  0.00    +0.034 A 
ATOM     13  C   UNL     1      -4.421  -2.190   1.810  0.00  0.00    +0.045 A 
ATOM     14  C   UNL     1      -4.641  -1.430   0.672  0.00  0.00    -0.029 A 
ATOM     15  C   UNL     1      -4.266  -1.908  -0.569  0.00  0.00    +0.050 A 
ATOM     16  C   UNL     1      -3.662  -3.150  -0.682  0.00  0.00    +0.126 A 
ATOM     17  C   UNL     1      -5.293  -0.077   0.789  0.00  0.00    +0.045 C 
ATOM     18 CL   UNL     1      -4.896  -1.578   3.363  0.00  0.00    -0.083 Cl
BRANCH  16  19
ATOM     19  O   UNL     1      -3.288  -3.618  -1.901  0.00  0.00    -0.506 OA
ATOM     20  H   UNL     1      -3.974  -4.127  -2.355  0.00  0.00    +0.292 HD
ENDBRANCH  16  19
ENDBRANCH   3  11
BRANCH   1  23
ATOM     21  C   UNL     1       0.802  -1.825   1.306  0.00  0.00    +0.162 A 
ATOM     22  C   UNL     1       0.261  -2.673   0.353  0.00  0.00    +0.055 A 
ATOM     23  C   UNL     1       0.372  -4.043   0.502  0.00  0.00    -0.019 A 
ATOM     24  C   UNL     1       1.024  -4.570   1.602  0.00  0.00    +0.009 A 
ATOM     25  C   UNL     1       1.566  -3.730   2.557  0.00  0.00    +0.049 A 
ATOM     26  C   UNL     1       1.462  -2.356   2.410  0.00  0.00    +0.158 A 
BRANCH  26  27
ATOM     27  O   UNL     1       2.000  -1.528   3.345  0.00  0.00    -0.503 OA
ATOM     28  H   UNL     1       1.395  -1.301   4.064  0.00  0.00    +0.292 HD
ENDBRANCH  26  27
BRANCH  21  29
ATOM     29  O   UNL     1       0.693  -0.477   1.160  0.00  0.00    -0.489 OA
BRANCH  29  31
ATOM     30  C   UNL     1      -0.019   1.526   0.010  0.00  0.00    +0.048 C 
ATOM     31  C   UNL     1       0.002  -0.004   0.002  0.00  0.00    +0.226 C 
ENDBRANCH  29  31
ENDBRANCH  21  29
ENDBRANCH   1  23
BRANCH  10  32
ATOM     32  C   UNL     1       2.049  -6.063  -1.209  0.00  0.00    +0.144 C 
BRANCH  32  33
ATOM     33  C   UNL     1       2.975  -5.939  -0.027  0.00  0.00    -0.030 A 
ATOM     34  C   UNL     1       3.322  -4.689   0.451  0.00  0.00    +0.005 A 
ATOM     35  C   UNL     1       4.172  -4.575   1.535  0.00  0.00    +0.000 A 
ATOM     36  C   UNL     1       4.673  -5.711   2.143  0.00  0.00    +0.000 A 
ATOM     37  C   UNL     1       4.325  -6.961   1.666  0.00  0.00    +0.000 A 
ATOM     38  C   UNL     1       3.472  -7.075   0.584  0.00  0.00    +0.005 A 
ENDBRANCH  32  33
ENDBRANCH  10  32
TORSDOF 8
