REMARK  Name = ZINC19345783
REMARK  6 active torsions:
REMARK  status: ('A' for Active; 'I' for Inactive)
REMARK    1  A    between atoms: C_6  and  C_7
REMARK    2  A    between atoms: C_7  and  N_8
REMARK    3  A    between atoms: N_11  and  C_14
REMARK    4  A    between atoms: C_14  and  C_15
REMARK    5  A    between atoms: C_15  and  C_17
REMARK    6  A    between atoms: C_15  and  O_26
REMARK                            x       y       z     vdW  Elec       q    Type
REMARK                         _______ _______ _______ _____ _____    ______ ____
ROOT
ATOM      1  N   UNL     1      -4.927   4.994   2.311  0.00  0.00    +0.384 N 
ATOM      2  C   UNL     1      -5.102   3.601   2.746  0.00  0.00    -0.063 C 
ATOM      3  C   UNL     1      -3.737   2.910   2.798  0.00  0.00    +0.066 C 
ATOM      4  N   UNL     1      -3.110   2.969   1.470  0.00  0.00    -0.303 NA
ATOM      5  C   UNL     1      -2.935   4.362   1.035  0.00  0.00    +0.066 C 
ATOM      6  C   UNL     1      -4.300   5.053   0.983  0.00  0.00    -0.063 C 
ATOM      7  H   UNL     1      -4.255   5.492   3.026  0.00  0.00    -0.081 HD
ENDROOT
BRANCH   1   8
ATOM      8  C   UNL     1      -6.207   5.714   2.321  0.00  0.00    -0.043 C 
BRANCH   8  14
ATOM      9  C   UNL     1      -5.679   8.158   2.384  0.00  0.00    +0.005 A 
ATOM     10  C   UNL     1      -5.518   9.385   1.766  0.00  0.00    +0.050 A 
ATOM     11  C   UNL     1      -5.728   9.506   0.402  0.00  0.00    +0.166 A 
ATOM     12  C   UNL     1      -6.095   8.389  -0.345  0.00  0.00    +0.166 A 
ATOM     13  C   UNL     1      -6.249   7.163   0.281  0.00  0.00    +0.051 A 
ATOM     14  C   UNL     1      -6.038   7.049   1.643  0.00  0.00    -0.060 A 
ATOM     15  O   UNL     1      -6.240   8.765  -1.649  0.00  0.00    -0.453 OA
ATOM     16  C   UNL     1      -6.357  10.200  -1.625  0.00  0.00    +0.466 C 
ATOM     17  O   UNL     1      -5.643  10.581  -0.435  0.00  0.00    -0.453 OA
ENDBRANCH   8  14
ENDBRANCH   1   8
BRANCH   4  18
ATOM     18  C   UNL     1      -1.830   2.249   1.460  0.00  0.00    +0.120 C 
BRANCH  18  19
ATOM     19  C   UNL     1      -1.330   2.117   0.020  0.00  0.00    +0.158 C 
BRANCH  19  20
ATOM     20  C   UNL     1      -0.017   1.379   0.010  0.00  0.00    -0.017 A 
ATOM     21  C   UNL     1       0.002  -0.004   0.002  0.00  0.00    +0.010 A 
ATOM     22  C   UNL     1       1.202  -0.685  -0.010  0.00  0.00    +0.046 A 
ATOM     23  C   UNL     1       2.406   0.016  -0.015  0.00  0.00    +0.124 A 
ATOM     24  C   UNL     1       2.374   1.404  -0.013  0.00  0.00    -0.002 A 
ATOM     25  C   UNL     1       1.175   2.082   0.002  0.00  0.00    +0.013 A 
ATOM     26  C   UNL     1       3.813   1.881  -0.034  0.00  0.00    +0.080 C 
ATOM     27  C   UNL     1       4.570   0.597  -0.447  0.00  0.00    +0.234 C 
ATOM     28  O   UNL     1       3.686  -0.448  -0.010  0.00  0.00    -0.491 OA
ENDBRANCH  19  20
BRANCH  19  29
ATOM     29  O   UNL     1      -2.290   1.393  -0.752  0.00  0.00    -0.386 OA
ATOM     30  H   UNL     1      -2.103   1.197  -1.819  0.00  0.00    +0.210 HD
ENDBRANCH  19  29
ENDBRANCH  18  19
ENDBRANCH   4  18
TORSDOF 6
