REMARK  Name = ZINC36750553
REMARK  11 active torsions:
REMARK  status: ('A' for Active; 'I' for Inactive)
REMARK    1  A    between atoms: C_1  and  C_2
REMARK    2  A    between atoms: C_3  and  C_35
REMARK    3  A    between atoms: C_11  and  C_13
REMARK    4  A    between atoms: C_13  and  S_14
REMARK    5  A    between atoms: S_14  and  C_15
REMARK    6  A    between atoms: C_15  and  C_17
REMARK    7  A    between atoms: C_15  and  C_18
REMARK    8  A    between atoms: N_20  and  C_21
REMARK    9  A    between atoms: C_21  and  C_22
REMARK   10  A    between atoms: C_22  and  C_24
REMARK   11  A    between atoms: C_22  and  N_30
REMARK                            x       y       z     vdW  Elec       q    Type
REMARK                         _______ _______ _______ _____ _____    ______ ____
ROOT
ATOM      1  C   UNL     1       0.478  -7.563   5.013  0.00  0.00    +0.226 C 
ATOM      2  O   UNL     1       0.426  -7.886   3.845  0.00  0.00    -0.275 OA
ATOM      3  N   UNL     1       0.778  -8.480   5.953  0.00  0.00    -0.316 N 
ATOM      4  H   UNL     1       0.820  -8.222   6.887  0.00  0.00    +0.149 HD
ENDROOT
BRANCH   1   5
ATOM      5  C   UNL     1       0.207  -6.135   5.412  0.00  0.00    +0.129 C 
ATOM      6  C   UNL     1      -1.226  -6.014   5.933  0.00  0.00    +0.029 C 
BRANCH   5   7
ATOM      7  S   UNL     1       0.421  -5.054   3.971  0.00  0.00    -0.141 S 
BRANCH   7   8
ATOM      8  C   UNL     1       0.214  -3.381   4.643  0.00  0.00    +0.144 C 
BRANCH   8  19
ATOM      9  C   UNL     1       0.745   1.772   0.389  0.00  0.00    +0.045 C 
ATOM     10  C   UNL     1       0.833   0.270   0.319  0.00  0.00    -0.026 A 
ATOM     11  C   UNL     1       1.084  -0.343  -0.850  0.00  0.00    -0.008 A 
ATOM     12  S   UNL     1       1.088  -2.072  -0.417  0.00  0.00    -0.073 S 
ATOM     13  C   UNL     1       0.752  -1.922   1.319  0.00  0.00    +0.116 A 
ATOM     14  C   UNL     1       0.652  -0.533   1.514  0.00  0.00    +0.075 A 
ATOM     15  C   UNL     1       0.382  -0.114   2.858  0.00  0.00    +0.260 A 
ATOM     16  O   UNL     1       0.273   1.069   3.127  0.00  0.00    -0.267 OA
ATOM     17  N   UNL     1       0.251  -1.049   3.817  0.00  0.00    -0.310 N 
ATOM     18  H   UNL     1       0.069  -0.772   4.729  0.00  0.00    +0.170 HD
ATOM     19  C   UNL     1       0.369  -2.372   3.535  0.00  0.00    +0.121 A 
ATOM     20  N   UNL     1       0.605  -2.785   2.319  0.00  0.00    -0.226 NA
ATOM     21  C   UNL     1       1.309   0.283  -2.202  0.00  0.00    +0.052 C 
ENDBRANCH   8  19
ENDBRANCH   7   8
ENDBRANCH   5   7
ENDBRANCH   1   5
BRANCH   3  22
ATOM     22  C   UNL     1       1.041  -9.868   5.565  0.00  0.00    +0.093 C 
BRANCH  22  23
ATOM     23  C   UNL     1       1.485 -10.666   6.793  0.00  0.00    -0.020 C 
BRANCH  23  24
ATOM     24  C   UNL     1       2.811 -10.141   7.281  0.00  0.00    -0.059 A 
ATOM     25  C   UNL     1       3.979 -10.521   6.648  0.00  0.00    +0.002 A 
ATOM     26  C   UNL     1       5.196 -10.040   7.095  0.00  0.00    +0.000 A 
ATOM     27  C   UNL     1       5.243  -9.178   8.175  0.00  0.00    +0.000 A 
ATOM     28  C   UNL     1       4.074  -8.798   8.807  0.00  0.00    +0.000 A 
ATOM     29  C   UNL     1       2.858  -9.275   8.357  0.00  0.00    +0.002 A 
ENDBRANCH  23  24
BRANCH  23  30
ATOM     30  N   UNL     1       1.621 -12.084   6.433  0.00  0.00    +0.385 N 
ATOM     31  C   UNL     1       2.038 -12.875   7.619  0.00  0.00    -0.078 C 
ATOM     32  C   UNL     1       1.596 -14.315   7.256  0.00  0.00    -0.020 C 
ATOM     33  C   UNL     1       0.258 -14.091   6.516  0.00  0.00    -0.020 C 
ATOM     34  C   UNL     1       0.312 -12.633   6.020  0.00  0.00    -0.078 C 
ATOM     35  H   UNL     1       2.294 -12.190   5.689  0.00  0.00    -0.081 HD
ENDBRANCH  23  30
ENDBRANCH  22  23
ENDBRANCH   3  22
TORSDOF 8
