REMARK  Name = ZINC01229162
REMARK  7 active torsions:
REMARK  status: ('A' for Active; 'I' for Inactive)
REMARK    1  A    between atoms: C_1  and  C_2
REMARK    2  A    between atoms: C_2  and  C_31
REMARK    3  A    between atoms: C_4  and  O_5
REMARK    4  A    between atoms: C_6  and  C_10
REMARK    5  A    between atoms: C_14  and  N_28
REMARK    6  A    between atoms: C_24  and  C_26
REMARK    7  A    between atoms: C_24  and  C_27
REMARK                            x       y       z     vdW  Elec       q    Type
REMARK                         _______ _______ _______ _____ _____    ______ ____
ROOT
ATOM      1  C   UNL     1      -0.013   1.086   0.008  0.00  0.00    +0.096 C 
ATOM      2  C   UNL     1      -0.710   1.568   1.250  0.00  0.00    +0.009 A 
ATOM      3  C   UNL     1      -0.487   0.932   2.457  0.00  0.00    +0.041 A 
ATOM      4  C   UNL     1      -1.128   1.372   3.600  0.00  0.00    +0.127 A 
ATOM      5  C   UNL     1      -1.993   2.449   3.538  0.00  0.00    +0.036 A 
ATOM      6  C   UNL     1      -2.213   3.087   2.341  0.00  0.00    +0.049 A 
ATOM      7  C   UNL     1      -1.573   2.648   1.188  0.00  0.00    +0.132 A 
ATOM      8  O   UNL     1      -1.800   3.276   0.013  0.00  0.00    -0.460 OA
ATOM      9  C   UNL     1      -1.581   2.628  -1.145  0.00  0.00    +0.114 C 
ATOM     10  C   UNL     1      -0.737   1.583  -1.220  0.00  0.00    +0.045 C 
ATOM     11  C   UNL     1      -0.497   0.921  -2.439  0.00  0.00    +0.164 C 
ATOM     12  O   UNL     1       0.261  -0.028  -2.463  0.00  0.00    -0.292 OA
ATOM     13  C   UNL     1      -1.163   1.366  -3.712  0.00  0.00    +0.086 C 
ATOM     14  C   UNL     1      -1.460   2.866  -3.617  0.00  0.00    -0.021 C 
ATOM     15  C   UNL     1      -2.316   3.113  -2.374  0.00  0.00    +0.081 C 
ATOM     16  C   UNL     1      -0.148   3.644  -3.501  0.00  0.00    +0.012 C 
ATOM     17  C   UNL     1      -2.223   3.320  -4.864  0.00  0.00    +0.012 C 
ENDROOT
BRANCH   1  22
ATOM     18  C   UNL     1       4.544   2.815   1.160  0.00  0.00    +0.012 C 
ATOM     19  C   UNL     1       4.422   1.565   0.286  0.00  0.00    -0.021 C 
ATOM     20  C   UNL     1       2.574  -0.364   1.228  0.00  0.00    +0.080 C 
ATOM     21  C   UNL     1       2.171   1.094   1.209  0.00  0.00    +0.102 C 
ATOM     22  C   UNL     1       1.424   1.612  -0.003  0.00  0.00    +0.044 C 
ATOM     23  C   UNL     1       2.385   2.475  -0.795  0.00  0.00    +0.164 C 
ATOM     24  O   UNL     1       2.050   3.559  -1.209  0.00  0.00    -0.292 OA
ATOM     25  C   UNL     1       3.777   1.938  -1.052  0.00  0.00    +0.086 C 
ATOM     26  C   UNL     1       5.815   0.982   0.034  0.00  0.00    +0.012 C 
BRANCH  21  27
ATOM     27  O   UNL     1       2.438   1.824   2.133  0.00  0.00    -0.511 OA
ATOM     28  H   UNL     1       2.094   2.744   1.942  0.00  0.00    +0.292 HD
ENDBRANCH  21  27
ENDBRANCH   1  22
BRANCH   4  29
ATOM     29  N   UNL     1      -0.887   0.690   4.892  0.00  0.00    +0.056 N 
ATOM     30  O   UNL     1      -0.125  -0.259   4.947  0.00  0.00    -0.126 OA
ATOM     31  O   UNL     1      -1.452   1.077   5.899  0.00  0.00    -0.126 OA
ENDBRANCH   4  29
TORSDOF 3
