REMARK  Name = ZINC19816198
REMARK  7 active torsions:
REMARK  status: ('A' for Active; 'I' for Inactive)
REMARK    1  A    between atoms: C_1  and  C_2
REMARK    2  A    between atoms: C_2  and  C_3
REMARK    3  A    between atoms: C_3  and  N_4
REMARK    4  A    between atoms: C_7  and  C_8
REMARK    5  A    between atoms: C_18  and  C_26
REMARK    6  A    between atoms: C_20  and  C_24
REMARK    7  A    between atoms: C_21  and  N_23
REMARK                            x       y       z     vdW  Elec       q    Type
REMARK                         _______ _______ _______ _____ _____    ______ ____
ROOT
ATOM      1  N   UNL     1       0.228  -0.203   0.412  0.00  0.00    -0.294 NA
ATOM      2  C   UNL     1       0.068   1.259   0.321  0.00  0.00    +0.123 C 
ATOM      3  C   UNL     1       1.451   1.844   0.121  0.00  0.00    +0.010 C 
ATOM      4  C   UNL     1       1.831   2.968   0.754  0.00  0.00    +0.016 C 
ATOM      5  C   UNL     1       2.367   1.133  -0.795  0.00  0.00    +0.136 C 
ATOM      6  C   UNL     1       2.045  -0.083  -1.239  0.00  0.00    -0.001 C 
ATOM      7  C   UNL     1       0.750  -0.746  -0.843  0.00  0.00    +0.120 C 
ATOM      8  C   UNL     1       2.978  -0.831  -2.160  0.00  0.00    +0.095 C 
ATOM      9  C   UNL     1       4.357  -0.238  -2.103  0.00  0.00    +0.098 C 
ATOM     10  C   UNL     1       4.556   1.009  -1.607  0.00  0.00    +0.199 C 
ATOM     11  O   UNL     1       3.524   1.742  -1.153  0.00  0.00    -0.441 OA
ENDROOT
BRANCH   4  12
ATOM     12  C   UNL     1       0.848   3.746   1.527  0.00  0.00    -0.025 A 
ATOM     13  C   UNL     1      -0.487   3.795   1.117  0.00  0.00    +0.009 A 
ATOM     14  C   UNL     1      -1.403   4.521   1.849  0.00  0.00    +0.020 A 
ATOM     15  C   UNL     1      -1.000   5.209   2.982  0.00  0.00    +0.041 A 
ATOM     16  C   UNL     1       0.323   5.169   3.390  0.00  0.00    +0.020 A 
ATOM     17  C   UNL     1       1.248   4.442   2.671  0.00  0.00    +0.009 A 
ATOM     18 CL   UNL     1      -2.159   6.126   3.893  0.00  0.00    -0.084 Cl
ENDBRANCH   4  12
BRANCH   8  19
ATOM     19  C   UNL     1       2.458  -0.749  -3.572  0.00  0.00    -0.035 A 
ATOM     20  C   UNL     1       2.296   0.483  -4.178  0.00  0.00    +0.006 A 
ATOM     21  C   UNL     1       1.825   0.559  -5.475  0.00  0.00    +0.020 A 
ATOM     22  C   UNL     1       1.504  -0.597  -6.163  0.00  0.00    +0.041 A 
ATOM     23  C   UNL     1       1.661  -1.830  -5.554  0.00  0.00    +0.020 A 
ATOM     24  C   UNL     1       2.138  -1.905  -4.259  0.00  0.00    +0.006 A 
ATOM     25 CL   UNL     1       0.905  -0.503  -7.789  0.00  0.00    -0.084 Cl
ENDBRANCH   8  19
BRANCH  10  26
ATOM     26  N   UNL     1       5.825   1.529  -1.568  0.00  0.00    -0.328 N 
ATOM     27  H   UNL     1       5.994   2.539  -1.167  0.00  0.00    +0.145 HD
ATOM     28  H   UNL     1       6.675   0.935  -1.937  0.00  0.00    +0.145 HD
ENDBRANCH  10  26
BRANCH   9  29
ATOM     29  C   UNL     1       5.475  -0.997  -2.578  0.00  0.00    +0.101 C 
ATOM     30  N   UNL     1       6.362  -1.600  -2.954  0.00  0.00    -0.191 NA
ENDBRANCH   9  29
BRANCH   1  31
ATOM     31  C   UNL     1      -1.039  -0.850   0.778  0.00  0.00    +0.085 C 
BRANCH  31  33
ATOM     32  C   UNL     1      -3.372  -1.338   0.029  0.00  0.00    +0.005 C 
ATOM     33  C   UNL     1      -2.052  -0.665  -0.353  0.00  0.00    +0.012 C 
ENDBRANCH  31  33
ENDBRANCH   1  31
TORSDOF 6
