REMARK  Name = ZINC08960129
REMARK  12 active torsions:
REMARK  status: ('A' for Active; 'I' for Inactive)
REMARK    1  A    between atoms: C_1  and  C_2
REMARK    2  A    between atoms: C_2  and  O_3
REMARK    3  A    between atoms: O_3  and  C_4
REMARK    4  A    between atoms: C_11  and  C_13
REMARK    5  A    between atoms: N_15  and  C_16
REMARK    6  A    between atoms: C_17  and  C_27
REMARK    7  A    between atoms: C_24  and  C_25
REMARK    8  A    between atoms: C_24  and  C_26
REMARK    9  A    between atoms: C_24  and  N_60
REMARK   10  A    between atoms: C_27  and  O_29
REMARK   11  A    between atoms: O_29  and  C_30
REMARK   12  A    between atoms: C_30  and  C_31
REMARK                            x       y       z     vdW  Elec       q    Type
REMARK                         _______ _______ _______ _____ _____    ______ ____
ROOT
ATOM      1  C   UNL     1       1.872   2.330   1.185  0.00  0.00    +0.087 A 
ATOM      2  C   UNL     1       1.243   1.962   0.001  0.00  0.00    +0.091 A 
ATOM      3  C   UNL     1       1.879   2.354  -1.243  0.00  0.00    -0.025 A 
ATOM      4  C   UNL     1       3.036   3.041  -1.109  0.00  0.00    -0.021 A 
ATOM      5  S   UNL     1       3.285   3.171   0.637  0.00  0.00    -0.079 S 
ATOM      6  C   UNL     1       3.894   3.562  -2.220  0.00  0.00    -0.035 C 
ATOM      7  C   UNL     1       2.016   2.977  -3.634  0.00  0.00    -0.073 C 
ATOM      8  C   UNL     1       1.329   2.045  -2.631  0.00  0.00    +0.018 C 
ATOM      9  N   UNL     1       3.481   2.879  -3.470  0.00  0.00    +0.384 N 
ATOM     10  H   UNL     1       3.746   1.889  -3.414  0.00  0.00    -0.081 HD
ENDROOT
BRANCH   1  13
ATOM     11  C   UNL     1       2.216   2.522   3.518  0.00  0.00    +0.284 C 
ATOM     12  O   UNL     1       3.245   3.136   3.306  0.00  0.00    -0.266 OA
ATOM     13  N   UNL     1       1.469   2.082   2.486  0.00  0.00    -0.273 N 
ATOM     14  H   UNL     1       0.649   1.593   2.655  0.00  0.00    +0.156 HD
BRANCH  11  22
ATOM     15  C   UNL     1      -0.390   0.951   7.443  0.00  0.00    +0.163 A 
ATOM     16  C   UNL     1      -0.226   1.042   8.813  0.00  0.00    +0.049 A 
ATOM     17  C   UNL     1       0.874   1.694   9.352  0.00  0.00    +0.004 A 
ATOM     18  C   UNL     1       1.815   2.257   8.537  0.00  0.00    +0.012 A 
ATOM     19  C   UNL     1       1.669   2.178   7.149  0.00  0.00    +0.025 A 
ATOM     20  C   UNL     1       0.558   1.519   6.593  0.00  0.00    +0.177 A 
ATOM     21  O   UNL     1       0.667   1.597   5.252  0.00  0.00    -0.447 OA
ATOM     22  C   UNL     1       1.788   2.260   4.899  0.00  0.00    +0.191 A 
ATOM     23  C   UNL     1       2.458   2.653   6.013  0.00  0.00    +0.063 A 
BRANCH  15  24
ATOM     24  O   UNL     1      -1.472   0.309   6.926  0.00  0.00    -0.489 OA
BRANCH  24  26
ATOM     25  C   UNL     1      -3.543  -0.925   7.096  0.00  0.00    +0.048 C 
ATOM     26  C   UNL     1      -2.401  -0.248   7.858  0.00  0.00    +0.226 C 
ENDBRANCH  24  26
ENDBRANCH  15  24
ENDBRANCH  11  22
ENDBRANCH   1  13
BRANCH   9  27
ATOM     27  C   UNL     1       4.162   3.494  -4.630  0.00  0.00    -0.074 C 
ATOM     28  C   UNL     1       5.669   3.515  -4.372  0.00  0.00    -0.014 C 
ATOM     29  C   UNL     1       3.869   2.656  -5.877  0.00  0.00    -0.014 C 
ENDBRANCH   9  27
BRANCH   2  30
ATOM     30  C   UNL     1      -0.014   1.212   0.009  0.00  0.00    +0.342 C 
ATOM     31  O   UNL     1       0.002  -0.004   0.002  0.00  0.00    -0.245 OA
BRANCH  30  32
ATOM     32  O   UNL     1      -1.192   1.871   0.018  0.00  0.00    -0.461 OA
BRANCH  32  33
ATOM     33  C   UNL     1      -2.398   1.063   0.019  0.00  0.00    +0.229 C 
ATOM     34  C   UNL     1      -3.624   1.979   0.030  0.00  0.00    +0.048 C 
ENDBRANCH  32  33
ENDBRANCH  30  32
ENDBRANCH   2  30
TORSDOF 8
