REMARK  Name = ZINC13113107
REMARK  11 active torsions:
REMARK  status: ('A' for Active; 'I' for Inactive)
REMARK    1  A    between atoms: C_1  and  C_2
REMARK    2  A    between atoms: C_2  and  C_4
REMARK    3  A    between atoms: C_2  and  N_14
REMARK    4  A    between atoms: C_7  and  S_10
REMARK    5  A    between atoms: S_10  and  N_13
REMARK    6  A    between atoms: N_14  and  C_15
REMARK    7  A    between atoms: C_15  and  C_16
REMARK    8  A    between atoms: N_18  and  C_19
REMARK    9  A    between atoms: C_19  and  C_21
REMARK   10  A    between atoms: C_19  and  C_22
REMARK   11  A    between atoms: C_25  and  C_28
REMARK                            x       y       z     vdW  Elec       q    Type
REMARK                         _______ _______ _______ _____ _____    ______ ____
ROOT
ATOM      1  C   UNL     1      -3.336  -1.100  -1.298  0.00  0.00    +0.227 C 
ATOM      2  O   UNL     1      -3.836  -1.393  -0.233  0.00  0.00    -0.274 OA
ATOM      3  N   UNL     1      -4.043  -1.244  -2.437  0.00  0.00    -0.308 N 
ATOM      4  H   UNL     1      -3.643  -1.010  -3.289  0.00  0.00    +0.149 HD
ENDROOT
BRANCH   3   5
ATOM      5  C   UNL     1      -5.415  -1.754  -2.388  0.00  0.00    +0.100 C 
ATOM      6  C   UNL     1      -6.379  -0.600  -2.108  0.00  0.00    +0.033 C 
BRANCH   5   7
ATOM      7  C   UNL     1      -5.763  -2.390  -3.709  0.00  0.00    -0.027 A 
ATOM      8  C   UNL     1      -5.340  -1.803  -4.888  0.00  0.00    +0.006 A 
ATOM      9  C   UNL     1      -5.655  -2.381  -6.101  0.00  0.00    +0.009 A 
ATOM     10  C   UNL     1      -6.401  -3.558  -6.137  0.00  0.00    -0.018 A 
ATOM     11  C   UNL     1      -6.824  -4.144  -4.946  0.00  0.00    +0.009 A 
ATOM     12  C   UNL     1      -6.498  -3.561  -3.738  0.00  0.00    +0.006 A 
BRANCH  10  13
ATOM     13  C   UNL     1      -6.743  -4.183  -7.438  0.00  0.00    -0.018 A 
ATOM     14  C   UNL     1      -6.316  -3.599  -8.629  0.00  0.00    +0.008 A 
ATOM     15  C   UNL     1      -6.636  -4.186  -9.836  0.00  0.00    +0.001 A 
ATOM     16  C   UNL     1      -7.382  -5.351  -9.866  0.00  0.00    +0.000 A 
ATOM     17  C   UNL     1      -7.809  -5.934  -8.687  0.00  0.00    +0.001 A 
ATOM     18  C   UNL     1      -7.489  -5.360  -7.473  0.00  0.00    +0.008 A 
ENDBRANCH  10  13
ENDBRANCH   5   7
ENDBRANCH   3   5
BRANCH   1  19
ATOM     19  C   UNL     1      -1.924  -0.575  -1.349  0.00  0.00    +0.178 C 
BRANCH  19  20
ATOM     20  N   UNL     1      -1.376  -0.512   0.012  0.00  0.00    -0.302 NA
ATOM     21  H   UNL     1      -1.426  -1.413   0.464  0.00  0.00    +0.123 HD
BRANCH  20  23
ATOM     22  C   UNL     1      -0.019   1.526   0.010  0.00  0.00    +0.029 C 
ATOM     23  C   UNL     1       0.002  -0.004   0.002  0.00  0.00    +0.081 C 
BRANCH  23  24
ATOM     24  C   UNL     1       0.731  -0.503   1.223  0.00  0.00    -0.031 A 
ATOM     25  C   UNL     1       0.081  -0.558   2.442  0.00  0.00    +0.007 A 
ATOM     26  C   UNL     1       0.749  -1.016   3.562  0.00  0.00    +0.029 A 
ATOM     27  C   UNL     1       2.068  -1.420   3.463  0.00  0.00    +0.105 A 
ATOM     28  C   UNL     1       2.718  -1.365   2.244  0.00  0.00    +0.029 A 
ATOM     29  C   UNL     1       2.048  -0.911   1.123  0.00  0.00    +0.007 A 
BRANCH  27  30
ATOM     30  S   UNL     1       2.921  -2.002   4.890  0.00  0.00    +0.056 S 
ATOM     31  O   UNL     1       4.306  -1.804   4.645  0.00  0.00    -0.153 OA
ATOM     32  O   UNL     1       2.259  -1.441   6.016  0.00  0.00    -0.153 OA
BRANCH  30  33
ATOM     33  N   UNL     1       2.683  -3.639   4.969  0.00  0.00    -0.204 NA
ATOM     34  H   UNL     1       2.150  -4.085   4.292  0.00  0.00    +0.144 HD
ATOM     35  H   UNL     1       3.076  -4.152   5.692  0.00  0.00    +0.144 HD
ENDBRANCH  30  33
ENDBRANCH  27  30
ENDBRANCH  23  24
ENDBRANCH  20  23
ENDBRANCH  19  20
ENDBRANCH   1  19
TORSDOF 9
