REMARK  Name = ZINC65322128
REMARK  6 active torsions:
REMARK  status: ('A' for Active; 'I' for Inactive)
REMARK    1  A    between atoms: C_1  and  C_2
REMARK    2  A    between atoms: C_4  and  C_12
REMARK    3  A    between atoms: C_18  and  C_20
REMARK    4  A    between atoms: C_20  and  S_21
REMARK    5  A    between atoms: S_21  and  C_22
REMARK    6  A    between atoms: C_26  and  C_28
REMARK                            x       y       z     vdW  Elec       q    Type
REMARK                         _______ _______ _______ _____ _____    ______ ____
ROOT
ATOM      1  C   UNL     1      -2.428  -0.332  -0.918  0.00  0.00    +0.079 A 
ATOM      2  C   UNL     1      -3.655  -0.973  -0.806  0.00  0.00    +0.076 A 
ATOM      3  S   UNL     1      -4.489  -0.400  -2.151  0.00  0.00    -0.060 S 
ATOM      4  C   UNL     1      -3.216   0.656  -2.818  0.00  0.00    +0.165 A 
ATOM      5  N   UNL     1      -2.238   0.496  -1.953  0.00  0.00    -0.225 NA
ATOM      6  N   UNL     1      -3.251   1.448  -3.956  0.00  0.00    -0.264 N 
ATOM      7  C   UNL     1      -4.361   1.483  -4.720  0.00  0.00    +0.229 C 
ATOM      8  O   UNL     1      -5.330   0.822  -4.412  0.00  0.00    -0.275 OA
ATOM      9  H   UNL     1      -2.476   1.978  -4.202  0.00  0.00    +0.157 HD
ENDROOT
BRANCH   1  12
ATOM     10  C   UNL     1      -1.552  -2.958   0.649  0.00  0.00    +0.035 C 
ATOM     11  C   UNL     1      -1.424  -1.530   1.184  0.00  0.00    +0.109 C 
ATOM     12  C   UNL     1      -1.411  -0.544   0.036  0.00  0.00    +0.009 C 
ATOM     13  C   UNL     1      -0.185   0.110   0.119  0.00  0.00    +0.005 A 
ATOM     14  C   UNL     1       0.408   1.127  -0.663  0.00  0.00    +0.010 A 
ATOM     15  C   UNL     1       1.645   1.586  -0.344  0.00  0.00    +0.001 A 
ATOM     16  C   UNL     1       2.356   1.077   0.745  0.00  0.00    +0.002 A 
ATOM     17  C   UNL     1       1.849   0.102   1.538  0.00  0.00    +0.026 A 
ATOM     18  C   UNL     1       0.561  -0.429   1.268  0.00  0.00    +0.043 A 
ATOM     19  N   UNL     1      -0.144  -1.364   1.878  0.00  0.00    -0.377 N 
ATOM     20  H   UNL     1       0.140  -1.862   2.660  0.00  0.00    +0.160 HD
ENDBRANCH   1  12
BRANCH   7  21
ATOM     21  C   UNL     1      -4.398   2.344  -5.956  0.00  0.00    +0.173 C 
BRANCH  21  22
ATOM     22  S   UNL     1      -6.015   2.176  -6.761  0.00  0.00    -0.079 S 
BRANCH  22  23
ATOM     23  C   UNL     1      -5.901   3.228  -8.170  0.00  0.00    +0.167 A 
ATOM     24  H   UNL     1      -7.767   3.030  -9.091  0.00  0.00    +0.168 HD
ATOM     25  N   UNL     1      -4.852   3.942  -8.510  0.00  0.00    -0.230 NA
ATOM     26  C   UNL     1      -5.115   4.621  -9.634  0.00  0.00    +0.139 A 
ATOM     27  C   UNL     1      -6.383   4.325 -10.021  0.00  0.00    +0.067 A 
ATOM     28  N   UNL     1      -6.884   3.432  -9.090  0.00  0.00    -0.333 N 
BRANCH  27  29
ATOM     29  C   UNL     1      -7.089   4.851 -11.209  0.00  0.00    -0.000 A 
ATOM     30  C   UNL     1      -8.402   4.457 -11.475  0.00  0.00    +0.010 A 
ATOM     31  C   UNL     1      -9.054   4.952 -12.585  0.00  0.00    +0.001 A 
ATOM     32  C   UNL     1      -8.411   5.837 -13.433  0.00  0.00    +0.000 A 
ATOM     33  C   UNL     1      -7.110   6.230 -13.175  0.00  0.00    +0.001 A 
ATOM     34  C   UNL     1      -6.447   5.747 -12.066  0.00  0.00    +0.010 A 
ENDBRANCH  27  29
ENDBRANCH  22  23
ENDBRANCH  21  22
ENDBRANCH   7  21
TORSDOF 5
