REMARK  Name = ZINC41098688
REMARK  5 active torsions:
REMARK  status: ('A' for Active; 'I' for Inactive)
REMARK    1  A    between atoms: C_5  and  C_11
REMARK    2  A    between atoms: C_11  and  S_12
REMARK    3  A    between atoms: S_12  and  C_13
REMARK    4  A    between atoms: C_16  and  C_19
REMARK    5  A    between atoms: N_17  and  N_18
REMARK                            x       y       z     vdW  Elec       q    Type
REMARK                         _______ _______ _______ _____ _____    ______ ____
ROOT
ATOM      1  C   UNL     1       8.316   0.768   1.466  0.00  0.00    +0.209 A 
ATOM      2  N   UNL     1       8.980   0.792   0.334  0.00  0.00    -0.121 NA
ATOM      3  N   UNL     1      10.244   0.810   0.570  0.00  0.00    -0.132 NA
ATOM      4  C   UNL     1      10.459   0.799   1.855  0.00  0.00    +0.154 A 
ATOM      5  N   UNL     1       9.239   0.778   2.472  0.00  0.00    -0.228 N 
ENDROOT
BRANCH   4   6
ATOM      6  C   UNL     1      11.803   0.814   2.535  0.00  0.00    +0.059 C 
ATOM      7  C   UNL     1      12.563   2.080   2.136  0.00  0.00    +0.011 C 
ATOM      8  C   UNL     1      13.928   2.095   2.827  0.00  0.00    +0.001 C 
ATOM      9  C   UNL     1      14.730   0.864   2.399  0.00  0.00    +0.000 C 
ATOM     10  C   UNL     1      13.970  -0.403   2.798  0.00  0.00    +0.001 C 
ATOM     11  C   UNL     1      12.605  -0.418   2.107  0.00  0.00    +0.011 C 
ENDBRANCH   4   6
BRANCH   5  12
ATOM     12  N   UNL     1       8.994   0.766   3.816  0.00  0.00    -0.295 N 
ATOM     13  H   UNL     1       8.946  -0.179   4.166  0.00  0.00    +0.163 HD
ATOM     14  H   UNL     1       9.689   1.302   4.315  0.00  0.00    +0.163 HD
ENDBRANCH   5  12
BRANCH   1  15
ATOM     15  S   UNL     1       6.564   0.737   1.652  0.00  0.00    -0.078 S 
BRANCH  15  16
ATOM     16  C   UNL     1       5.942   0.736  -0.052  0.00  0.00    +0.134 C 
BRANCH  16  21
ATOM     17  C   UNL     1      -0.017   1.401   0.010  0.00  0.00    +0.025 A 
ATOM     18  C   UNL     1       1.155   2.091   0.002  0.00  0.00    +0.048 A 
ATOM     19  C   UNL     1       2.373   1.383  -0.013  0.00  0.00    +0.138 A 
ATOM     20  N   UNL     1       3.638   1.781  -0.024  0.00  0.00    -0.232 NA
ATOM     21  C   UNL     1       4.435   0.711  -0.037  0.00  0.00    +0.070 A 
ATOM     22  C   UNL     1       3.666  -0.400  -0.036  0.00  0.00    +0.116 A 
ATOM     23  N   UNL     1       2.361   0.012  -0.020  0.00  0.00    -0.305 N 
ATOM     24  C   UNL     1       1.177  -0.669  -0.013  0.00  0.00    +0.112 A 
ATOM     25  C   UNL     1       0.002  -0.004   0.002  0.00  0.00    +0.058 A 
ATOM     26 CL   UNL     1      -1.492  -0.889   0.012  0.00  0.00    -0.082 Cl
ENDBRANCH  16  21
ENDBRANCH  15  16
ENDBRANCH   1  15
TORSDOF 5
