REMARK  Name = ZINC36660320
REMARK  13 active torsions:
REMARK  status: ('A' for Active; 'I' for Inactive)
REMARK    1  A    between atoms: C_1  and  C_2
REMARK    2  A    between atoms: C_2  and  N_3
REMARK    3  A    between atoms: N_3  and  C_4
REMARK    4  A    between atoms: N_3  and  C_6
REMARK    5  A    between atoms: C_4  and  C_5
REMARK    6  A    between atoms: C_6  and  C_7
REMARK    7  A    between atoms: C_7  and  N_8
REMARK    8  A    between atoms: C_12  and  C_19
REMARK    9  A    between atoms: C_13  and  C_18
REMARK   10  A    between atoms: C_20  and  C_22
REMARK   11  A    between atoms: N_27  and  S_28
REMARK   12  A    between atoms: S_28  and  C_31
REMARK   13  A    between atoms: C_34  and  C_37
REMARK                            x       y       z     vdW  Elec       q    Type
REMARK                         _______ _______ _______ _____ _____    ______ ____
ROOT
ATOM      1  N   UNL     1      -1.911  -3.073  -0.902  0.00  0.00    -0.251 N 
ATOM      2  C   UNL     1      -2.253  -4.066   0.001  0.00  0.00    +0.168 A 
ATOM      3  N   UNL     1      -2.538  -5.326  -0.230  0.00  0.00    -0.224 NA
ATOM      4  C   UNL     1      -2.858  -6.191   0.757  0.00  0.00    +0.083 A 
ATOM      5  C   UNL     1      -3.183  -7.562   0.645  0.00  0.00    -0.021 A 
ATOM      6  C   UNL     1      -3.486  -8.303   1.757  0.00  0.00    -0.045 A 
ATOM      7  C   UNL     1      -3.486  -7.740   3.026  0.00  0.00    +0.005 A 
ATOM      8  C   UNL     1      -3.173  -6.402   3.172  0.00  0.00    +0.017 A 
ATOM      9  C   UNL     1      -2.867  -5.652   2.064  0.00  0.00    +0.041 A 
ATOM     10  S   UNL     1      -2.412  -3.958   1.778  0.00  0.00    -0.052 S 
ATOM     11  C   UNL     1      -3.829  -9.762   1.599  0.00  0.00    +0.044 C 
ATOM     12  C   UNL     1      -3.197  -8.217  -0.713  0.00  0.00    +0.046 C 
ATOM     13  C   UNL     1      -1.843  -3.354  -2.219  0.00  0.00    +0.240 C 
ATOM     14  O   UNL     1      -2.167  -4.450  -2.623  0.00  0.00    -0.273 OA
ENDROOT
BRANCH  13  15
ATOM     15  C   UNL     1      -1.364  -2.305  -3.189  0.00  0.00    +0.166 C 
ATOM     16  C   UNL     1      -2.564  -1.487  -3.713  0.00  0.00    +0.031 C 
ATOM     17  C   UNL     1      -2.206  -1.261  -5.205  0.00  0.00    +0.019 C 
ATOM     18  C   UNL     1      -1.499  -2.592  -5.561  0.00  0.00    +0.110 C 
ATOM     19  N   UNL     1      -0.732  -2.949  -4.350  0.00  0.00    -0.165 NA
BRANCH  19  20
ATOM     20  S   UNL     1       0.615  -3.911  -4.304  0.00  0.00    +0.062 S 
ATOM     21  O   UNL     1       1.264  -3.762  -5.559  0.00  0.00    -0.153 OA
ATOM     22  O   UNL     1       1.268  -3.638  -3.071  0.00  0.00    -0.153 OA
BRANCH  20  23
ATOM     23  C   UNL     1       0.059  -5.581  -4.220  0.00  0.00    +0.106 A 
ATOM     24  C   UNL     1      -0.051  -6.212  -2.995  0.00  0.00    +0.029 A 
ATOM     25  C   UNL     1      -0.487  -7.522  -2.929  0.00  0.00    +0.005 A 
ATOM     26  C   UNL     1      -0.814  -8.201  -4.088  0.00  0.00    -0.050 A 
ATOM     27  C   UNL     1      -0.704  -7.570  -5.313  0.00  0.00    +0.005 A 
ATOM     28  C   UNL     1      -0.272  -6.258  -5.378  0.00  0.00    +0.029 A 
ATOM     29  C   UNL     1      -1.288  -9.630  -4.017  0.00  0.00    +0.044 C 
ENDBRANCH  20  23
ENDBRANCH  19  20
ENDBRANCH  13  15
BRANCH   1  30
ATOM     30  C   UNL     1      -1.623  -1.718  -0.427  0.00  0.00    +0.097 C 
BRANCH  30  31
ATOM     31  C   UNL     1      -0.126  -1.586  -0.138  0.00  0.00    -0.059 C 
BRANCH  31  32
ATOM     32  N   UNL     1       0.163  -0.227   0.339  0.00  0.00    +0.380 N 
ATOM     33  H   UNL     1      -0.177   0.445  -0.332  0.00  0.00    -0.082 HD
BRANCH  32  35
ATOM     34  C   UNL     1      -0.338   1.453   2.049  0.00  0.00    -0.017 C 
ATOM     35  C   UNL     1      -0.503  -0.009   1.630  0.00  0.00    -0.082 C 
ENDBRANCH  32  35
BRANCH  32  36
ATOM     36  C   UNL     1       1.614  -0.064   0.503  0.00  0.00    -0.082 C 
ATOM     37  C   UNL     1       2.293  -0.136  -0.867  0.00  0.00    -0.017 C 
ENDBRANCH  32  36
ENDBRANCH  31  32
ENDBRANCH  30  31
ENDBRANCH   1  30
TORSDOF 8
