REMARK  Name = ZINC11972090
REMARK  9 active torsions:
REMARK  status: ('A' for Active; 'I' for Inactive)
REMARK    1  A    between atoms: C_1  and  C_2
REMARK    2  A    between atoms: C_2  and  C_18
REMARK    3  A    between atoms: N_5  and  C_9
REMARK    4  A    between atoms: C_23  and  C_24
REMARK    5  A    between atoms: C_23  and  N_67
REMARK    6  A    between atoms: C_28  and  O_32
REMARK    7  A    between atoms: C_29  and  O_30
REMARK    8  A    between atoms: O_30  and  C_31
REMARK    9  A    between atoms: O_32  and  C_33
REMARK                            x       y       z     vdW  Elec       q    Type
REMARK                         _______ _______ _______ _____ _____    ______ ____
ROOT
ATOM      1  C   UNL     1       1.992   1.650  -1.264  0.00  0.00    +0.042 C 
ATOM      2  C   UNL     1       1.158   1.862   0.001  0.00  0.00    +0.112 C 
ATOM      3  C   UNL     1       0.545   3.248   0.013  0.00  0.00    +0.247 C 
ATOM      4  O   UNL     1       1.132   4.309   0.014  0.00  0.00    -0.273 OA
ATOM      5  N   UNL     1      -0.789   3.056   0.025  0.00  0.00    -0.221 N 
ATOM      6  C   UNL     1      -1.101   1.755   0.016  0.00  0.00    +0.310 C 
ATOM      7  O   UNL     1      -2.240   1.333   0.019  0.00  0.00    -0.252 OA
ATOM      8  N   UNL     1      -0.011   0.966   0.007  0.00  0.00    -0.285 N 
ATOM      9  H   UNL     1       0.002  -0.004   0.002  0.00  0.00    +0.151 HD
ENDROOT
BRANCH   5  10
ATOM     10  C   UNL     1      -1.776   4.138   0.038  0.00  0.00    +0.094 C 
ATOM     11  C   UNL     1      -2.733   3.994   1.241  0.00  0.00    +0.058 C 
ATOM     12  C   UNL     1      -4.080   4.468   0.731  0.00  0.00    -0.042 A 
ATOM     13  C   UNL     1      -5.215   4.854   1.424  0.00  0.00    +0.004 A 
ATOM     14  C   UNL     1      -6.345   5.258   0.739  0.00  0.00    +0.000 A 
ATOM     15  C   UNL     1      -6.343   5.277  -0.644  0.00  0.00    +0.000 A 
ATOM     16  C   UNL     1      -5.212   4.892  -1.337  0.00  0.00    +0.004 A 
ATOM     17  C   UNL     1      -4.079   4.487  -0.651  0.00  0.00    -0.042 A 
ATOM     18  C   UNL     1      -2.733   4.024  -1.168  0.00  0.00    +0.058 C 
ENDBRANCH   5  10
BRANCH   2  19
ATOM     19  C   UNL     1       2.013   1.641   1.250  0.00  0.00    +0.018 C 
ATOM     20  C   UNL     1       3.132   2.684   1.296  0.00  0.00    -0.013 C 
ATOM     21  C   UNL     1       4.020   2.420   2.515  0.00  0.00    -0.078 C 
ATOM     22  C   UNL     1       3.534   0.048   2.426  0.00  0.00    -0.078 C 
ATOM     23  C   UNL     1       2.632   0.241   1.205  0.00  0.00    -0.013 C 
ATOM     24  N   UNL     1       4.604   1.067   2.398  0.00  0.00    +0.382 N 
ATOM     25  H   UNL     1       5.108   0.998   1.506  0.00  0.00    -0.081 HD
BRANCH  24  26
ATOM     26  C   UNL     1       5.555   0.832   3.505  0.00  0.00    -0.039 C 
BRANCH  26  27
ATOM     27  C   UNL     1       6.744   1.740   3.325  0.00  0.00    -0.019 A 
ATOM     28  C   UNL     1       7.907   1.253   2.758  0.00  0.00    +0.005 A 
ATOM     29  C   UNL     1       8.999   2.084   2.592  0.00  0.00    +0.004 A 
ATOM     30  C   UNL     1       8.933   3.406   2.992  0.00  0.00    +0.049 A 
ATOM     31  C   UNL     1       7.771   3.900   3.560  0.00  0.00    +0.162 A 
ATOM     32  C   UNL     1       6.669   3.065   3.723  0.00  0.00    +0.163 A 
BRANCH  32  33
ATOM     33  O   UNL     1       5.524   3.547   4.276  0.00  0.00    -0.491 OA
ATOM     34  C   UNL     1       5.400   3.454   5.697  0.00  0.00    +0.277 C 
ENDBRANCH  32  33
BRANCH  31  35
ATOM     35  O   UNL     1       7.704   5.201   3.954  0.00  0.00    -0.491 OA
ATOM     36  C   UNL     1       8.870   6.000   3.751  0.00  0.00    +0.277 C 
ENDBRANCH  31  35
ENDBRANCH  26  27
ENDBRANCH  24  26
ENDBRANCH   2  19
TORSDOF 6
