REMARK  Name = ZINC08636207
REMARK  10 active torsions:
REMARK  status: ('A' for Active; 'I' for Inactive)
REMARK    1  A    between atoms: C_1  and  N_61
REMARK    2  A    between atoms: C_2  and  C_3
REMARK    3  A    between atoms: C_2  and  N_61
REMARK    4  A    between atoms: C_3  and  C_4
REMARK    5  A    between atoms: C_10  and  C_11
REMARK    6  A    between atoms: C_10  and  N_61
REMARK    7  A    between atoms: C_19  and  C_21
REMARK    8  A    between atoms: C_21  and  N_22
REMARK    9  A    between atoms: N_22  and  S_23
REMARK   10  A    between atoms: S_23  and  C_26
REMARK                            x       y       z     vdW  Elec       q    Type
REMARK                         _______ _______ _______ _____ _____    ______ ____
ROOT
ATOM      1  C   UNL     1       2.139   1.594   1.164  0.00  0.00    -0.041 C 
ATOM      2  C   UNL     1       2.433   0.093   1.087  0.00  0.00    -0.077 C 
ATOM      3  C   UNL     1       4.500   0.379   2.318  0.00  0.00    -0.078 C 
ATOM      4  C   UNL     1       4.264   1.888   2.430  0.00  0.00    -0.015 C 
ATOM      5  C   UNL     1       3.469   2.357   1.206  0.00  0.00    -0.015 C 
ATOM      6  C   UNL     1       4.269   2.016  -0.058  0.00  0.00    -0.011 C 
ATOM      7  C   UNL     1       4.504   0.504  -0.101  0.00  0.00    -0.053 C 
ATOM      8  N   UNL     1       3.893  -0.148   1.077  0.00  0.00    +0.383 N 
ATOM      9  H   UNL     1       4.063  -1.159   1.025  0.00  0.00    -0.081 HD
ENDROOT
BRANCH   1  10
ATOM     10  C   UNL     1       1.340   2.023  -0.068  0.00  0.00    -0.077 C 
BRANCH  10  12
ATOM     11  C   UNL     1      -0.619   1.444  -1.369  0.00  0.00    -0.096 C 
ATOM     12  N   UNL     1       0.027   1.343  -0.043  0.00  0.00    +0.378 N 
ATOM     13  H   UNL     1       0.169   0.352   0.185  0.00  0.00    -0.082 HD
BRANCH  12  14
ATOM     14  C   UNL     1      -0.838   1.954   0.988  0.00  0.00    -0.073 C 
BRANCH  14  15
ATOM     15  C   UNL     1      -2.095   1.097   1.148  0.00  0.00    +0.037 C 
BRANCH  15  16
ATOM     16  C   UNL     1      -2.979   1.695   2.212  0.00  0.00    +0.040 A 
ATOM     17  C   UNL     1      -4.292   2.007   1.914  0.00  0.00    +0.023 A 
ATOM     18  C   UNL     1      -5.098   2.551   2.902  0.00  0.00    +0.003 A 
ATOM     19  C   UNL     1      -4.548   2.773   4.155  0.00  0.00    +0.020 A 
ATOM     20  C   UNL     1      -3.225   2.441   4.378  0.00  0.00    +0.111 A 
ATOM     21  N   UNL     1      -2.489   1.920   3.416  0.00  0.00    -0.260 NA
ENDBRANCH  15  16
ENDBRANCH  14  15
ENDBRANCH  12  14
ENDBRANCH  10  12
ENDBRANCH   1  10
BRANCH   7  22
ATOM     22  C   UNL     1       3.877  -0.075  -1.371  0.00  0.00    +0.090 C 
BRANCH  22  23
ATOM     23  N   UNL     1       3.996  -1.535  -1.352  0.00  0.00    -0.191 NA
ATOM     24  H   UNL     1       4.603  -1.965  -0.729  0.00  0.00    +0.148 HD
BRANCH  23  25
ATOM     25  S   UNL     1       3.093  -2.452  -2.394  0.00  0.00    +0.058 S 
ATOM     26  O   UNL     1       3.447  -3.807  -2.154  0.00  0.00    -0.153 OA
ATOM     27  O   UNL     1       1.755  -1.985  -2.293  0.00  0.00    -0.153 OA
BRANCH  25  28
ATOM     28  C   UNL     1       3.637  -2.072  -4.027  0.00  0.00    +0.105 A 
ATOM     29  C   UNL     1       3.033  -1.051  -4.736  0.00  0.00    +0.030 A 
ATOM     30  C   UNL     1       3.462  -0.749  -6.014  0.00  0.00    +0.022 A 
ATOM     31  C   UNL     1       4.490  -1.476  -6.589  0.00  0.00    +0.041 A 
ATOM     32  C   UNL     1       5.090  -2.502  -5.881  0.00  0.00    +0.022 A 
ATOM     33  C   UNL     1       4.663  -2.799  -4.600  0.00  0.00    +0.030 A 
ATOM     34 CL   UNL     1       5.025  -1.102  -8.197  0.00  0.00    -0.084 Cl
ENDBRANCH  25  28
ENDBRANCH  23  25
ENDBRANCH  22  23
ENDBRANCH   7  22
TORSDOF 9
