REMARK  Name = ZINC08923422
REMARK  8 active torsions:
REMARK  status: ('A' for Active; 'I' for Inactive)
REMARK    1  A    between atoms: C_1  and  C_2
REMARK    2  A    between atoms: C_2  and  C_3
REMARK    3  A    between atoms: C_2  and  N_57
REMARK    4  A    between atoms: C_11  and  O_31
REMARK    5  A    between atoms: C_13  and  C_16
REMARK    6  A    between atoms: C_20  and  O_22
REMARK    7  A    between atoms: O_22  and  C_23
REMARK    8  A    between atoms: C_23  and  C_25
REMARK                            x       y       z     vdW  Elec       q    Type
REMARK                         _______ _______ _______ _____ _____    ______ ____
ROOT
ATOM      1  C   UNL     1      -1.828  -0.887   0.396  0.00  0.00    -0.073 C 
ATOM      2  C   UNL     1      -1.739  -2.353  -0.036  0.00  0.00    +0.018 C 
ATOM      3  C   UNL     1      -0.591  -3.006   0.726  0.00  0.00    -0.027 A 
ATOM      4  C   UNL     1       0.351  -2.233   1.320  0.00  0.00    -0.021 A 
ATOM      5  S   UNL     1       1.467  -3.381   2.080  0.00  0.00    -0.080 S 
ATOM      6  C   UNL     1       0.702  -4.840   1.619  0.00  0.00    +0.080 A 
ATOM      7  C   UNL     1      -0.415  -4.437   0.874  0.00  0.00    +0.067 A 
ATOM      8  C   UNL     1      -1.295  -5.508   0.339  0.00  0.00    +0.220 C 
ATOM      9  N   UNL     1      -0.866  -6.738   0.405  0.00  0.00    -0.223 NA
ATOM     10  C   UNL     1       0.453  -7.133   0.882  0.00  0.00    +0.224 C 
ATOM     11  N   UNL     1       0.993  -6.163   1.853  0.00  0.00    -0.313 N 
ATOM     12  C   UNL     1       0.408  -0.738   1.316  0.00  0.00    -0.035 C 
ATOM     13  H   UNL     1       1.524  -6.443   2.615  0.00  0.00    +0.149 HD
ATOM     14  N   UNL     1      -0.502  -0.252   0.251  0.00  0.00    +0.384 N 
ATOM     15  H   UNL     1      -0.110  -0.502  -0.664  0.00  0.00    -0.081 HD
ENDROOT
BRANCH  10  16
ATOM     16  C   UNL     1       1.393  -7.226  -0.292  0.00  0.00    -0.002 A 
ATOM     17  C   UNL     1       2.740  -6.961  -0.122  0.00  0.00    +0.007 A 
ATOM     18  C   UNL     1       3.606  -7.050  -1.196  0.00  0.00    +0.004 A 
ATOM     19  C   UNL     1       3.125  -7.393  -2.445  0.00  0.00    +0.046 A 
ATOM     20  C   UNL     1       1.774  -7.653  -2.620  0.00  0.00    +0.132 A 
ATOM     21  C   UNL     1       0.908  -7.569  -1.539  0.00  0.00    +0.053 A 
BRANCH  20  22
ATOM     22  O   UNL     1       1.299  -7.990  -3.848  0.00  0.00    -0.422 OA
BRANCH  22  23
ATOM     23  C   UNL     1       0.510  -7.090  -4.467  0.00  0.00    +0.344 C 
ATOM     24  O   UNL     1       0.338  -5.993  -3.974  0.00  0.00    -0.245 OA
BRANCH  23  25
ATOM     25  C   UNL     1      -0.146  -7.438  -5.744  0.00  0.00    +0.059 A 
ATOM     26  C   UNL     1       0.054  -8.696  -6.316  0.00  0.00    +0.015 A 
ATOM     27  C   UNL     1      -0.565  -9.015  -7.506  0.00  0.00    +0.001 A 
ATOM     28  C   UNL     1      -1.375  -8.089  -8.139  0.00  0.00    +0.000 A 
ATOM     29  C   UNL     1      -1.573  -6.838  -7.580  0.00  0.00    +0.001 A 
ATOM     30  C   UNL     1      -0.964  -6.507  -6.388  0.00  0.00    +0.015 A 
ENDBRANCH  23  25
ENDBRANCH  22  23
ENDBRANCH  20  22
ENDBRANCH  10  16
BRANCH  14  32
ATOM     31  C   UNL     1       0.761   1.848   0.327  0.00  0.00    -0.014 C 
ATOM     32  C   UNL     1      -0.634   1.219   0.331  0.00  0.00    -0.074 C 
ATOM     33  C   UNL     1      -1.420   1.713  -0.885  0.00  0.00    -0.014 C 
ENDBRANCH  14  32
BRANCH   8  34
ATOM     34  O   UNL     1      -2.501  -5.216  -0.202  0.00  0.00    -0.492 OA
ATOM     35  H   UNL     1      -2.987  -5.989  -0.518  0.00  0.00    +0.294 HD
ENDBRANCH   8  34
TORSDOF 6
