REMARK  Name = ZINC02731173
REMARK  5 active torsions:
REMARK  status: ('A' for Active; 'I' for Inactive)
REMARK    1  A    between atoms: C_1  and  C_2
REMARK    2  A    between atoms: C_10  and  C_13
REMARK    3  A    between atoms: C_13  and  S_14
REMARK    4  A    between atoms: S_14  and  C_15
REMARK    5  A    between atoms: C_19  and  C_21
REMARK                            x       y       z     vdW  Elec       q    Type
REMARK                         _______ _______ _______ _____ _____    ______ ____
ROOT
ATOM      1  S   UNL     1      -0.888   1.685  -1.458  0.00  0.00    -0.080 S 
ENDROOT
BRANCH   1   2
ATOM      2  C   UNL     1       0.122   0.990  -2.724  0.00  0.00    +0.189 A 
ATOM      3  N   UNL     1       1.178   0.265  -2.381  0.00  0.00    -0.230 NA
ATOM      4  C   UNL     1       1.961  -0.274  -3.302  0.00  0.00    +0.116 A 
ATOM      5  C   UNL     1       1.669  -0.076  -4.640  0.00  0.00    +0.048 A 
ATOM      6  C   UNL     1       0.550   0.693  -4.970  0.00  0.00    +0.075 A 
ATOM      7  N   UNL     1      -0.196   1.200  -3.991  0.00  0.00    -0.222 NA
BRANCH   6   8
ATOM      8  C   UNL     1       0.194   0.934  -6.390  0.00  0.00    +0.003 A 
ATOM      9  C   UNL     1       0.981   0.398  -7.408  0.00  0.00    +0.030 A 
ATOM     10  C   UNL     1       0.643   0.622  -8.729  0.00  0.00    +0.043 A 
ATOM     11  C   UNL     1      -0.469   1.385  -9.041  0.00  0.00    +0.040 A 
ATOM     12  C   UNL     1      -1.250   1.924  -8.034  0.00  0.00    +0.043 A 
ATOM     13  C   UNL     1      -0.924   1.702  -6.710  0.00  0.00    +0.030 A 
ATOM     14 CL   UNL     1      -2.642   2.880  -8.434  0.00  0.00    -0.083 Cl
ATOM     15 CL   UNL     1       1.618  -0.049  -9.998  0.00  0.00    -0.083 Cl
ENDBRANCH   6   8
ENDBRANCH   1   2
BRANCH   1  16
ATOM     16  C   UNL     1      -0.013   1.086   0.008  0.00  0.00    +0.133 C 
BRANCH  16  26
ATOM     17  C   UNL     1       0.466   6.393   1.597  0.00  0.00    +0.067 C 
ATOM     18  C   UNL     1      -0.103   5.019   1.835  0.00  0.00    +0.062 A 
ATOM     19  C   UNL     1      -0.935   4.654   2.894  0.00  0.00    +0.071 A 
ATOM     20  C   UNL     1      -1.232   3.331   2.757  0.00  0.00    +0.137 A 
ATOM     21  N   UNL     1      -2.004   2.467   3.513  0.00  0.00    -0.307 N 
ATOM     22  H   UNL     1      -2.454   2.787   4.310  0.00  0.00    +0.170 HD
ATOM     23  C   UNL     1      -2.128   1.177   3.139  0.00  0.00    +0.252 A 
ATOM     24  O   UNL     1      -2.806   0.410   3.799  0.00  0.00    -0.268 OA
ATOM     25  C   UNL     1      -1.466   0.719   1.973  0.00  0.00    +0.094 A 
ATOM     26  C   UNL     1      -0.718   1.572   1.248  0.00  0.00    +0.060 A 
ATOM     27  N   UNL     1      -0.592   2.883   1.638  0.00  0.00    -0.219 N 
ATOM     28  N   UNL     1       0.101   3.966   1.082  0.00  0.00    -0.170 NA
ENDBRANCH  16  26
ENDBRANCH   1  16
TORSDOF 4
