REMARK  Name = ZINC06599762
REMARK  10 active torsions:
REMARK  status: ('A' for Active; 'I' for Inactive)
REMARK    1  A    between atoms: C_1  and  C_2
REMARK    2  A    between atoms: C_2  and  O_3
REMARK    3  A    between atoms: O_3  and  C_4
REMARK    4  A    between atoms: C_4  and  C_6
REMARK    5  A    between atoms: C_10  and  N_11
REMARK    6  A    between atoms: N_11  and  C_12
REMARK    7  A    between atoms: C_12  and  N_14
REMARK    8  A    between atoms: C_15  and  C_17
REMARK    9  A    between atoms: C_18  and  C_19
REMARK   10  A    between atoms: C_27  and  C_31
REMARK                            x       y       z     vdW  Elec       q    Type
REMARK                         _______ _______ _______ _____ _____    ______ ____
ROOT
ATOM      1  N   UNL     1      -3.435  -4.884   0.009  0.00  0.00    -0.290 N 
ATOM      2  H   UNL     1      -4.281  -4.411   0.019  0.00  0.00    +0.154 HD
ENDROOT
BRANCH   1   7
ATOM      3  C   UNL     1      -4.492  -7.147   0.012  0.00  0.00    +0.091 A 
ATOM      4  C   UNL     1      -4.197  -8.570  -0.003  0.00  0.00    -0.021 A 
ATOM      5  C   UNL     1      -2.884  -8.885  -0.018  0.00  0.00    -0.004 A 
ATOM      6  S   UNL     1      -2.044  -7.327  -0.017  0.00  0.00    -0.077 S 
ATOM      7  C   UNL     1      -3.416  -6.269   0.001  0.00  0.00    +0.086 A 
ATOM      8  C   UNL     1      -2.285 -10.258  -0.032  0.00  0.00    +0.046 C 
ATOM      9  C   UNL     1      -3.385 -11.262  -0.405  0.00  0.00    -0.009 C 
ATOM     10  C   UNL     1      -4.625 -10.974   0.446  0.00  0.00    +0.008 C 
ATOM     11  C   UNL     1      -5.265  -9.657   0.002  0.00  0.00    +0.037 C 
ATOM     12  C   UNL     1      -2.894 -12.685  -0.131  0.00  0.00    +0.008 C 
BRANCH   3  13
ATOM     13  C   UNL     1      -5.872  -6.657   0.035  0.00  0.00    +0.342 C 
ATOM     14  O   UNL     1      -6.461  -6.449  -1.008  0.00  0.00    -0.245 OA
BRANCH  13  15
ATOM     15  O   UNL     1      -6.490  -6.438   1.214  0.00  0.00    -0.461 OA
BRANCH  15  17
ATOM     16  C   UNL     1      -8.387  -5.764   2.584  0.00  0.00    +0.048 C 
ATOM     17  C   UNL     1      -7.857  -5.952   1.161  0.00  0.00    +0.229 C 
ENDBRANCH  15  17
ENDBRANCH  13  15
ENDBRANCH   3  13
ENDBRANCH   1   7
BRANCH   1  18
ATOM     18  C   UNL     1      -2.277  -4.194   0.001  0.00  0.00    +0.141 C 
ATOM     19  S   UNL     1      -0.783  -5.030  -0.018  0.00  0.00    -0.018 S 
BRANCH  18  20
ATOM     20  N   UNL     1      -2.295  -2.847   0.009  0.00  0.00    -0.264 N 
ATOM     21  C   UNL     1      -1.137  -2.157   0.001  0.00  0.00    +0.242 C 
ATOM     22  O   UNL     1      -0.075  -2.751  -0.012  0.00  0.00    -0.270 OA
ATOM     23  H   UNL     1      -3.142  -2.373   0.019  0.00  0.00    +0.157 HD
BRANCH  21  24
ATOM     24  C   UNL     1      -1.157  -0.695   0.009  0.00  0.00    +0.068 C 
ATOM     25  C   UNL     1       0.002  -0.004   0.002  0.00  0.00    +0.013 C 
BRANCH  25  26
ATOM     26  C   UNL     1      -0.018   1.467   0.010  0.00  0.00    -0.025 A 
ATOM     27  C   UNL     1      -1.237   2.154   0.020  0.00  0.00    +0.009 A 
ATOM     28  C   UNL     1      -1.248   3.532   0.033  0.00  0.00    +0.016 A 
ATOM     29  C   UNL     1      -0.055   4.237   0.025  0.00  0.00    +0.018 A 
ATOM     30  C   UNL     1       1.155   3.564   0.010  0.00  0.00    +0.016 A 
ATOM     31  C   UNL     1       1.182   2.186   0.003  0.00  0.00    +0.009 A 
ATOM     32 BR   UNL     1      -0.081   6.128   0.035  0.00  0.00    -0.050 Br
ENDBRANCH  25  26
ENDBRANCH  21  24
ENDBRANCH  18  20
ENDBRANCH   1  18
TORSDOF 8
