REMARK  Name = ZINC22238184
REMARK  6 active torsions:
REMARK  status: ('A' for Active; 'I' for Inactive)
REMARK    1  A    between atoms: C_6  and  C_7
REMARK    2  A    between atoms: N_9  and  C_10
REMARK    3  A    between atoms: C_10  and  C_11
REMARK    4  A    between atoms: C_11  and  C_12
REMARK    5  A    between atoms: C_17  and  C_20
REMARK    6  A    between atoms: C_20  and  N_21
REMARK                            x       y       z     vdW  Elec       q    Type
REMARK                         _______ _______ _______ _____ _____    ______ ____
ROOT
ATOM      1  C   UNL     1      -3.491  -5.137   0.008  0.00  0.00    +0.220 C 
ATOM      2  O   UNL     1      -4.551  -4.547   0.021  0.00  0.00    -0.275 OA
ATOM      3  N   UNL     1      -3.470  -6.485   0.000  0.00  0.00    -0.265 N 
ATOM      4  C   UNL     1      -4.662  -7.199   0.008  0.00  0.00    +0.164 A 
ATOM      5  N   UNL     1      -4.834  -8.503   0.008  0.00  0.00    -0.231 NA
ATOM      6  C   UNL     1      -6.044  -9.032   0.016  0.00  0.00    +0.034 A 
ATOM      7  C   UNL     1      -7.092  -8.172   0.024  0.00  0.00    +0.070 A 
ATOM      8  S   UNL     1      -6.237  -6.605   0.027  0.00  0.00    -0.060 S 
ATOM      9  H   UNL     1      -2.622  -6.956  -0.010  0.00  0.00    +0.157 HD
ENDROOT
BRANCH   1  10
ATOM     10  C   UNL     1      -2.198  -4.363  -0.000  0.00  0.00    +0.115 C 
BRANCH  10  11
ATOM     11  C   UNL     1      -2.501  -2.863   0.011  0.00  0.00    +0.113 C 
BRANCH  11  14
ATOM     12  C   UNL     1      -1.266  -0.763   0.010  0.00  0.00    +0.244 C 
ATOM     13  O   UNL     1      -2.328  -0.172   0.023  0.00  0.00    -0.270 OA
ATOM     14  N   UNL     1      -1.244  -2.111   0.003  0.00  0.00    -0.311 N 
ATOM     15  H   UNL     1      -0.397  -2.582  -0.008  0.00  0.00    +0.149 HD
BRANCH  12  21
ATOM     16  C   UNL     1      -0.017   1.392   0.010  0.00  0.00    +0.014 A 
ATOM     17  C   UNL     1       1.169   2.095   0.002  0.00  0.00    +0.021 A 
ATOM     18  C   UNL     1       2.378   1.419  -0.013  0.00  0.00    +0.041 A 
ATOM     19  C   UNL     1       2.403   0.034  -0.021  0.00  0.00    +0.021 A 
ATOM     20  C   UNL     1       1.224  -0.680  -0.014  0.00  0.00    +0.014 A 
ATOM     21  C   UNL     1       0.002  -0.004   0.002  0.00  0.00    +0.037 A 
ATOM     22 CL   UNL     1       3.868   2.310  -0.022  0.00  0.00    -0.084 Cl
ENDBRANCH  12  21
ENDBRANCH  11  14
ENDBRANCH  10  11
ENDBRANCH   1  10
BRANCH   6  23
ATOM     23  C   UNL     1      -6.250 -10.524   0.015  0.00  0.00    -0.022 C 
BRANCH  23  24
ATOM     24  N   UNL     1      -6.207 -11.024  -1.365  0.00  0.00    +0.383 N 
ATOM     25  C   UNL     1      -7.335 -10.468  -2.121  0.00  0.00    -0.078 C 
ATOM     26  C   UNL     1      -7.249 -10.920  -3.581  0.00  0.00    -0.019 C 
ATOM     27  C   UNL     1      -7.299 -12.450  -3.639  0.00  0.00    -0.004 C 
ATOM     28  C   UNL     1      -6.162 -13.020  -2.786  0.00  0.00    -0.019 C 
ATOM     29  C   UNL     1      -6.288 -12.490  -1.356  0.00  0.00    -0.078 C 
ATOM     30  H   UNL     1      -5.341 -10.739  -1.798  0.00  0.00    -0.081 HD
ENDBRANCH  23  24
ENDBRANCH   6  23
TORSDOF 6
