REMARK  Name = ZINC39762286
REMARK  12 active torsions:
REMARK  status: ('A' for Active; 'I' for Inactive)
REMARK    1  A    between atoms: C_1  and  C_2
REMARK    2  A    between atoms: C_2  and  N_3
REMARK    3  A    between atoms: C_4  and  CA_23
REMARK    4  A    between atoms: C_7  and  S_8
REMARK    5  A    between atoms: S_8  and  C_9
REMARK    6  A    between atoms: C_9  and  C_11
REMARK    7  A    between atoms: C_9  and  C_12
REMARK    8  A    between atoms: N_14  and  C_15
REMARK    9  A    between atoms: CA_23  and  C_25
REMARK   10  A    between atoms: CA_23  and  N_27
REMARK   11  A    between atoms: C_25  and  O_26
REMARK   12  A    between atoms: C_28  and  C_30
REMARK                            x       y       z     vdW  Elec       q    Type
REMARK                         _______ _______ _______ _____ _____    ______ ____
ROOT
ATOM      1  N   UNL     1       0.687  -0.528  -1.204  0.00  0.00    -0.305 N 
ATOM      2  C   UNL     1       0.127  -0.808  -2.420  0.00  0.00    +0.157 A 
ATOM      3  N   UNL     1       1.088  -1.196  -3.209  0.00  0.00    -0.131 NA
ATOM      4  N   UNL     1       2.209  -1.181  -2.580  0.00  0.00    -0.122 NA
ATOM      5  C   UNL     1       2.022  -0.774  -1.346  0.00  0.00    +0.192 A 
ENDROOT
BRANCH   1   7
ATOM      6  C   UNL     1      -0.035   1.474   0.002  0.00  0.00    +0.027 C 
ATOM      7  C   UNL     1      -0.002  -0.056  -0.000  0.00  0.00    +0.122 C 
ENDBRANCH   1   7
BRANCH   5   8
ATOM      8  S   UNL     1       3.260  -0.584  -0.107  0.00  0.00    -0.074 S 
BRANCH   8   9
ATOM      9  C   UNL     1       4.795  -1.071  -0.942  0.00  0.00    +0.137 C 
ATOM     10  C   UNL     1       4.726  -2.555  -1.311  0.00  0.00    +0.029 C 
BRANCH   9  11
ATOM     11  C   UNL     1       5.965  -0.837  -0.020  0.00  0.00    +0.230 C 
ATOM     12  O   UNL     1       5.798  -0.831   1.181  0.00  0.00    -0.274 OA
ATOM     13  N   UNL     1       7.195  -0.635  -0.531  0.00  0.00    -0.282 N 
ATOM     14  H   UNL     1       7.340  -0.704  -1.488  0.00  0.00    +0.155 HD
BRANCH  13  15
ATOM     15  C   UNL     1       8.265  -0.324   0.319  0.00  0.00    +0.069 A 
ATOM     16  C   UNL     1       8.327  -0.881   1.589  0.00  0.00    +0.029 A 
ATOM     17  C   UNL     1       9.382  -0.574   2.427  0.00  0.00    +0.040 A 
ATOM     18  C   UNL     1      10.378   0.289   2.001  0.00  0.00    +0.126 A 
ATOM     19  C   UNL     1      10.319   0.846   0.735  0.00  0.00    +0.078 A 
ATOM     20  C   UNL     1       9.268   0.537  -0.110  0.00  0.00    +0.147 A 
ATOM     21  F   UNL     1       9.214   1.076  -1.347  0.00  0.00    -0.203 F 
ATOM     22  F   UNL     1      11.409   0.587   2.822  0.00  0.00    -0.205 F 
ENDBRANCH  13  15
ENDBRANCH   9  11
ENDBRANCH   8   9
ENDBRANCH   5   8
BRANCH   2  23
ATOM     23  CA  UNL     1      -1.331  -0.689  -2.780  0.00  0.00    +0.167 C 
BRANCH  23  24
ATOM     24  N   UNL     1      -1.461  -0.031  -4.082  0.00  0.00    -0.299 N 
ATOM     25  C   UNL     1      -2.593   0.631  -4.393  0.00  0.00    +0.245 C 
ATOM     26  O   UNL     1      -3.506   0.682  -3.593  0.00  0.00    -0.270 OA
ATOM     27  H   UNL     1      -0.732  -0.071  -4.721  0.00  0.00    +0.150 HD
BRANCH  25  28
ATOM     28  C   UNL     1      -2.723   1.296  -5.707  0.00  0.00    +0.037 A 
ATOM     29  C   UNL     1      -1.678   1.234  -6.630  0.00  0.00    +0.014 A 
ATOM     30  C   UNL     1      -1.806   1.856  -7.855  0.00  0.00    +0.021 A 
ATOM     31  C   UNL     1      -2.968   2.540  -8.169  0.00  0.00    +0.041 A 
ATOM     32  C   UNL     1      -4.009   2.605  -7.257  0.00  0.00    +0.021 A 
ATOM     33  C   UNL     1      -3.895   1.982  -6.032  0.00  0.00    +0.014 A 
ATOM     34 CL   UNL     1      -3.121   3.321  -9.712  0.00  0.00    -0.084 Cl
ENDBRANCH  25  28
ENDBRANCH  23  24
BRANCH  23  35
ATOM     35  C   UNL     1      -1.954  -2.085  -2.850  0.00  0.00    +0.186 C 
BRANCH  35  36
ATOM     36  O   UNL     1      -1.207  -2.895  -3.759  0.00  0.00    -0.393 OA
ATOM     37  H   UNL     1      -1.546  -3.796  -3.854  0.00  0.00    +0.209 HD
ENDBRANCH  35  36
ENDBRANCH  23  35
ENDBRANCH   2  23
TORSDOF 10
