REMARK  Name = ZINC63874954
REMARK  6 active torsions:
REMARK  status: ('A' for Active; 'I' for Inactive)
REMARK    1  A    between atoms: C_1  and  C_2
REMARK    2  A    between atoms: C_4  and  N_17
REMARK    3  A    between atoms: N_8  and  C_11
REMARK    4  A    between atoms: N_9  and  C_10
REMARK    5  A    between atoms: C_18  and  C_20
REMARK    6  A    between atoms: C_20  and  C_21
REMARK                            x       y       z     vdW  Elec       q    Type
REMARK                         _______ _______ _______ _____ _____    ______ ____
ROOT
ATOM      1  N   UNL     1      -1.966   0.932  -0.428  0.00  0.00    -0.302 N 
ATOM      2  C   UNL     1      -3.245   0.954  -0.853  0.00  0.00    +0.218 C 
ATOM      3  O   UNL     1      -3.922  -0.051  -0.790  0.00  0.00    -0.275 OA
ATOM      4  H   UNL     1      -1.425   1.735  -0.478  0.00  0.00    +0.150 HD
ENDROOT
BRANCH   1   7
ATOM      5  C   UNL     1       0.695   1.111  -0.144  0.00  0.00    +0.028 C 
ATOM      6  C   UNL     1       0.146  -0.314  -0.051  0.00  0.00    +0.102 C 
ATOM      7  C   UNL     1      -1.394  -0.305   0.109  0.00  0.00    +0.179 C 
ATOM      8  C   UNL     1      -1.561  -0.373   1.616  0.00  0.00    +0.256 C 
ATOM      9  O   UNL     1      -2.580  -0.140   2.232  0.00  0.00    -0.272 OA
ATOM     10  N   UNL     1      -0.380  -0.739   2.148  0.00  0.00    -0.201 N 
ATOM     11  N   UNL     1       0.580  -0.968   1.206  0.00  0.00    -0.218 NA
ATOM     12  C   UNL     1       0.787  -2.408   1.005  0.00  0.00    +0.128 C 
BRANCH  10  13
ATOM     13  C   UNL     1      -0.160  -0.870   3.523  0.00  0.00    +0.053 A 
ATOM     14  C   UNL     1       0.964  -0.299   4.106  0.00  0.00    +0.025 A 
ATOM     15  C   UNL     1       1.179  -0.430   5.464  0.00  0.00    +0.002 A 
ATOM     16  C   UNL     1       0.277  -1.131   6.243  0.00  0.00    +0.000 A 
ATOM     17  C   UNL     1      -0.843  -1.702   5.667  0.00  0.00    +0.002 A 
ATOM     18  C   UNL     1      -1.067  -1.568   4.310  0.00  0.00    +0.025 A 
ENDBRANCH  10  13
ENDBRANCH   1   7
BRANCH   2  19
ATOM     19  C   UNL     1      -3.834   2.226  -1.405  0.00  0.00    +0.129 C 
BRANCH  19  20
ATOM     20  C   UNL     1      -5.267   1.984  -1.806  0.00  0.00    -0.033 C 
ATOM     21  C   UNL     1      -6.371   2.228  -1.063  0.00  0.00    -0.001 A 
ATOM     22  C   UNL     1      -6.561   2.769   0.288  0.00  0.00    +0.010 A 
ATOM     23  C   UNL     1      -7.817   2.899   0.772  0.00  0.00    +0.001 A 
ATOM     24  C   UNL     1      -8.939   2.529   0.018  0.00  0.00    +0.002 A 
ATOM     25  C   UNL     1      -8.845   2.024  -1.230  0.00  0.00    +0.026 A 
ATOM     26  C   UNL     1      -7.572   1.846  -1.839  0.00  0.00    +0.043 A 
ATOM     27  N   UNL     1      -7.224   1.383  -3.016  0.00  0.00    -0.380 N 
ATOM     28  C   UNL     1      -5.761   1.426  -3.121  0.00  0.00    +0.145 C 
ATOM     29  H   UNL     1      -7.832   1.069  -3.703  0.00  0.00    +0.160 HD
ENDBRANCH  19  20
ENDBRANCH   2  19
TORSDOF 4
