REMARK  Name = ZINC54051440
REMARK  5 active torsions:
REMARK  status: ('A' for Active; 'I' for Inactive)
REMARK    1  A    between atoms: C_1  and  C_2
REMARK    2  A    between atoms: C_2  and  C_4
REMARK    3  A    between atoms: C_2  and  N_7
REMARK    4  A    between atoms: N_7  and  C_8
REMARK    5  A    between atoms: C_9  and  C_11
REMARK                            x       y       z     vdW  Elec       q    Type
REMARK                         _______ _______ _______ _____ _____    ______ ____
ROOT
ATOM      1  C   UNL     1       2.911  -1.328  -2.010  0.00  0.00    +0.075 A 
ATOM      2  C   UNL     1       4.126  -1.975  -1.949  0.00  0.00    +0.024 A 
ATOM      3  C   UNL     1       4.861  -2.061  -3.135  0.00  0.00    -0.036 A 
ATOM      4  C   UNL     1       4.334  -1.468  -4.223  0.00  0.00    -0.006 A 
ATOM      5  S   UNL     1       2.822  -0.904  -3.737  0.00  0.00    -0.088 S 
ATOM      6  C   UNL     1       4.878  -1.209  -5.606  0.00  0.00    +0.043 C 
ATOM      7  C   UNL     1       6.312  -1.712  -5.770  0.00  0.00    +0.005 C 
ATOM      8  C   UNL     1       6.336  -3.213  -6.009  0.00  0.00    +0.000 C 
ATOM      9  C   UNL     1       5.296  -3.957  -5.196  0.00  0.00    +0.000 C 
ATOM     10  C   UNL     1       5.907  -4.202  -3.812  0.00  0.00    +0.005 C 
ATOM     11  C   UNL     1       6.159  -2.855  -3.136  0.00  0.00    +0.036 C 
ENDROOT
BRANCH   1  14
ATOM     12  N   UNL     1       0.747  -0.523  -1.232  0.00  0.00    -0.287 N 
ATOM     13  C   UNL     1       0.359  -0.311  -2.629  0.00  0.00    +0.133 C 
ATOM     14  C   UNL     1       1.945  -1.065  -0.940  0.00  0.00    +0.254 C 
ATOM     15  O   UNL     1       2.226  -1.336   0.213  0.00  0.00    -0.269 OA
BRANCH  12  17
ATOM     16  C   UNL     1      -0.460   1.355  -0.232  0.00  0.00    +0.040 C 
ATOM     17  C   UNL     1      -0.169  -0.145  -0.152  0.00  0.00    +0.186 C 
BRANCH  17  18
ATOM     18  C   UNL     1      -1.457  -0.915  -0.293  0.00  0.00    +0.376 C 
ATOM     19  O   UNL     1      -1.671  -1.565  -1.303  0.00  0.00    -0.244 OA
ATOM     20  O   UNL     1      -2.284  -0.888   0.601  0.00  0.00    -0.244 OA
ENDBRANCH  17  18
ENDBRANCH  12  17
ENDBRANCH   1  14
TORSDOF 3
