REMARK  Name = ZINC20758653
REMARK  7 active torsions:
REMARK  status: ('A' for Active; 'I' for Inactive)
REMARK    1  A    between atoms: C_1  and  C_2
REMARK    2  A    between atoms: C_2  and  C_3
REMARK    3  A    between atoms: C_3  and  C_5
REMARK    4  A    between atoms: C_3  and  S_13
REMARK    5  A    between atoms: S_13  and  C_14
REMARK    6  A    between atoms: C_18  and  C_22
REMARK    7  A    between atoms: N_25  and  C_26
REMARK                            x       y       z     vdW  Elec       q    Type
REMARK                         _______ _______ _______ _____ _____    ______ ____
ROOT
ATOM      1  C   UNL     1      -4.577   2.427   2.279  0.00  0.00    +0.178 A 
ATOM      2  N   UNL     1      -3.556   2.593   3.083  0.00  0.00    -0.201 NA
ATOM      3  C   UNL     1      -2.296   2.320   2.711  0.00  0.00    +0.187 A 
ATOM      4  C   UNL     1      -2.046   1.822   1.425  0.00  0.00    +0.082 A 
ATOM      5  C   UNL     1      -0.659   1.622   1.315  0.00  0.00    +0.046 A 
ATOM      6  N   UNL     1      -0.101   1.982   2.439  0.00  0.00    -0.279 N 
ATOM      7  N   UNL     1      -1.089   2.415   3.332  0.00  0.00    -0.153 NA
ATOM      8  H   UNL     1       0.990   1.914   2.558  0.00  0.00    +0.189 HD
ATOM      9  C   UNL     1       0.063   1.097   0.101  0.00  0.00    +0.066 C 
ATOM     10  C   UNL     1      -3.187   1.625   0.520  0.00  0.00    +0.124 A 
ATOM     11  N   UNL     1      -3.021   1.163  -0.695  0.00  0.00    -0.384 N 
ATOM     12  N   UNL     1      -4.445   1.945   1.005  0.00  0.00    -0.275 N 
ATOM     13  H   UNL     1      -3.891   1.024  -1.354  0.00  0.00    +0.157 HD
ATOM     14  H   UNL     1      -2.012   0.915  -1.056  0.00  0.00    +0.157 HD
ENDROOT
BRANCH  12  15
ATOM     15  C   UNL     1      -5.575   1.777   0.194  0.00  0.00    +0.050 A 
ATOM     16  C   UNL     1      -5.727   2.543  -0.954  0.00  0.00    +0.027 A 
ATOM     17  C   UNL     1      -6.841   2.373  -1.754  0.00  0.00    +0.017 A 
ATOM     18  C   UNL     1      -7.809   1.448  -1.406  0.00  0.00    +0.018 A 
ATOM     19  C   UNL     1      -7.662   0.687  -0.259  0.00  0.00    +0.017 A 
ATOM     20  C   UNL     1      -6.549   0.850   0.541  0.00  0.00    +0.027 A 
ATOM     21 BR   UNL     1      -9.335   1.222  -2.500  0.00  0.00    -0.050 Br
ENDBRANCH  12  15
BRANCH   1  22
ATOM     22  S   UNL     1      -6.189   2.829   2.866  0.00  0.00    -0.075 S 
BRANCH  22  23
ATOM     23  C   UNL     1      -5.800   3.261   4.580  0.00  0.00    +0.140 C 
BRANCH  23  24
ATOM     24  C   UNL     1      -5.021   4.551   4.609  0.00  0.00    +0.229 C 
ATOM     25  O   UNL     1      -5.130   5.345   3.699  0.00  0.00    -0.274 OA
ATOM     26  N   UNL     1      -4.203   4.821   5.645  0.00  0.00    -0.296 N 
ATOM     27  C   UNL     1      -4.059   3.876   6.763  0.00  0.00    +0.136 C 
ATOM     28  C   UNL     1      -2.559   3.635   6.997  0.00  0.00    +0.179 C 
ATOM     29  O   UNL     1      -1.899   4.895   7.143  0.00  0.00    -0.377 OA
ATOM     30  C   UNL     1      -1.966   5.728   5.983  0.00  0.00    +0.179 C 
ATOM     31  C   UNL     1      -3.432   6.074   5.694  0.00  0.00    +0.136 C 
ENDBRANCH  23  24
BRANCH  23  33
ATOM     32  C   UNL     1      -7.822   2.088   5.461  0.00  0.00    +0.005 C 
ATOM     33  C   UNL     1      -7.099   3.433   5.370  0.00  0.00    +0.020 C 
ENDBRANCH  23  33
ENDBRANCH  22  23
ENDBRANCH   1  22
TORSDOF 5
