REMARK  Name = ZINC08968605
REMARK  9 active torsions:
REMARK  status: ('A' for Active; 'I' for Inactive)
REMARK    1  A    between atoms: C_1  and  C_2
REMARK    2  A    between atoms: C_5  and  C_8
REMARK    3  A    between atoms: C_11  and  S_19
REMARK    4  A    between atoms: N_12  and  C_13
REMARK    5  A    between atoms: S_19  and  C_20
REMARK    6  A    between atoms: C_20  and  C_21
REMARK    7  A    between atoms: N_23  and  N_24
REMARK    8  A    between atoms: C_25  and  C_26
REMARK    9  A    between atoms: C_35  and  O_36
REMARK                            x       y       z     vdW  Elec       q    Type
REMARK                         _______ _______ _______ _____ _____    ______ ____
ROOT
ATOM      1  S   UNL     1       0.865  11.882   0.665  0.00  0.00    -0.076 S 
ENDROOT
BRANCH   1   5
ATOM      2  C   UNL     1       4.271  13.801   0.649  0.00  0.00    +0.169 A 
ATOM      3  N   UNL     1       4.636  12.562   0.416  0.00  0.00    -0.128 NA
ATOM      4  N   UNL     1       3.603  11.797   0.391  0.00  0.00    -0.122 NA
ATOM      5  C   UNL     1       2.514  12.500   0.608  0.00  0.00    +0.197 A 
ATOM      6  N   UNL     1       2.899  13.802   0.774  0.00  0.00    -0.270 N 
BRANCH   2  11
ATOM      7  C   UNL     1       7.746  18.370   1.055  0.00  0.00    +0.044 C 
ATOM      8  C   UNL     1       6.836  17.174   0.949  0.00  0.00    -0.050 A 
ATOM      9  C   UNL     1       7.309  15.996   0.398  0.00  0.00    +0.004 A 
ATOM     10  C   UNL     1       6.481  14.897   0.298  0.00  0.00    +0.012 A 
ATOM     11  C   UNL     1       5.164  14.975   0.754  0.00  0.00    +0.020 A 
ATOM     12  C   UNL     1       4.691  16.168   1.303  0.00  0.00    +0.012 A 
ATOM     13  C   UNL     1       5.531  17.258   1.402  0.00  0.00    +0.004 A 
ENDBRANCH   2  11
BRANCH   6  14
ATOM     14  C   UNL     1       2.071  14.906   1.023  0.00  0.00    +0.051 A 
ATOM     15  C   UNL     1       1.972  15.926   0.086  0.00  0.00    +0.026 A 
ATOM     16  C   UNL     1       1.151  17.009   0.331  0.00  0.00    +0.002 A 
ATOM     17  C   UNL     1       0.437  17.084   1.513  0.00  0.00    +0.000 A 
ATOM     18  C   UNL     1       0.538  16.072   2.451  0.00  0.00    +0.002 A 
ATOM     19  C   UNL     1       1.353  14.984   2.209  0.00  0.00    +0.026 A 
ENDBRANCH   6  14
ENDBRANCH   1   5
BRANCH   1  20
ATOM     20  C   UNL     1       1.177  10.126   0.354  0.00  0.00    +0.174 C 
BRANCH  20  21
ATOM     21  C   UNL     1      -0.130   9.376   0.358  0.00  0.00    +0.242 C 
ATOM     22  O   UNL     1      -1.170   9.970   0.552  0.00  0.00    -0.273 OA
ATOM     23  N   UNL     1      -0.144   8.045   0.146  0.00  0.00    -0.206 N 
ATOM     24  H   UNL     1       0.688   7.570  -0.009  0.00  0.00    +0.177 HD
BRANCH  23  25
ATOM     25  N   UNL     1      -1.359   7.347   0.150  0.00  0.00    -0.188 NA
ATOM     26  C   UNL     1      -1.364   6.051   0.050  0.00  0.00    +0.142 C 
BRANCH  26  27
ATOM     27  C   UNL     1      -0.098   5.306   0.079  0.00  0.00    +0.044 A 
ATOM     28  C   UNL     1       0.264   4.404  -1.012  0.00  0.00    -0.006 A 
ATOM     29  C   UNL     1      -0.578   4.218  -2.116  0.00  0.00    +0.009 A 
ATOM     30  C   UNL     1      -0.202   3.372  -3.115  0.00  0.00    +0.001 A 
ATOM     31  C   UNL     1       1.004   2.679  -3.049  0.00  0.00    +0.001 A 
ATOM     32  C   UNL     1       1.846   2.835  -1.991  0.00  0.00    +0.008 A 
ATOM     33  C   UNL     1       1.493   3.705  -0.945  0.00  0.00    -0.017 A 
ATOM     34  C   UNL     1       2.337   3.892   0.165  0.00  0.00    +0.012 A 
ATOM     35  C   UNL     1       1.986   4.735   1.171  0.00  0.00    +0.046 A 
ATOM     36  C   UNL     1       0.786   5.445   1.149  0.00  0.00    +0.126 A 
BRANCH  36  37
ATOM     37  O   UNL     1       0.476   6.277   2.176  0.00  0.00    -0.506 OA
ATOM     38  H   UNL     1      -0.080   5.872   2.856  0.00  0.00    +0.292 HD
ENDBRANCH  36  37
ENDBRANCH  26  27
ENDBRANCH  23  25
ENDBRANCH  20  21
ENDBRANCH   1  20
TORSDOF 8
