REMARK  Name = ZINC17080612
REMARK  7 active torsions:
REMARK  status: ('A' for Active; 'I' for Inactive)
REMARK    1  A    between atoms: C_1  and  C_2
REMARK    2  A    between atoms: C_2  and  C_3
REMARK    3  A    between atoms: C_3  and  O_4
REMARK    4  A    between atoms: O_4  and  C_5
REMARK    5  A    between atoms: C_8  and  C_11
REMARK    6  A    between atoms: C_27  and  C_29
REMARK    7  A    between atoms: C_27  and  C_30
REMARK                            x       y       z     vdW  Elec       q    Type
REMARK                         _______ _______ _______ _____ _____    ______ ____
ROOT
ATOM      1  C   UNL     1      -1.333   2.113   0.020  0.00  0.00    +0.092 C 
ATOM      2  C   UNL     1      -1.431   2.960  -1.213  0.00  0.00    +0.069 A 
ATOM      3  C   UNL     1      -1.737   2.379  -2.450  0.00  0.00    +0.259 A 
ATOM      4  O   UNL     1      -1.929   1.177  -2.541  0.00  0.00    -0.267 OA
ATOM      5  N   UNL     1      -1.815   3.173  -3.539  0.00  0.00    -0.295 N 
ATOM      6  H   UNL     1      -2.027   2.788  -4.403  0.00  0.00    +0.172 HD
ATOM      7  C   UNL     1      -1.596   4.511  -3.426  0.00  0.00    +0.195 A 
ATOM      8  N   UNL     1      -1.309   5.064  -2.266  0.00  0.00    -0.201 NA
ATOM      9  C   UNL     1      -1.222   4.327  -1.153  0.00  0.00    +0.136 A 
ATOM     10  N   UNL     1      -0.928   4.920   0.059  0.00  0.00    -0.302 N 
ATOM     11  C   UNL     1      -1.220   4.284   1.235  0.00  0.00    +0.017 C 
ATOM     12  C   UNL     1      -1.420   2.951   1.270  0.00  0.00    +0.024 C 
ATOM     13  C   UNL     1      -1.718   2.295   2.479  0.00  0.00    +0.162 C 
ATOM     14  O   UNL     1      -1.911   1.095   2.474  0.00  0.00    -0.292 OA
ATOM     15  C   UNL     1      -1.801   3.050   3.777  0.00  0.00    +0.086 C 
ATOM     16  C   UNL     1      -0.890   4.279   3.697  0.00  0.00    -0.023 C 
ATOM     17  C   UNL     1      -1.315   5.118   2.490  0.00  0.00    +0.058 C 
ATOM     18  C   UNL     1       0.564   3.832   3.527  0.00  0.00    +0.011 C 
ATOM     19  C   UNL     1      -1.026   5.111   4.974  0.00  0.00    +0.011 C 
ATOM     20  N   UNL     1      -1.676   5.300  -4.542  0.00  0.00    -0.329 N 
ATOM     21  H   UNL     1      -0.511   5.796   0.077  0.00  0.00    +0.153 HD
ATOM     22  H   UNL     1      -1.522   6.255  -4.474  0.00  0.00    +0.145 HD
ATOM     23  H   UNL     1      -1.887   4.903  -5.402  0.00  0.00    +0.145 HD
ENDROOT
BRANCH   1  27
ATOM     24  C   UNL     1       2.399   0.030  -0.021  0.00  0.00    +0.121 A 
ATOM     25  C   UNL     1       1.207  -0.680  -0.014  0.00  0.00    +0.046 A 
ATOM     26  C   UNL     1       0.002  -0.004   0.002  0.00  0.00    +0.008 A 
ATOM     27  C   UNL     1      -0.017   1.378   0.010  0.00  0.00    -0.035 A 
ATOM     28  C   UNL     1       1.170   2.088   0.002  0.00  0.00    +0.008 A 
ATOM     29  C   UNL     1       2.377   1.417  -0.013  0.00  0.00    +0.046 A 
BRANCH  24  30
ATOM     30  O   UNL     1       3.586  -0.632  -0.037  0.00  0.00    -0.492 OA
BRANCH  30  31
ATOM     31  C   UNL     1       4.772   0.164  -0.044  0.00  0.00    +0.229 C 
BRANCH  31  33
ATOM     32  C   UNL     1       7.270   0.102  -0.069  0.00  0.00    +0.007 C 
ATOM     33  C   UNL     1       5.999  -0.750  -0.062  0.00  0.00    +0.038 C 
ENDBRANCH  31  33
ENDBRANCH  30  31
ENDBRANCH  24  30
ENDBRANCH   1  27
TORSDOF 4
