REMARK  Name = ZINC19946214
REMARK  3 active torsions:
REMARK  status: ('A' for Active; 'I' for Inactive)
REMARK    1  A    between atoms: C_1  and  N_2
REMARK    2  A    between atoms: N_13  and  C_14
REMARK    3  A    between atoms: C_14  and  C_15
REMARK                            x       y       z     vdW  Elec       q    Type
REMARK                         _______ _______ _______ _____ _____    ______ ____
ROOT
ATOM      1  C   UNL     1       1.477   3.715   0.130  0.00  0.00    +0.174 C 
ATOM      2  N   UNL     1       0.400   3.854   1.113  0.00  0.00    -0.249 N 
ATOM      3  C   UNL     1      -0.418   2.857   1.540  0.00  0.00    +0.144 A 
ATOM      4  C   UNL     1      -1.291   3.419   2.463  0.00  0.00    +0.066 A 
ATOM      5  C   UNL     1      -2.308   2.571   3.103  0.00  0.00    +0.001 A 
ATOM      6  C   UNL     1      -3.205   3.079   4.039  0.00  0.00    +0.009 A 
ATOM      7  C   UNL     1      -4.140   2.243   4.610  0.00  0.00    +0.001 A 
ATOM      8  C   UNL     1      -4.195   0.900   4.261  0.00  0.00    +0.001 A 
ATOM      9  C   UNL     1      -3.318   0.378   3.338  0.00  0.00    +0.014 A 
ATOM     10  C   UNL     1      -2.363   1.206   2.747  0.00  0.00    +0.047 A 
ATOM     11  C   UNL     1      -1.406   0.697   1.758  0.00  0.00    +0.261 A 
ATOM     12  O   UNL     1      -1.434  -0.476   1.435  0.00  0.00    -0.267 OA
ATOM     13  N   UNL     1      -0.498   1.524   1.208  0.00  0.00    -0.288 N 
ATOM     14  C   UNL     1      -0.959   4.789   2.579  0.00  0.00    +0.148 A 
ATOM     15  N   UNL     1       0.044   5.034   1.774  0.00  0.00    -0.154 NA
ATOM     16  N   UNL     1      -1.592   5.718   3.409  0.00  0.00    -0.341 N 
ATOM     17  H   UNL     1      -1.253   6.764   3.422  0.00  0.00    +0.144 HD
ATOM     18  H   UNL     1      -2.429   5.404   4.049  0.00  0.00    +0.144 HD
ENDROOT
BRANCH  13  19
ATOM     19  C   UNL     1       0.444   0.984   0.224  0.00  0.00    +0.162 C 
BRANCH  19  20
ATOM     20  C   UNL     1      -0.237   0.874  -1.116  0.00  0.00    -0.028 A 
ATOM     21  C   UNL     1      -0.748  -0.340  -1.534  0.00  0.00    +0.005 A 
ATOM     22  C   UNL     1      -1.377  -0.440  -2.761  0.00  0.00    +0.000 A 
ATOM     23  C   UNL     1      -1.485   0.673  -3.574  0.00  0.00    +0.000 A 
ATOM     24  C   UNL     1      -0.969   1.886  -3.159  0.00  0.00    +0.000 A 
ATOM     25  C   UNL     1      -0.344   1.986  -1.929  0.00  0.00    +0.005 A 
ENDBRANCH  19  20
ENDBRANCH  13  19
TORSDOF 2
