REMARK  Name = ZINC39945708
REMARK  9 active torsions:
REMARK  status: ('A' for Active; 'I' for Inactive)
REMARK    1  A    between atoms: C_1  and  C_2
REMARK    2  A    between atoms: C_4  and  C_9
REMARK    3  A    between atoms: C_5  and  C_8
REMARK    4  A    between atoms: C_9  and  O_10
REMARK    5  A    between atoms: O_10  and  C_11
REMARK    6  A    between atoms: C_14  and  C_17
REMARK    7  A    between atoms: C_17  and  O_19
REMARK    8  A    between atoms: O_19  and  C_20
REMARK    9  A    between atoms: C_20  and  C_21
REMARK                            x       y       z     vdW  Elec       q    Type
REMARK                         _______ _______ _______ _____ _____    ______ ____
ROOT
ATOM      1  C   UNL     1      -1.012  -0.973  -8.815  0.00  0.00    +0.340 C 
ATOM      2  O   UNL     1      -2.056  -0.419  -9.096  0.00  0.00    -0.245 OA
ENDROOT
BRANCH   1   6
ATOM      3  C   UNL     1       0.323  -1.068  -4.786  0.00  0.00    +0.121 A 
ATOM      4  C   UNL     1      -0.871  -0.432  -5.105  0.00  0.00    +0.046 A 
ATOM      5  C   UNL     1      -1.308  -0.399  -6.411  0.00  0.00    +0.018 A 
ATOM      6  C   UNL     1      -0.548  -1.006  -7.415  0.00  0.00    +0.059 A 
ATOM      7  C   UNL     1       0.652  -1.644  -7.090  0.00  0.00    +0.018 A 
ATOM      8  C   UNL     1       1.085  -1.667  -5.782  0.00  0.00    +0.046 A 
BRANCH   3   9
ATOM      9  O   UNL     1       0.750  -1.098  -3.498  0.00  0.00    -0.488 OA
BRANCH   9  10
ATOM     10  C   UNL     1      -0.081  -0.463  -2.524  0.00  0.00    +0.264 C 
BRANCH  10  13
ATOM     11  C   UNL     1      -0.293  -2.772  -0.274  0.00  0.00    +0.045 C 
ATOM     12  C   UNL     1       0.939  -1.890  -0.483  0.00  0.00    +0.176 C 
ATOM     13  C   UNL     1       0.549  -0.597  -1.162  0.00  0.00    +0.019 C 
ATOM     14  C   UNL     1       0.859   0.391  -0.349  0.00  0.00    +0.041 C 
ATOM     15  N   UNL     1       1.423  -0.084   0.821  0.00  0.00    -0.269 N 
ATOM     16  O   UNL     1       1.494  -1.500   0.782  0.00  0.00    -0.267 OA
ATOM     17  C   UNL     1       0.630   1.849  -0.654  0.00  0.00    +0.065 C 
ATOM     18  H   UNL     1       1.726   0.469   1.559  0.00  0.00    +0.194 HD
ENDBRANCH  10  13
ENDBRANCH   9  10
ENDBRANCH   3   9
ENDBRANCH   1   6
BRANCH   1  19
ATOM     19  O   UNL     1      -0.278  -1.559  -9.782  0.00  0.00    -0.453 OA
BRANCH  19  20
ATOM     20  C   UNL     1      -0.788  -1.489 -11.115  0.00  0.00    +0.305 C 
BRANCH  20  21
ATOM     21  C   UNL     1       0.160  -2.192 -12.052  0.00  0.00    +0.161 C 
ATOM     22  N   UNL     1       1.241  -2.737 -11.549  0.00  0.00    -0.158 NA
ATOM     23  C   UNL     1       2.140  -3.386 -12.297  0.00  0.00    +0.271 C 
ATOM     24  O   UNL     1       3.137  -3.878 -11.797  0.00  0.00    -0.268 OA
ATOM     25  C   UNL     1       1.882  -3.489 -13.769  0.00  0.00    +0.071 C 
ATOM     26  C   UNL     1       2.610  -4.143 -14.692  0.00  0.00    -0.042 C 
ATOM     27  C   UNL     1       3.781  -5.064 -14.358  0.00  0.00    +0.033 C 
ATOM     28  C   UNL     1       3.477  -6.420 -15.011  0.00  0.00    +0.004 C 
ATOM     29  C   UNL     1       3.170  -6.235 -16.495  0.00  0.00    +0.002 C 
ATOM     30  C   UNL     1       1.907  -5.391 -16.688  0.00  0.00    +0.019 C 
ATOM     31  C   UNL     1       2.170  -3.985 -16.144  0.00  0.00    +0.079 C 
ATOM     32  S   UNL     1       0.589  -3.075 -15.966  0.00  0.00    -0.097 S 
ATOM     33  C   UNL     1       0.637  -2.826 -14.209  0.00  0.00    +0.112 C 
ATOM     34  N   UNL     1      -0.146  -2.232 -13.340  0.00  0.00    -0.224 NA
ENDBRANCH  20  21
ENDBRANCH  19  20
ENDBRANCH   1  19
TORSDOF 7
