REMARK  Name = ZINC39467519
REMARK  5 active torsions:
REMARK  status: ('A' for Active; 'I' for Inactive)
REMARK    1  A    between atoms: C_1  and  C_2
REMARK    2  A    between atoms: C_2  and  O_3
REMARK    3  A    between atoms: O_3  and  C_4
REMARK    4  A    between atoms: P_13  and  C_23
REMARK    5  A    between atoms: C_28  and  O_29
REMARK                            x       y       z     vdW  Elec       q    Type
REMARK                         _______ _______ _______ _____ _____    ______ ____
ROOT
ATOM      1  C   UNL     1      -1.498  -1.848   0.006  0.00  0.00    +0.130 C 
ATOM      2  C   UNL     1      -0.432  -2.651  -0.003  0.00  0.00    +0.024 C 
ATOM      3  C   UNL     1      -0.620  -4.145   0.001  0.00  0.00    +0.019 C 
ATOM      4  C   UNL     1       0.603  -4.833   0.588  0.00  0.00    -0.002 C 
ATOM      5  C   UNL     1       0.236  -6.195   1.194  0.00  0.00    -0.020 C 
ATOM      6  C   UNL     1       1.500  -7.058   1.067  0.00  0.00    +0.157 C 
ATOM      7  O   UNL     1       1.278  -8.358   1.635  0.00  0.00    -0.316 OA
ATOM      8  P   UNL     1      -0.047  -9.168   1.147  0.00  0.00    +0.291 P 
ATOM      9  O   UNL     1      -0.415 -10.202   2.140  0.00  0.00    -0.269 OA
ATOM     10  N   UNL     1      -1.228  -8.023   1.047  0.00  0.00    -0.288 NA
ATOM     11  N   UNL     1      -0.900  -6.796   0.507  0.00  0.00    +0.398 N 
ATOM     12  C   UNL     1      -2.131  -6.005   0.665  0.00  0.00    -0.046 C 
ATOM     13  C   UNL     1      -1.838  -4.509   0.848  0.00  0.00    +0.006 C 
ATOM     14  C   UNL     1      -3.024  -3.692   0.412  0.00  0.00    -0.006 C 
ATOM     15  C   UNL     1      -2.852  -2.436   0.016  0.00  0.00    +0.055 C 
ATOM     16 BR   UNL     1      -4.338  -1.408  -0.540  0.00  0.00    -0.047 Br
ATOM     17  H   UNL     1      -2.128  -8.213   1.355  0.00  0.00    +0.111 HD
ATOM     18  H   UNL     1      -0.687  -6.896  -0.474  0.00  0.00    -0.055 HD
ENDROOT
BRANCH   8  19
ATOM     19  C   UNL     1       0.240  -9.928  -0.476  0.00  0.00    +0.091 A 
ATOM     20  C   UNL     1      -0.053  -9.226  -1.629  0.00  0.00    +0.018 A 
ATOM     21  C   UNL     1       0.165  -9.804  -2.866  0.00  0.00    +0.001 A 
ATOM     22  C   UNL     1       0.677 -11.086  -2.951  0.00  0.00    +0.004 A 
ATOM     23  C   UNL     1       0.972 -11.792  -1.801  0.00  0.00    +0.046 A 
ATOM     24  C   UNL     1       0.759 -11.212  -0.559  0.00  0.00    +0.131 A 
BRANCH  24  25
ATOM     25  O   UNL     1       1.053 -11.902   0.574  0.00  0.00    -0.506 OA
ATOM     26  H   UNL     1       0.320 -12.433   0.913  0.00  0.00    +0.292 HD
ENDBRANCH  24  25
ENDBRANCH   8  19
BRANCH   1  27
ATOM     27  O   UNL     1      -1.339  -0.499   0.012  0.00  0.00    -0.491 OA
BRANCH  27  29
ATOM     28  C   UNL     1      -0.019   1.526   0.010  0.00  0.00    +0.048 C 
ATOM     29  C   UNL     1       0.002  -0.004   0.002  0.00  0.00    +0.226 C 
ENDBRANCH  27  29
ENDBRANCH   1  27
TORSDOF 4
