REMARK  Name = ZINC45867956
REMARK  7 active torsions:
REMARK  status: ('A' for Active; 'I' for Inactive)
REMARK    1  A    between atoms: C_1  and  C_2
REMARK    2  A    between atoms: C_5  and  N_9
REMARK    3  A    between atoms: C_6  and  C_8
REMARK    4  A    between atoms: C_10  and  C_12
REMARK    5  A    between atoms: C_12  and  C_13
REMARK    6  A    between atoms: C_25  and  C_27
REMARK    7  A    between atoms: C_27  and  N_28
REMARK                            x       y       z     vdW  Elec       q    Type
REMARK                         _______ _______ _______ _____ _____    ______ ____
ROOT
ATOM      1  C   UNL     1      -0.219  -7.032  -2.868  0.00  0.00    +0.176 C 
ATOM      2  C   UNL     1      -0.036  -8.489  -3.209  0.00  0.00    +0.239 C 
ATOM      3  O   UNL     1       1.083  -8.949  -3.291  0.00  0.00    -0.273 OA
ATOM      4  N   UNL     1      -1.101  -9.284  -3.424  0.00  0.00    -0.282 N 
ATOM      5  C   UNL     1      -2.400  -8.767  -3.386  0.00  0.00    +0.055 A 
ATOM      6  C   UNL     1      -3.498  -9.610  -3.315  0.00  0.00    +0.025 A 
ATOM      7  C   UNL     1      -4.773  -9.078  -3.283  0.00  0.00    +0.002 A 
ATOM      8  C   UNL     1      -4.961  -7.708  -3.323  0.00  0.00    +0.002 A 
ATOM      9  C   UNL     1      -3.871  -6.859  -3.392  0.00  0.00    +0.025 A 
ATOM     10  C   UNL     1      -2.592  -7.384  -3.421  0.00  0.00    +0.058 A 
ATOM     11  N   UNL     1      -1.465  -6.546  -3.479  0.00  0.00    -0.259 N 
ATOM     12  C   UNL     1      -1.523  -5.339  -4.075  0.00  0.00    +0.204 C 
ATOM     13  O   UNL     1      -0.515  -4.677  -4.203  0.00  0.00    -0.277 OA
ATOM     14  H   UNL     1      -0.966 -10.227  -3.608  0.00  0.00    +0.155 HD
ENDROOT
BRANCH   1  15
ATOM     15  C   UNL     1      -0.296  -6.868  -1.349  0.00  0.00    +0.128 C 
BRANCH  15  17
ATOM     16  N   UNL     1      -0.432  -5.015   0.285  0.00  0.00    -0.285 N 
ATOM     17  C   UNL     1      -0.359  -5.402  -1.004  0.00  0.00    +0.219 C 
ATOM     18  O   UNL     1      -0.344  -4.570  -1.887  0.00  0.00    -0.275 OA
ATOM     19  H   UNL     1      -0.383  -5.676   0.993  0.00  0.00    +0.155 HD
BRANCH  16  24
ATOM     20  C   UNL     1      -1.033   0.478   1.568  0.00  0.00    +0.044 C 
ATOM     21  C   UNL     1      -0.873  -0.981   1.227  0.00  0.00    -0.050 A 
ATOM     22  C   UNL     1      -0.131  -1.355   0.121  0.00  0.00    +0.005 A 
ATOM     23  C   UNL     1       0.017  -2.691  -0.194  0.00  0.00    +0.024 A 
ATOM     24  C   UNL     1      -0.580  -3.660   0.602  0.00  0.00    +0.036 A 
ATOM     25  C   UNL     1      -1.324  -3.282   1.711  0.00  0.00    -0.029 A 
ATOM     26  C   UNL     1      -1.464  -1.944   2.024  0.00  0.00    +0.008 A 
ATOM     27  C   UNL     1      -1.974  -4.331   2.577  0.00  0.00    +0.045 C 
ENDBRANCH  16  24
ENDBRANCH  15  17
ENDBRANCH   1  15
BRANCH  12  28
ATOM     28  C   UNL     1      -2.841  -4.812  -4.583  0.00  0.00    +0.020 C 
BRANCH  28  29
ATOM     29  N   UNL     1      -2.607  -3.609  -5.393  0.00  0.00    +0.388 N 
ATOM     30  C   UNL     1      -3.900  -3.015  -5.759  0.00  0.00    -0.073 C 
ATOM     31  C   UNL     1      -3.658  -1.599  -6.311  0.00  0.00    +0.024 C 
ATOM     32  C   UNL     1      -2.544  -1.687  -7.302  0.00  0.00    -0.011 A 
ATOM     33  C   UNL     1      -1.695  -2.740  -7.475  0.00  0.00    -0.054 A 
ATOM     34  C   UNL     1      -0.730  -2.603  -8.469  0.00  0.00    +0.009 A 
ATOM     35  C   UNL     1      -0.668  -1.466  -9.201  0.00  0.00    +0.045 A 
ATOM     36  S   UNL     1      -2.006  -0.507  -8.506  0.00  0.00    -0.101 S 
ATOM     37  C   UNL     1      -1.843  -3.975  -6.592  0.00  0.00    -0.042 C 
ATOM     38  H   UNL     1      -2.077  -2.943  -4.852  0.00  0.00    -0.081 HD
ENDBRANCH  28  29
ENDBRANCH  12  28
TORSDOF 5
