REMARK  Name = ZINC22535495
REMARK  4 active torsions:
REMARK  status: ('A' for Active; 'I' for Inactive)
REMARK    1  A    between atoms: C_1  and  O_2
REMARK    2  A    between atoms: O_2  and  C_3
REMARK    3  A    between atoms: C_6  and  C_9
REMARK    4  A    between atoms: N_26  and  C_27
REMARK                            x       y       z     vdW  Elec       q    Type
REMARK                         _______ _______ _______ _____ _____    ______ ____
ROOT
ATOM      1  C   UNL     1       5.902   1.927  -0.028  0.00  0.00    +0.141 C 
ATOM      2  C   UNL     1       6.566   3.221  -0.408  0.00  0.00    +0.063 A 
ATOM      3  C   UNL     1       5.857   4.389  -0.385  0.00  0.00    +0.053 A 
ATOM      4  C   UNL     1       6.533   5.638  -0.755  0.00  0.00    +0.020 A 
ATOM      5  C   UNL     1       5.860   6.861  -0.747  0.00  0.00    +0.012 A 
ATOM      6  C   UNL     1       6.524   8.003  -1.099  0.00  0.00    +0.001 A 
ATOM      7  C   UNL     1       7.862   7.957  -1.463  0.00  0.00    +0.002 A 
ATOM      8  C   UNL     1       8.546   6.760  -1.477  0.00  0.00    +0.026 A 
ATOM      9  C   UNL     1       7.889   5.586  -1.124  0.00  0.00    +0.051 A 
ATOM     10  N   UNL     1       8.546   4.372  -1.129  0.00  0.00    -0.322 N 
ATOM     11  H   UNL     1       9.607   4.322  -1.417  0.00  0.00    +0.169 HD
ATOM     12  C   UNL     1       7.918   3.235  -0.788  0.00  0.00    +0.256 A 
ATOM     13  O   UNL     1       8.538   2.185  -0.809  0.00  0.00    -0.267 OA
ATOM     14  N   UNL     1       4.527   4.380  -0.023  0.00  0.00    -0.286 N 
ATOM     15  C   UNL     1       3.835   3.189  -0.017  0.00  0.00    +0.188 C 
ATOM     16  N   UNL     1       4.451   2.052  -0.029  0.00  0.00    -0.306 N 
ATOM     17  N   UNL     1       2.457   3.209  -0.004  0.00  0.00    -0.192 NA
ATOM     18  H   UNL     1       4.027   5.319   0.257  0.00  0.00    +0.155 HD
ATOM     19  H   UNL     1       3.821   1.150  -0.041  0.00  0.00    +0.150 HD
ENDROOT
BRANCH  17  20
ATOM     20  C   UNL     1       1.748   2.021  -0.004  0.00  0.00    +0.196 A 
ATOM     21  N   UNL     1       2.204   0.790  -0.015  0.00  0.00    -0.221 NA
ATOM     22  C   UNL     1       1.387  -0.286  -0.013  0.00  0.00    +0.081 A 
ATOM     23  C   UNL     1       1.745  -1.654  -0.024  0.00  0.00    +0.029 A 
ATOM     24  C   UNL     1       0.783  -2.630  -0.020  0.00  0.00    +0.002 A 
ATOM     25  C   UNL     1      -0.568  -2.316  -0.006  0.00  0.00    +0.001 A 
ATOM     26  C   UNL     1      -0.955  -0.988   0.005  0.00  0.00    +0.017 A 
ATOM     27  C   UNL     1       0.002  -0.004   0.002  0.00  0.00    +0.041 A 
ATOM     28  S   UNL     1      -0.022   1.772   0.012  0.00  0.00    -0.048 S 
ENDBRANCH  17  20
BRANCH   1  32
ATOM     29  C   UNL     1       7.203   0.785   3.880  0.00  0.00    +0.120 A 
ATOM     30  C   UNL     1       7.800   0.229   2.758  0.00  0.00    +0.046 A 
ATOM     31  C   UNL     1       7.378   0.599   1.496  0.00  0.00    +0.009 A 
ATOM     32  C   UNL     1       6.361   1.524   1.350  0.00  0.00    -0.022 A 
ATOM     33  C   UNL     1       5.767   2.084   2.466  0.00  0.00    +0.009 A 
ATOM     34  C   UNL     1       6.182   1.713   3.730  0.00  0.00    +0.046 A 
BRANCH  29  36
ATOM     35  C   UNL     1       6.956   1.036   6.231  0.00  0.00    +0.277 C 
ATOM     36  O   UNL     1       7.617   0.423   5.122  0.00  0.00    -0.495 OA
ENDBRANCH  29  36
ENDBRANCH   1  32
TORSDOF 3
