REMARK  Name = ZINC42740552
REMARK  3 active torsions:
REMARK  status: ('A' for Active; 'I' for Inactive)
REMARK    1  A    between atoms: C_1  and  C_2
REMARK    2  A    between atoms: N_11  and  C_12
REMARK    3  A    between atoms: C_15  and  N_21
REMARK                            x       y       z     vdW  Elec       q    Type
REMARK                         _______ _______ _______ _____ _____    ______ ____
ROOT
ATOM      1  C   UNL     1       1.455   0.369   1.988  0.00  0.00    +0.062 A 
ATOM      2  C   UNL     1       0.880   1.032   3.026  0.00  0.00    +0.027 A 
ATOM      3  C   UNL     1       1.595   1.910   3.842  0.00  0.00    +0.027 A 
ATOM      4  C   UNL     1       2.918   2.163   3.657  0.00  0.00    +0.056 A 
ATOM      5  C   UNL     1       3.635   1.499   2.565  0.00  0.00    +0.157 A 
ATOM      6  C   UNL     1       2.880   0.567   1.704  0.00  0.00    +0.157 A 
ATOM      7  N   UNL     1       3.702   0.084   0.806  0.00  0.00    -0.047 NA
ATOM      8  O   UNL     1       4.981   0.652   1.034  0.00  0.00    -0.241 OA
ATOM      9  N   UNL     1       4.874   1.533   2.139  0.00  0.00    -0.047 NA
ENDROOT
BRANCH   1  19
ATOM     10  C   UNL     1      -0.019   1.526   0.010  0.00  0.00    +0.033 C 
ATOM     11  C   UNL     1       0.002  -0.004   0.002  0.00  0.00    +0.101 C 
ATOM     12  C   UNL     1      -1.428  -0.541   0.033  0.00  0.00    -0.017 A 
ATOM     13  C   UNL     1      -2.439  -0.067  -0.801  0.00  0.00    +0.013 A 
ATOM     14  C   UNL     1      -3.683  -0.593  -0.722  0.00  0.00    +0.046 A 
ATOM     15  S   UNL     1      -3.485  -1.814   0.567  0.00  0.00    -0.101 S 
ATOM     16  C   UNL     1      -1.767  -1.530   0.903  0.00  0.00    -0.004 A 
ATOM     17  C   UNL     1      -0.893  -2.210   1.907  0.00  0.00    +0.061 C 
ATOM     18  C   UNL     1       0.575  -1.920   1.558  0.00  0.00    +0.111 C 
ATOM     19  N   UNL     1       0.695  -0.499   1.200  0.00  0.00    -0.321 N 
ENDBRANCH   1  19
BRANCH   4  20
ATOM     20  N   UNL     1       3.589   3.051   4.502  0.00  0.00    -0.356 N 
ATOM     21  H   UNL     1       3.111   3.489   5.224  0.00  0.00    +0.142 HD
ATOM     22  H   UNL     1       4.533   3.230   4.367  0.00  0.00    +0.142 HD
ENDBRANCH   4  20
TORSDOF 2
