REMARK  Name = ZINC34787114
REMARK  9 active torsions:
REMARK  status: ('A' for Active; 'I' for Inactive)
REMARK    1  A    between atoms: C_1  and  C_2
REMARK    2  A    between atoms: C_5  and  N_8
REMARK    3  A    between atoms: N_8  and  N_9
REMARK    4  A    between atoms: N_9  and  N_28
REMARK    5  A    between atoms: C_12  and  C_27
REMARK    6  A    between atoms: C_13  and  C_26
REMARK    7  A    between atoms: C_20  and  C_25
REMARK    8  A    between atoms: C_22  and  C_24
REMARK    9  A    between atoms: N_28  and  C_29
REMARK                            x       y       z     vdW  Elec       q    Type
REMARK                         _______ _______ _______ _____ _____    ______ ____
ROOT
ATOM      1  N   UNL     1       0.405  -4.680   1.738  0.00  0.00    -0.166 N 
ATOM      2  C   UNL     1      -0.633  -5.152   2.521  0.00  0.00    +0.167 A 
ATOM      3  C   UNL     1      -0.720  -6.536   2.840  0.00  0.00    +0.054 A 
ATOM      4  C   UNL     1       0.154  -7.633   2.461  0.00  0.00    -0.028 A 
ATOM      5  C   UNL     1      -0.130  -8.873   2.884  0.00  0.00    -0.008 A 
ATOM      6  S   UNL     1      -1.619  -8.656   3.840  0.00  0.00    -0.073 S 
ATOM      7  C   UNL     1      -1.820  -6.905   3.645  0.00  0.00    +0.116 A 
ATOM      8  N   UNL     1      -2.696  -6.014   4.064  0.00  0.00    -0.203 NA
ATOM      9  C   UNL     1      -2.563  -4.738   3.735  0.00  0.00    +0.254 A 
ATOM     10  N   UNL     1      -1.551  -4.322   2.985  0.00  0.00    -0.192 NA
ATOM     11  N   UNL     1      -3.503  -3.813   4.190  0.00  0.00    -0.202 N 
ATOM     12  C   UNL     1      -4.582  -4.085   4.969  0.00  0.00    +0.045 A 
ATOM     13  C   UNL     1      -5.235  -2.920   5.185  0.00  0.00    +0.048 A 
ATOM     14  C   UNL     1      -4.538  -1.905   4.519  0.00  0.00    +0.061 A 
ATOM     15  N   UNL     1      -3.499  -2.437   3.929  0.00  0.00    -0.169 NA
ATOM     16  C   UNL     1      -4.917  -0.447   4.492  0.00  0.00    +0.067 C 
ATOM     17  C   UNL     1      -4.979  -5.439   5.498  0.00  0.00    +0.066 C 
ATOM     18  C   UNL     1       0.629 -10.147   2.616  0.00  0.00    +0.052 C 
ATOM     19  C   UNL     1       1.366  -7.380   1.601  0.00  0.00    +0.045 C 
ENDROOT
BRANCH   1  20
ATOM     20  N   UNL     1       0.131  -3.893   0.612  0.00  0.00    -0.249 N 
ATOM     21  H   UNL     1       0.145  -4.290  -0.273  0.00  0.00    +0.172 HD
BRANCH  20  26
ATOM     22  C   UNL     1      -1.063   1.617   1.225  0.00  0.00    +0.044 C 
ATOM     23  C   UNL     1      -0.746   0.153   1.062  0.00  0.00    -0.050 A 
ATOM     24  C   UNL     1      -0.750  -0.418  -0.197  0.00  0.00    +0.005 A 
ATOM     25  C   UNL     1      -0.460  -1.759  -0.350  0.00  0.00    +0.025 A 
ATOM     26  C   UNL     1      -0.163  -2.536   0.763  0.00  0.00    +0.046 A 
ATOM     27  C   UNL     1      -0.160  -1.959   2.027  0.00  0.00    +0.025 A 
ATOM     28  C   UNL     1      -0.447  -0.616   2.172  0.00  0.00    +0.005 A 
ENDBRANCH  20  26
ENDBRANCH   1  20
BRANCH   1  29
ATOM     29  N   UNL     1       1.697  -4.980   2.062  0.00  0.00    -0.218 NA
ATOM     30  H   UNL     1       2.293  -4.940   1.249  0.00  0.00    +0.146 HD
BRANCH  29  31
ATOM     31  C   UNL     1       2.193  -4.093   3.123  0.00  0.00    +0.075 C 
ATOM     32  C   UNL     1       2.956  -2.925   2.496  0.00  0.00    +0.020 C 
ATOM     33  C   UNL     1       3.473  -2.001   3.600  0.00  0.00    +0.002 C 
ATOM     34  C   UNL     1       4.409  -2.784   4.523  0.00  0.00    +0.000 C 
ATOM     35  C   UNL     1       3.647  -3.953   5.151  0.00  0.00    +0.002 C 
ATOM     36  C   UNL     1       3.130  -4.876   4.046  0.00  0.00    +0.020 C 
ENDBRANCH  29  31
ENDBRANCH   1  29
TORSDOF 4
