REMARK  Name = ZINC24586468
REMARK  8 active torsions:
REMARK  status: ('A' for Active; 'I' for Inactive)
REMARK    1  A    between atoms: C_1  and  C_2
REMARK    2  A    between atoms: C_2  and  C_33
REMARK    3  A    between atoms: N_5  and  C_9
REMARK    4  A    between atoms: C_9  and  C_10
REMARK    5  A    between atoms: N_12  and  C_13
REMARK    6  A    between atoms: C_13  and  C_14
REMARK    7  A    between atoms: C_14  and  C_16
REMARK    8  A    between atoms: C_14  and  C_23
REMARK                            x       y       z     vdW  Elec       q    Type
REMARK                         _______ _______ _______ _____ _____    ______ ____
ROOT
ATOM      1  C   UNL     1      -3.158   3.408   3.084  0.00  0.00    +0.117 C 
ENDROOT
BRANCH   1   4
ATOM      2  C   UNL     1      -1.652   2.419   1.444  0.00  0.00    +0.231 C 
ATOM      3  O   UNL     1      -0.989   1.980   2.360  0.00  0.00    -0.274 OA
ATOM      4  N   UNL     1      -2.757   3.147   1.700  0.00  0.00    -0.313 N 
ATOM      5  H   UNL     1      -3.357   3.545   0.869  0.00  0.00    +0.149 HD
BRANCH   2   6
ATOM      6  C   UNL     1      -1.239   2.150   0.020  0.00  0.00    +0.213 C 
BRANCH   6  11
ATOM      7  C   UNL     1       1.798  -1.190  -1.278  0.00  0.00    +0.042 C 
ATOM      8  C   UNL     1       1.467  -0.394  -0.014  0.00  0.00    +0.113 C 
ATOM      9  C   UNL     1       0.002  -0.004   0.002  0.00  0.00    +0.247 C 
ATOM     10  O   UNL     1      -0.954  -0.749   0.008  0.00  0.00    -0.273 OA
ATOM     11  N   UNL     1      -0.016   1.343   0.009  0.00  0.00    -0.215 N 
ATOM     12  C   UNL     1       1.220   1.854   0.000  0.00  0.00    +0.310 C 
ATOM     13  O   UNL     1       1.460   3.045   0.005  0.00  0.00    -0.252 OA
ATOM     14  N   UNL     1       2.170   0.901  -0.014  0.00  0.00    -0.285 N 
ATOM     15  H   UNL     1       3.269   0.929  -0.024  0.00  0.00    +0.151 HD
BRANCH   8  16
ATOM     16  C   UNL     1       1.823  -1.200   1.237  0.00  0.00    +0.021 C 
ATOM     17  C   UNL     1       2.746  -0.541   2.263  0.00  0.00    +0.006 C 
ATOM     18  C   UNL     1       3.270  -1.677   1.382  0.00  0.00    +0.006 C 
ENDBRANCH   8  16
ENDBRANCH   6  11
ENDBRANCH   2   6
ENDBRANCH   1   4
BRANCH   1  19
ATOM     19  C   UNL     1      -4.435   4.250   3.095  0.00  0.00    +0.069 C 
BRANCH  19  20
ATOM     20  C   UNL     1      -4.779   4.622   4.514  0.00  0.00    -0.013 A 
ATOM     21  C   UNL     1      -5.039   3.774   5.522  0.00  0.00    +0.088 A 
ATOM     22  N   UNL     1      -5.310   4.476   6.665  0.00  0.00    -0.360 N 
ATOM     23  H   UNL     1      -5.547   3.941   7.596  0.00  0.00    +0.165 HD
ATOM     24  C   UNL     1      -5.229   5.827   6.414  0.00  0.00    +0.047 A 
ATOM     25  C   UNL     1      -4.888   5.979   5.058  0.00  0.00    +0.003 A 
ATOM     26  C   UNL     1      -4.741   7.256   4.514  0.00  0.00    +0.010 A 
ATOM     27  C   UNL     1      -4.920   8.355   5.307  0.00  0.00    +0.001 A 
ATOM     28  C   UNL     1      -5.252   8.211   6.647  0.00  0.00    +0.002 A 
ATOM     29  C   UNL     1      -5.407   6.960   7.202  0.00  0.00    +0.026 A 
ENDBRANCH  19  20
BRANCH  19  30
ATOM     30  C   UNL     1      -5.566   3.455   2.496  0.00  0.00    -0.020 A 
ATOM     31  C   UNL     1      -5.950   2.258   3.071  0.00  0.00    +0.006 A 
ATOM     32  C   UNL     1      -6.988   1.528   2.521  0.00  0.00    +0.000 A 
ATOM     33  C   UNL     1      -7.642   1.995   1.396  0.00  0.00    +0.001 A 
ATOM     34  C   UNL     1      -7.259   3.192   0.821  0.00  0.00    +0.020 A 
ATOM     35  C   UNL     1      -6.224   3.925   1.373  0.00  0.00    +0.045 A 
ATOM     36 CL   UNL     1      -5.747   5.432   0.655  0.00  0.00    -0.083 Cl
ENDBRANCH  19  30
ENDBRANCH   1  19
TORSDOF 7
