REMARK  Name = ZINC03840739
REMARK  12 active torsions:
REMARK  status: ('A' for Active; 'I' for Inactive)
REMARK    1  A    between atoms: C_1  and  C_2
REMARK    2  A    between atoms: C_10  and  C_12
REMARK    3  A    between atoms: C_12  and  C_13
REMARK    4  A    between atoms: C_13  and  C_14
REMARK    5  A    between atoms: C_13  and  C_15
REMARK    6  A    between atoms: C_13  and  C_16
REMARK    7  A    between atoms: C_18  and  C_39
REMARK    8  A    between atoms: C_21  and  O_38
REMARK    9  A    between atoms: C_23  and  C_27
REMARK   10  A    between atoms: C_27  and  C_29
REMARK   11  A    between atoms: C_27  and  C_30
REMARK   12  A    between atoms: C_37  and  N_79
REMARK                            x       y       z     vdW  Elec       q    Type
REMARK                         _______ _______ _______ _____ _____    ______ ____
ROOT
ATOM      1  C   UNL     1      -0.635   1.777  -3.650  0.00  0.00    +0.014 C 
ATOM      2  C   UNL     1      -0.118   0.957  -2.466  0.00  0.00    +0.042 C 
ATOM      3  C   UNL     1      -0.504  -0.505  -2.652  0.00  0.00    +0.057 A 
ATOM      4  C   UNL     1      -1.549  -1.029  -1.960  0.00  0.00    +0.015 A 
ATOM      5  S   UNL     1      -1.583  -2.710  -2.522  0.00  0.00    -0.057 S 
ATOM      6  C   UNL     1      -0.234  -2.598  -3.612  0.00  0.00    +0.165 A 
ATOM      7  N   UNL     1       0.129  -1.339  -3.474  0.00  0.00    -0.229 NA
ATOM      8  N   UNL     1       0.321  -3.583  -4.421  0.00  0.00    -0.265 N 
ATOM      9  C   UNL     1      -0.199  -4.826  -4.421  0.00  0.00    +0.219 C 
ATOM     10  O   UNL     1      -1.151  -5.085  -3.715  0.00  0.00    -0.275 OA
ATOM     11  C   UNL     1      -2.433  -0.340  -0.979  0.00  0.00    +0.051 C 
ATOM     12  C   UNL     1      -2.239   1.180  -1.122  0.00  0.00    -0.022 C 
ATOM     13  C   UNL     1      -0.737   1.481  -1.176  0.00  0.00    +0.033 C 
ATOM     14  C   UNL     1      -0.055   0.864   0.044  0.00  0.00    +0.123 C 
ATOM     15  C   UNL     1      -0.633   1.494   1.314  0.00  0.00    +0.029 C 
ATOM     16  C   UNL     1      -2.143   1.249   1.370  0.00  0.00    +0.007 C 
ATOM     17  C   UNL     1      -2.815   1.851   0.134  0.00  0.00    +0.008 C 
ATOM     18  C   UNL     1      -2.934   1.693  -2.385  0.00  0.00    +0.012 C 
ATOM     19  H   UNL     1       1.082  -3.375  -4.985  0.00  0.00    +0.157 HD
ENDROOT
BRANCH  15  20
ATOM     20  C   UNL     1       0.033   0.868   2.541  0.00  0.00    +0.078 C 
ATOM     21  C   UNL     1      -0.326  -0.618   2.614  0.00  0.00    +0.017 C 
BRANCH  20  22
ATOM     22  C   UNL     1      -0.453   1.564   3.787  0.00  0.00    +0.219 C 
ATOM     23  O   UNL     1      -1.389   1.109   4.409  0.00  0.00    -0.275 OA
ATOM     24  N   UNL     1       0.154   2.691   4.209  0.00  0.00    -0.305 N 
ATOM     25  C   UNL     1       1.229   3.311   3.419  0.00  0.00    +0.089 C 
ATOM     26  C   UNL     1       0.891   4.798   3.228  0.00  0.00    -0.060 C 
ATOM     27  C   UNL     1      -0.515   4.814   5.204  0.00  0.00    -0.060 C 
ATOM     28  C   UNL     1      -0.238   3.331   5.474  0.00  0.00    +0.089 C 
ATOM     29  C   UNL     1       0.496   6.869   4.418  0.00  0.00    -0.096 C 
ATOM     30  N   UNL     1       0.675   5.409   4.557  0.00  0.00    +0.380 N 
ATOM     31  H   UNL     1       1.498   5.228   5.144  0.00  0.00    -0.082 HD
ENDBRANCH  20  22
ENDBRANCH  15  20
BRANCH  14  32
ATOM     32  O   UNL     1       1.351   1.114  -0.017  0.00  0.00    -0.391 OA
ATOM     33  H   UNL     1       1.838   0.810   0.760  0.00  0.00    +0.210 HD
ENDBRANCH  14  32
BRANCH   9  34
ATOM     34  C   UNL     1       0.402  -5.894  -5.298  0.00  0.00    +0.102 C 
BRANCH  34  35
ATOM     35  C   UNL     1      -0.370  -7.202  -5.110  0.00  0.00    -0.029 C 
ATOM     36  C   UNL     1      -1.835  -6.990  -5.497  0.00  0.00    +0.011 C 
ATOM     37  C   UNL     1       0.240  -8.286  -6.001  0.00  0.00    +0.011 C 
ATOM     38  C   UNL     1      -0.287  -7.638  -3.646  0.00  0.00    +0.011 C 
ENDBRANCH  34  35
ENDBRANCH   9  34
TORSDOF 5
