REMARK  Name = ZINC39723026
REMARK  9 active torsions:
REMARK  status: ('A' for Active; 'I' for Inactive)
REMARK    1  A    between atoms: C_1  and  C_2
REMARK    2  A    between atoms: C_2  and  C_3
REMARK    3  A    between atoms: C_3  and  N_4
REMARK    4  A    between atoms: N_13  and  C_14
REMARK    5  A    between atoms: C_14  and  C_16
REMARK    6  A    between atoms: C_21  and  N_22
REMARK    7  A    between atoms: N_22  and  S_23
REMARK    8  A    between atoms: S_23  and  C_26
REMARK    9  A    between atoms: C_29  and  C_32
REMARK                            x       y       z     vdW  Elec       q    Type
REMARK                         _______ _______ _______ _____ _____    ______ ____
ROOT
ATOM      1  C   UNL     1      -3.189  -2.586  -3.797  0.00  0.00    +0.061 A 
ATOM      2  C   UNL     1      -3.216  -1.205  -3.995  0.00  0.00    +0.015 A 
ATOM      3  C   UNL     1      -4.274  -0.626  -4.662  0.00  0.00    +0.001 A 
ATOM      4  C   UNL     1      -5.313  -1.409  -5.137  0.00  0.00    +0.002 A 
ATOM      5  C   UNL     1      -5.301  -2.776  -4.949  0.00  0.00    +0.025 A 
ATOM      6  C   UNL     1      -4.239  -3.377  -4.285  0.00  0.00    +0.060 A 
ENDROOT
BRANCH   1   7
ATOM      7  C   UNL     1      -2.057  -3.213  -3.083  0.00  0.00    +0.271 C 
ATOM      8  O   UNL     1      -2.034  -4.421  -2.916  0.00  0.00    -0.268 OA
BRANCH   7  18
ATOM      9  N   UNL     1       1.061  -2.426  -1.435  0.00  0.00    -0.319 N 
ATOM     10  C   UNL     1       2.022  -3.191  -0.793  0.00  0.00    +0.093 A 
ATOM     11  C   UNL     1       3.206  -2.741  -0.180  0.00  0.00    +0.151 A 
ATOM     12  C   UNL     1       4.070  -3.627   0.422  0.00  0.00    +0.078 A 
ATOM     13  C   UNL     1       3.803  -4.988   0.444  0.00  0.00    +0.127 A 
ATOM     14  C   UNL     1       2.644  -5.457  -0.151  0.00  0.00    +0.055 A 
ATOM     15  C   UNL     1       1.781  -4.571  -0.753  0.00  0.00    +0.044 A 
ATOM     16  S   UNL     1       0.233  -4.744  -1.607  0.00  0.00    -0.052 S 
ATOM     17  C   UNL     1      -0.039  -3.018  -1.976  0.00  0.00    +0.167 A 
ATOM     18  N   UNL     1      -1.057  -2.455  -2.619  0.00  0.00    -0.152 NA
ATOM     19  F   UNL     1       4.662  -5.844   1.039  0.00  0.00    -0.205 F 
ATOM     20  F   UNL     1       3.500  -1.423  -0.184  0.00  0.00    -0.203 F 
BRANCH   9  21
ATOM     21  C   UNL     1       1.227  -0.973  -1.527  0.00  0.00    +0.124 C 
BRANCH  21  23
ATOM     22  C   UNL     1       0.757   1.208  -0.404  0.00  0.00    +0.005 C 
ATOM     23  C   UNL     1       0.584  -0.309  -0.308  0.00  0.00    +0.018 C 
ENDBRANCH  21  23
ENDBRANCH   9  21
ENDBRANCH   7  18
ENDBRANCH   1   7
BRANCH   6  24
ATOM     24  N   UNL     1      -4.221  -4.754  -4.100  0.00  0.00    -0.216 N 
ATOM     25  H   UNL     1      -3.853  -5.129  -3.284  0.00  0.00    +0.174 HD
BRANCH  24  26
ATOM     26  S   UNL     1      -4.827  -5.755  -5.271  0.00  0.00    +0.072 S 
ATOM     27  O   UNL     1      -4.549  -7.085  -4.854  0.00  0.00    -0.150 OA
ATOM     28  O   UNL     1      -6.146  -5.304  -5.548  0.00  0.00    -0.150 OA
BRANCH  26  29
ATOM     29  C   UNL     1      -3.883  -5.479  -6.733  0.00  0.00    +0.109 A 
ATOM     30  C   UNL     1      -4.277  -4.510  -7.637  0.00  0.00    +0.029 A 
ATOM     31  C   UNL     1      -3.537  -4.293  -8.784  0.00  0.00    +0.005 A 
ATOM     32  C   UNL     1      -2.402  -5.044  -9.026  0.00  0.00    -0.050 A 
ATOM     33  C   UNL     1      -2.007  -6.011  -8.121  0.00  0.00    +0.005 A 
ATOM     34  C   UNL     1      -2.745  -6.226  -6.973  0.00  0.00    +0.029 A 
ATOM     35  C   UNL     1      -1.595  -4.808 -10.277  0.00  0.00    +0.044 C 
ENDBRANCH  26  29
ENDBRANCH  24  26
ENDBRANCH   6  24
TORSDOF 7
