REMARK  Name = ZINC02108536
REMARK  8 active torsions:
REMARK  status: ('A' for Active; 'I' for Inactive)
REMARK    1  A    between atoms: C_1  and  C_2
REMARK    2  A    between atoms: C_5  and  S_8
REMARK    3  A    between atoms: S_8  and  N_11
REMARK    4  A    between atoms: N_11  and  C_12
REMARK    5  A    between atoms: C_12  and  C_14
REMARK    6  A    between atoms: C_12  and  C_25
REMARK    7  A    between atoms: C_14  and  C_15
REMARK    8  A    between atoms: C_30  and  O_38
REMARK                            x       y       z     vdW  Elec       q    Type
REMARK                         _______ _______ _______ _____ _____    ______ ____
ROOT
ATOM      1  C   UNL     1       1.201   1.368  -0.130  0.00  0.00    +0.167 C 
ENDROOT
BRANCH   1   2
ATOM      2  C   UNL     1       2.333   0.511  -0.637  0.00  0.00    +0.235 C 
ATOM      3  O   UNL     1       2.128  -0.643  -0.945  0.00  0.00    -0.274 OA
ATOM      4  N   UNL     1       3.572   1.029  -0.748  0.00  0.00    -0.300 N 
ATOM      5  C   UNL     1       3.859   2.393  -0.283  0.00  0.00    +0.110 C 
ATOM      6  C   UNL     1       4.505   3.178  -1.428  0.00  0.00    +0.054 C 
ATOM      7  C   UNL     1       5.734   2.419  -1.935  0.00  0.00    +0.072 C 
ATOM      8  C   UNL     1       6.388   3.216  -3.067  0.00  0.00    +0.035 C 
ATOM      9  C   UNL     1       5.378   3.408  -4.200  0.00  0.00    +0.003 C 
ATOM     10  C   UNL     1       4.937   2.042  -4.729  0.00  0.00    +0.001 C 
ATOM     11  C   UNL     1       4.291   1.240  -3.598  0.00  0.00    +0.008 C 
ATOM     12  C   UNL     1       5.305   1.046  -2.459  0.00  0.00    +0.038 C 
ATOM     13  C   UNL     1       4.665   0.238  -1.331  0.00  0.00    +0.114 C 
BRANCH   7  14
ATOM     14  O   UNL     1       6.668   2.252  -0.866  0.00  0.00    -0.388 OA
ATOM     15  H   UNL     1       6.984   3.083  -0.486  0.00  0.00    +0.210 HD
ENDBRANCH   7  14
ENDBRANCH   1   2
BRANCH   1  16
ATOM     16  N   UNL     1      -0.078   0.743  -0.476  0.00  0.00    -0.178 NA
ATOM     17  H   UNL     1      -0.162  -0.223  -0.473  0.00  0.00    +0.149 HD
BRANCH  16  18
ATOM     18  S   UNL     1      -1.377   1.686  -0.881  0.00  0.00    +0.059 S 
ATOM     19  O   UNL     1      -2.448   0.798  -1.173  0.00  0.00    -0.153 OA
ATOM     20  O   UNL     1      -1.474   2.694   0.116  0.00  0.00    -0.153 OA
BRANCH  18  25
ATOM     21  C   UNL     1      -0.007   4.492  -6.044  0.00  0.00    +0.044 C 
ATOM     22  C   UNL     1      -0.350   3.791  -4.755  0.00  0.00    -0.050 A 
ATOM     23  C   UNL     1      -0.975   2.558  -4.783  0.00  0.00    +0.005 A 
ATOM     24  C   UNL     1      -1.288   1.915  -3.600  0.00  0.00    +0.029 A 
ATOM     25  C   UNL     1      -0.977   2.505  -2.389  0.00  0.00    +0.105 A 
ATOM     26  C   UNL     1      -0.357   3.740  -2.361  0.00  0.00    +0.029 A 
ATOM     27  C   UNL     1      -0.040   4.381  -3.544  0.00  0.00    +0.005 A 
ENDBRANCH  18  25
ENDBRANCH  16  18
ENDBRANCH   1  16
BRANCH   1  28
ATOM     28  C   UNL     1       1.306   1.505   1.390  0.00  0.00    +0.067 C 
BRANCH  28  29
ATOM     29  C   UNL     1       1.369   0.135   2.015  0.00  0.00    -0.020 A 
ATOM     30  C   UNL     1       0.329  -0.586   2.464  0.00  0.00    +0.087 A 
ATOM     31  N   UNL     1       0.770  -1.782   2.962  0.00  0.00    -0.360 N 
ATOM     32  H   UNL     1       0.203  -2.471   3.340  0.00  0.00    +0.165 HD
ATOM     33  C   UNL     1       2.141  -1.858   2.850  0.00  0.00    +0.047 A 
ATOM     34  C   UNL     1       2.576  -0.661   2.252  0.00  0.00    +0.003 A 
ATOM     35  C   UNL     1       3.935  -0.456   2.012  0.00  0.00    +0.010 A 
ATOM     36  C   UNL     1       4.839  -1.421   2.361  0.00  0.00    +0.001 A 
ATOM     37  C   UNL     1       4.415  -2.603   2.951  0.00  0.00    +0.002 A 
ATOM     38  C   UNL     1       3.078  -2.826   3.197  0.00  0.00    +0.026 A 
ENDBRANCH  28  29
ENDBRANCH   1  28
TORSDOF 7
