REMARK  Name = ZINC00938443
REMARK  9 active torsions:
REMARK  status: ('A' for Active; 'I' for Inactive)
REMARK    1  A    between atoms: C_1  and  C_2
REMARK    2  A    between atoms: C_7  and  C_8
REMARK    3  A    between atoms: C_12  and  C_15
REMARK    4  A    between atoms: C_15  and  C_16
REMARK    5  A    between atoms: N_18  and  C_19
REMARK    6  A    between atoms: C_20  and  C_30
REMARK    7  A    between atoms: C_25  and  C_29
REMARK    8  A    between atoms: C_30  and  O_32
REMARK    9  A    between atoms: O_32  and  C_33
REMARK                            x       y       z     vdW  Elec       q    Type
REMARK                         _______ _______ _______ _____ _____    ______ ____
ROOT
ATOM      1  C   UNL     1       5.093   5.046   0.519  0.00  0.00    +0.220 C 
ATOM      2  O   UNL     1       5.762   4.109   0.139  0.00  0.00    -0.275 OA
ATOM      3  N   UNL     1       3.757   4.915   0.638  0.00  0.00    -0.279 N 
ATOM      4  H   UNL     1       3.221   5.665   0.942  0.00  0.00    +0.155 HD
ENDROOT
BRANCH   3   5
ATOM      5  C   UNL     1       3.147   3.710   0.326  0.00  0.00    +0.086 A 
ATOM      6  C   UNL     1       1.799   3.384   0.384  0.00  0.00    +0.091 A 
ATOM      7  C   UNL     1       1.417   2.035  -0.001  0.00  0.00    -0.021 A 
ATOM      8  C   UNL     1       2.437   1.235  -0.379  0.00  0.00    -0.004 A 
ATOM      9  S   UNL     1       3.884   2.244  -0.231  0.00  0.00    -0.077 S 
ATOM     10  C   UNL     1       2.347  -0.192  -0.825  0.00  0.00    +0.046 C 
ATOM     11  C   UNL     1       0.879  -0.507  -1.148  0.00  0.00    -0.009 C 
ATOM     12  C   UNL     1       0.002  -0.004   0.002  0.00  0.00    +0.008 C 
ATOM     13  C   UNL     1      -0.019   1.526   0.010  0.00  0.00    +0.037 C 
ATOM     14  C   UNL     1       0.702  -2.018  -1.306  0.00  0.00    +0.008 C 
BRANCH   6  15
ATOM     15  C   UNL     1       0.799   4.363   0.816  0.00  0.00    +0.342 C 
ATOM     16  O   UNL     1       0.503   4.451   1.992  0.00  0.00    -0.245 OA
BRANCH  15  17
ATOM     17  O   UNL     1       0.206   5.166  -0.091  0.00  0.00    -0.464 OA
ATOM     18  C   UNL     1      -0.776   6.112   0.408  0.00  0.00    +0.280 C 
ENDBRANCH  15  17
ENDBRANCH   6  15
ENDBRANCH   3   5
BRANCH   1  19
ATOM     19  C   UNL     1       5.755   6.356   0.858  0.00  0.00    +0.127 C 
BRANCH  19  31
ATOM     20  C   UNL     1       6.760   7.964  -5.252  0.00  0.00    +0.044 C 
ATOM     21  C   UNL     1       7.128   8.112  -3.798  0.00  0.00    -0.046 A 
ATOM     22  C   UNL     1       7.156   6.999  -2.976  0.00  0.00    +0.028 A 
ATOM     23  C   UNL     1       7.493   7.139  -1.642  0.00  0.00    +0.049 A 
ATOM     24  C   UNL     1       7.797   8.399  -1.123  0.00  0.00    +0.055 A 
ATOM     25  C   UNL     1       7.771   9.507  -1.955  0.00  0.00    +0.028 A 
ATOM     26  C   UNL     1       7.436   9.360  -3.289  0.00  0.00    -0.046 A 
ATOM     27  C   UNL     1       7.407  10.566  -4.191  0.00  0.00    +0.044 C 
ATOM     28  N   UNL     1       8.113   8.533   0.234  0.00  0.00    -0.282 N 
ATOM     29  C   UNL     1       7.942   7.506   1.089  0.00  0.00    +0.238 C 
ATOM     30  O   UNL     1       8.336   7.603   2.232  0.00  0.00    -0.273 OA
ATOM     31  C   UNL     1       7.264   6.237   0.639  0.00  0.00    +0.166 C 
ATOM     32  N   UNL     1       7.538   6.026  -0.790  0.00  0.00    -0.331 N 
ATOM     33  H   UNL     1       8.459   9.377   0.563  0.00  0.00    +0.155 HD
ATOM     34  H   UNL     1       7.745   5.143  -1.134  0.00  0.00    +0.147 HD
ENDBRANCH  19  31
ENDBRANCH   1  19
TORSDOF 5
