REMARK  Name = ZINC58192819
REMARK  9 active torsions:
REMARK  status: ('A' for Active; 'I' for Inactive)
REMARK    1  A    between atoms: C_1  and  C_2
REMARK    2  A    between atoms: C_7  and  N_12
REMARK    3  A    between atoms: C_9  and  C_11
REMARK    4  A    between atoms: N_12  and  C_13
REMARK    5  A    between atoms: N_12  and  C_23
REMARK    6  A    between atoms: C_13  and  C_14
REMARK    7  A    between atoms: C_23  and  C_24
REMARK    8  A    between atoms: N_26  and  C_27
REMARK    9  A    between atoms: C_30  and  C_33
REMARK                            x       y       z     vdW  Elec       q    Type
REMARK                         _______ _______ _______ _____ _____    ______ ____
ROOT
ATOM      1  N   UNL     1       2.841  -1.587   3.082  0.00  0.00    +0.390 N 
ATOM      2  H   UNL     1       2.863  -2.583   2.924  0.00  0.00    -0.080 HD
ENDROOT
BRANCH   1   8
ATOM      3  C   UNL     1      -0.663  -0.104   1.143  0.00  0.00    +0.008 C 
ATOM      4  C   UNL     1       0.059  -1.300   0.518  0.00  0.00    -0.013 C 
ATOM      5  C   UNL     1       0.919  -0.821  -0.653  0.00  0.00    +0.003 C 
ATOM      6  C   UNL     1       1.950   0.191  -0.149  0.00  0.00    -0.001 C 
ATOM      7  C   UNL     1       2.843  -0.471   0.901  0.00  0.00    -0.015 C 
ATOM      8  C   UNL     1       1.983  -0.950   2.073  0.00  0.00    -0.064 C 
ATOM      9  C   UNL     1       0.952  -1.962   1.569  0.00  0.00    -0.025 C 
ATOM     10  C   UNL     1       1.674  -3.158   0.944  0.00  0.00    +0.006 C 
ENDBRANCH   1   8
BRANCH   1  11
ATOM     11  C   UNL     1       4.202  -1.044   2.979  0.00  0.00    -0.042 C 
BRANCH  11  12
ATOM     12  C   UNL     1       4.902  -1.664   1.796  0.00  0.00    -0.060 A 
ATOM     13  C   UNL     1       4.884  -3.035   1.625  0.00  0.00    +0.005 A 
ATOM     14  C   UNL     1       5.524  -3.608   0.542  0.00  0.00    +0.050 A 
ATOM     15  C   UNL     1       6.185  -2.808  -0.376  0.00  0.00    +0.166 A 
ATOM     16  C   UNL     1       6.203  -1.426  -0.203  0.00  0.00    +0.166 A 
ATOM     17  C   UNL     1       5.555  -0.859   0.882  0.00  0.00    +0.051 A 
ATOM     18  O   UNL     1       6.911  -0.868  -1.228  0.00  0.00    -0.453 OA
ATOM     19  C   UNL     1       7.670  -1.947  -1.804  0.00  0.00    +0.466 C 
ATOM     20  O   UNL     1       6.882  -3.115  -1.509  0.00  0.00    -0.453 OA
ENDBRANCH  11  12
ENDBRANCH   1  11
BRANCH   1  21
ATOM     21  C   UNL     1       2.305  -1.314   4.422  0.00  0.00    +0.020 C 
BRANCH  21  22
ATOM     22  C   UNL     1       1.123  -2.211   4.682  0.00  0.00    +0.201 C 
ATOM     23  O   UNL     1       0.883  -3.131   3.930  0.00  0.00    -0.278 OA
ATOM     24  N   UNL     1       0.333  -1.992   5.752  0.00  0.00    -0.287 N 
ATOM     25  H   UNL     1       0.484  -1.217   6.316  0.00  0.00    +0.155 HD
BRANCH  24  26
ATOM     26  C   UNL     1      -0.702  -2.878   6.048  0.00  0.00    +0.033 A 
ATOM     27  C   UNL     1      -0.563  -4.231   5.755  0.00  0.00    +0.024 A 
ATOM     28  C   UNL     1      -1.583  -5.108   6.046  0.00  0.00    +0.015 A 
ATOM     29  C   UNL     1      -2.759  -4.639   6.636  0.00  0.00    +0.037 A 
ATOM     30  C   UNL     1      -2.896  -3.279   6.929  0.00  0.00    +0.015 A 
ATOM     31  C   UNL     1      -1.870  -2.408   6.640  0.00  0.00    +0.024 A 
BRANCH  29  32
ATOM     32  C   UNL     1      -3.855  -5.577   6.949  0.00  0.00    +0.242 C 
ATOM     33  O   UNL     1      -3.735  -6.759   6.693  0.00  0.00    -0.270 OA
ATOM     34  N   UNL     1      -4.989  -5.122   7.519  0.00  0.00    -0.325 N 
ATOM     35  H   UNL     1      -5.085  -4.179   7.723  0.00  0.00    +0.145 HD
ATOM     36  H   UNL     1      -5.709  -5.739   7.724  0.00  0.00    +0.145 HD
ENDBRANCH  29  32
ENDBRANCH  24  26
ENDBRANCH  21  22
ENDBRANCH   1  21
TORSDOF 7
