REMARK  Name = ZINC40316719
REMARK  6 active torsions:
REMARK  status: ('A' for Active; 'I' for Inactive)
REMARK    1  A    between atoms: C_1  and  C_2
REMARK    2  A    between atoms: C_2  and  C_4
REMARK    3  A    between atoms: C_2  and  N_11
REMARK    4  A    between atoms: N_11  and  S_12
REMARK    5  A    between atoms: S_12  and  C_15
REMARK    6  A    between atoms: C_19  and  N_21
REMARK                            x       y       z     vdW  Elec       q    Type
REMARK                         _______ _______ _______ _____ _____    ______ ____
ROOT
ATOM      1  S   UNL     1      -0.188  -0.875  -2.551  0.00  0.00    +0.059 S 
ATOM      2  O   UNL     1       0.751  -1.265  -3.545  0.00  0.00    -0.153 OA
ATOM      3  O   UNL     1      -1.236  -1.730  -2.117  0.00  0.00    -0.153 OA
ENDROOT
BRANCH   1   4
ATOM      4  C   UNL     1      -0.951   0.603  -3.133  0.00  0.00    +0.107 A 
ATOM      5  C   UNL     1      -2.203   0.962  -2.669  0.00  0.00    +0.031 A 
ATOM      6  C   UNL     1      -2.806   2.121  -3.123  0.00  0.00    +0.042 A 
ATOM      7  C   UNL     1      -2.157   2.925  -4.041  0.00  0.00    +0.144 A 
ATOM      8  C   UNL     1      -0.897   2.567  -4.509  0.00  0.00    +0.062 A 
ATOM      9  C   UNL     1      -0.294   1.405  -4.046  0.00  0.00    +0.054 A 
ATOM     10  F   UNL     1      -2.747   4.057  -4.484  0.00  0.00    -0.204 F 
BRANCH   8  11
ATOM     11  N   UNL     1      -0.238   3.377  -5.438  0.00  0.00    -0.356 N 
ATOM     12  H   UNL     1      -0.659   4.191  -5.757  0.00  0.00    +0.142 HD
ATOM     13  H   UNL     1       0.641   3.126  -5.763  0.00  0.00    +0.142 HD
ENDBRANCH   8  11
ENDBRANCH   1   4
BRANCH   1  14
ATOM     14  N   UNL     1       0.688  -0.476  -1.203  0.00  0.00    -0.183 NA
ATOM     15  H   UNL     1       1.655  -0.556  -1.212  0.00  0.00    +0.149 HD
BRANCH  14  17
ATOM     16  C   UNL     1      -0.019   1.526   0.010  0.00  0.00    +0.031 C 
ATOM     17  C   UNL     1       0.002  -0.004   0.002  0.00  0.00    +0.104 C 
BRANCH  17  18
ATOM     18  C   UNL     1       0.731  -0.503   1.223  0.00  0.00    -0.015 A 
ATOM     19  C   UNL     1       2.077  -0.808   1.148  0.00  0.00    +0.006 A 
ATOM     20  C   UNL     1       2.746  -1.266   2.268  0.00  0.00    +0.000 A 
ATOM     21  C   UNL     1       2.069  -1.419   3.463  0.00  0.00    +0.001 A 
ATOM     22  C   UNL     1       0.723  -1.114   3.539  0.00  0.00    +0.015 A 
ATOM     23  C   UNL     1       0.054  -0.651   2.420  0.00  0.00    +0.023 A 
ATOM     24 BR   UNL     1      -1.786  -0.228   2.525  0.00  0.00    -0.050 Br
ENDBRANCH  17  18
ENDBRANCH  14  17
ENDBRANCH   1  14
TORSDOF 5
