REMARK  Name = ZINC17064564
REMARK  6 active torsions:
REMARK  status: ('A' for Active; 'I' for Inactive)
REMARK    1  A    between atoms: C_4  and  N_7
REMARK    2  A    between atoms: C_11  and  N_12
REMARK    3  A    between atoms: N_12  and  C_13
REMARK    4  A    between atoms: C_16  and  S_19
REMARK    5  A    between atoms: S_19  and  N_22
REMARK    6  A    between atoms: N_25  and  C_26
REMARK                            x       y       z     vdW  Elec       q    Type
REMARK                         _______ _______ _______ _____ _____    ______ ____
ROOT
ATOM      1  N   UNL     1       3.084  -6.308  -0.188  0.00  0.00    -0.177 N 
ATOM      2  C   UNL     1       3.637  -5.116   0.106  0.00  0.00    +0.274 C 
ATOM      3  O   UNL     1       4.820  -4.888   0.277  0.00  0.00    -0.268 OA
ATOM      4  C   UNL     1       2.536  -4.140   0.182  0.00  0.00    +0.116 C 
ATOM      5  C   UNL     1       2.628  -2.791   0.459  0.00  0.00    +0.090 C 
ATOM      6  C   UNL     1       1.315  -4.916  -0.094  0.00  0.00    +0.274 C 
ATOM      7  O   UNL     1       0.176  -4.488  -0.124  0.00  0.00    -0.268 OA
ATOM      8  N   UNL     1       1.700  -6.188  -0.311  0.00  0.00    -0.177 N 
ENDROOT
BRANCH   1  12
ATOM      9  C   UNL     1       5.210  -9.858  -0.661  0.00  0.00    +0.000 A 
ATOM     10  C   UNL     1       5.622  -8.714  -1.320  0.00  0.00    +0.002 A 
ATOM     11  C   UNL     1       4.919  -7.536  -1.166  0.00  0.00    +0.025 A 
ATOM     12  C   UNL     1       3.798  -7.500  -0.347  0.00  0.00    +0.057 A 
ATOM     13  C   UNL     1       3.390  -8.649   0.317  0.00  0.00    +0.025 A 
ATOM     14  C   UNL     1       4.094  -9.826   0.154  0.00  0.00    +0.002 A 
ENDBRANCH   1  12
BRANCH   8  15
ATOM     15  C   UNL     1       0.832  -7.243  -0.613  0.00  0.00    +0.057 A 
ATOM     16  C   UNL     1       1.108  -8.087  -1.680  0.00  0.00    +0.025 A 
ATOM     17  C   UNL     1       0.252  -9.131  -1.972  0.00  0.00    +0.002 A 
ATOM     18  C   UNL     1      -0.885  -9.329  -1.210  0.00  0.00    +0.000 A 
ATOM     19  C   UNL     1      -1.165  -8.486  -0.149  0.00  0.00    +0.002 A 
ATOM     20  C   UNL     1      -0.310  -7.444   0.151  0.00  0.00    +0.025 A 
ENDBRANCH   8  15
BRANCH   5  21
ATOM     21  N   UNL     1       1.513  -2.030   0.490  0.00  0.00    -0.320 N 
ATOM     22  H   UNL     1       0.530  -2.486   0.296  0.00  0.00    +0.152 HD
BRANCH  21  23
ATOM     23  C   UNL     1       1.606  -0.664   0.770  0.00  0.00    +0.031 A 
ATOM     24  C   UNL     1       0.460   0.120   0.803  0.00  0.00    +0.025 A 
ATOM     25  C   UNL     1       0.556   1.469   1.081  0.00  0.00    +0.030 A 
ATOM     26  C   UNL     1       1.791   2.040   1.325  0.00  0.00    +0.105 A 
ATOM     27  C   UNL     1       2.934   1.263   1.293  0.00  0.00    +0.030 A 
ATOM     28  C   UNL     1       2.846  -0.087   1.016  0.00  0.00    +0.025 A 
BRANCH  26  29
ATOM     29  S   UNL     1       1.909   3.763   1.678  0.00  0.00    +0.056 S 
ATOM     30  O   UNL     1       3.229   4.159   1.333  0.00  0.00    -0.153 OA
ATOM     31  O   UNL     1       0.758   4.373   1.112  0.00  0.00    -0.153 OA
BRANCH  29  32
ATOM     32  N   UNL     1       1.777   3.936   3.320  0.00  0.00    -0.204 NA
ATOM     33  H   UNL     1       1.846   5.002   3.583  0.00  0.00    +0.144 HD
ATOM     34  H   UNL     1       2.590   3.383   3.813  0.00  0.00    +0.144 HD
ENDBRANCH  29  32
ENDBRANCH  26  29
ENDBRANCH  21  23
ENDBRANCH   5  21
TORSDOF 6
