REMARK  Name = ZINC26961062
REMARK  13 active torsions:
REMARK  status: ('A' for Active; 'I' for Inactive)
REMARK    1  A    between atoms: C_1  and  C_2
REMARK    2  A    between atoms: C_2  and  C_3
REMARK    3  A    between atoms: C_3  and  C_4
REMARK    4  A    between atoms: C_4  and  C_5
REMARK    5  A    between atoms: C_14  and  C_16
REMARK    6  A    between atoms: C_14  and  C_17
REMARK    7  A    between atoms: C_18  and  S_22
REMARK    8  A    between atoms: N_20  and  N_21
REMARK    9  A    between atoms: S_22  and  C_23
REMARK   10  A    between atoms: C_23  and  C_24
REMARK   11  A    between atoms: N_26  and  C_27
REMARK   12  A    between atoms: C_30  and  O_33
REMARK   13  A    between atoms: O_33  and  C_34
REMARK                            x       y       z     vdW  Elec       q    Type
REMARK                         _______ _______ _______ _____ _____    ______ ____
ROOT
ATOM      1  C   UNL     1       1.459  -2.491  -2.504  0.00  0.00    +0.114 C 
ATOM      2  N   UNL     1       1.941  -1.624  -3.362  0.00  0.00    -0.228 NA
ATOM      3  C   UNL     1       2.636  -2.096  -4.418  0.00  0.00    +0.109 A 
ATOM      4  C   UNL     1       3.060  -3.401  -4.571  0.00  0.00    +0.021 A 
ATOM      5  C   UNL     1       3.755  -3.721  -5.737  0.00  0.00    -0.024 A 
ATOM      6  C   UNL     1       3.991  -2.712  -6.625  0.00  0.00    +0.021 A 
ATOM      7  S   UNL     1       3.243  -1.292  -5.873  0.00  0.00    -0.071 S 
ATOM      8  C   UNL     1       4.719  -2.823  -7.924  0.00  0.00    +0.203 C 
ATOM      9  O   UNL     1       5.394  -4.092  -7.944  0.00  0.00    -0.368 OA
ATOM     10  C   UNL     1       4.558  -5.187  -7.562  0.00  0.00    +0.068 C 
ATOM     11  C   UNL     1       4.257  -5.126  -6.062  0.00  0.00    +0.071 C 
ATOM     12  C   UNL     1       5.270  -6.503  -7.883  0.00  0.00    +0.041 C 
ATOM     13  C   UNL     1       3.246  -5.121  -8.345  0.00  0.00    +0.041 C 
ATOM     14  C   UNL     1       2.745  -4.384  -3.445  0.00  0.00    +0.182 C 
ATOM     15  N   UNL     1       1.591  -3.838  -2.719  0.00  0.00    -0.239 N 
ENDROOT
BRANCH  15  16
ATOM     16  N   UNL     1       0.630  -4.690  -2.253  0.00  0.00    -0.252 NA
ATOM     17  H   UNL     1       0.898  -5.724  -2.515  0.00  0.00    +0.141 HD
ATOM     18  H   UNL     1       0.555  -4.596  -1.160  0.00  0.00    +0.141 HD
ENDBRANCH  15  16
BRANCH   1  19
ATOM     19  C   UNL     1       0.758  -2.000  -1.264  0.00  0.00    +0.073 C 
BRANCH  19  20
ATOM     20  C   UNL     1       0.748  -0.470  -1.255  0.00  0.00    +0.007 C 
BRANCH  20  22
ATOM     21  C   UNL     1       0.027   1.558   0.013  0.00  0.00    +0.004 C 
ATOM     22  C   UNL     1       0.036   0.028   0.004  0.00  0.00    -0.003 C 
ENDBRANCH  20  22
ENDBRANCH  19  20
ENDBRANCH   1  19
BRANCH  14  23
ATOM     23  S   UNL     1       4.167  -4.525  -2.328  0.00  0.00    -0.123 S 
BRANCH  23  24
ATOM     24  C   UNL     1       3.433  -4.442  -0.670  0.00  0.00    +0.167 C 
BRANCH  24  25
ATOM     25  C   UNL     1       4.522  -4.550   0.366  0.00  0.00    +0.227 C 
ATOM     26  O   UNL     1       5.678  -4.670   0.022  0.00  0.00    -0.275 OA
ATOM     27  N   UNL     1       4.210  -4.512   1.677  0.00  0.00    -0.285 N 
ATOM     28  H   UNL     1       3.172  -4.327   1.990  0.00  0.00    +0.155 HD
BRANCH  27  29
ATOM     29  C   UNL     1       5.208  -4.708   2.641  0.00  0.00    +0.034 A 
ATOM     30  C   UNL     1       4.909  -5.369   3.825  0.00  0.00    +0.027 A 
ATOM     31  C   UNL     1       5.894  -5.566   4.772  0.00  0.00    +0.047 A 
ATOM     32  C   UNL     1       7.179  -5.095   4.546  0.00  0.00    +0.120 A 
ATOM     33  C   UNL     1       7.477  -4.430   3.365  0.00  0.00    +0.047 A 
ATOM     34  C   UNL     1       6.494  -4.237   2.414  0.00  0.00    +0.027 A 
BRANCH  32  35
ATOM     35  O   UNL     1       8.148  -5.285   5.481  0.00  0.00    -0.495 OA
ATOM     36  C   UNL     1       7.771  -5.978   6.673  0.00  0.00    +0.277 C 
ENDBRANCH  32  35
ENDBRANCH  27  29
ENDBRANCH  24  25
ENDBRANCH  23  24
ENDBRANCH  14  23
TORSDOF 9
