REMARK  Name = ZINC32985065
REMARK  8 active torsions:
REMARK  status: ('A' for Active; 'I' for Inactive)
REMARK    1  A    between atoms: C_1  and  C_2
REMARK    2  A    between atoms: C_5  and  S_8
REMARK    3  A    between atoms: S_8  and  C_9
REMARK    4  A    between atoms: C_14  and  N_15
REMARK    5  A    between atoms: N_15  and  S_16
REMARK    6  A    between atoms: S_16  and  C_19
REMARK    7  A    between atoms: N_31  and  C_36
REMARK    8  A    between atoms: N_34  and  C_35
REMARK                            x       y       z     vdW  Elec       q    Type
REMARK                         _______ _______ _______ _____ _____    ______ ____
ROOT
ATOM      1  C   UNL     1       3.239   2.876  -3.738  0.00  0.00    +0.037 A 
ATOM      2  C   UNL     1       2.482   3.670  -4.585  0.00  0.00    +0.045 A 
ATOM      3  C   UNL     1       1.815   4.777  -4.083  0.00  0.00    +0.071 A 
ATOM      4  C   UNL     1       1.907   5.091  -2.725  0.00  0.00    +0.071 A 
ATOM      5  C   UNL     1       2.661   4.293  -1.877  0.00  0.00    +0.053 A 
ATOM      6  C   UNL     1       3.331   3.190  -2.381  0.00  0.00    +0.064 A 
ATOM      7  N   UNL     1       1.141   6.240  -2.525  0.00  0.00    -0.295 N 
ATOM      8  C   UNL     1       0.609   6.606  -3.706  0.00  0.00    +0.330 A 
ATOM      9  O   UNL     1      -0.112   7.571  -3.881  0.00  0.00    -0.246 OA
ATOM     10  N   UNL     1       0.997   5.745  -4.665  0.00  0.00    -0.295 N 
ATOM     11  C   UNL     1       0.621   5.811  -6.080  0.00  0.00    +0.154 C 
ATOM     12  C   UNL     1       0.950   6.930  -1.248  0.00  0.00    +0.154 C 
ENDROOT
BRANCH   6  13
ATOM     13  N   UNL     1       4.097   2.386  -1.526  0.00  0.00    -0.215 N 
ATOM     14  H   UNL     1       5.028   1.927  -1.891  0.00  0.00    +0.174 HD
BRANCH  13  15
ATOM     15  S   UNL     1       3.600   2.125   0.032  0.00  0.00    +0.072 S 
ATOM     16  O   UNL     1       3.385   3.406   0.609  0.00  0.00    -0.150 OA
ATOM     17  O   UNL     1       4.499   1.179   0.592  0.00  0.00    -0.150 OA
BRANCH  15  18
ATOM     18  C   UNL     1       2.025   1.339  -0.048  0.00  0.00    +0.111 A 
ATOM     19  C   UNL     1       0.872   2.105  -0.072  0.00  0.00    +0.031 A 
ATOM     20  C   UNL     1      -0.366   1.497  -0.134  0.00  0.00    +0.030 A 
ATOM     21  C   UNL     1      -0.455   0.114  -0.174  0.00  0.00    +0.067 A 
ATOM     22  C   UNL     1       0.708  -0.659  -0.150  0.00  0.00    +0.069 A 
ATOM     23  C   UNL     1       1.947  -0.040  -0.087  0.00  0.00    +0.056 A 
ATOM     24  N   UNL     1       0.306  -1.992  -0.200  0.00  0.00    -0.306 N 
ATOM     25  H   UNL     1       1.059  -2.793  -0.193  0.00  0.00    +0.170 HD
ATOM     26  C   UNL     1      -1.039  -2.028  -0.251  0.00  0.00    +0.325 A 
ATOM     27  O   UNL     1      -1.711  -3.041  -0.303  0.00  0.00    -0.247 OA
ATOM     28  N   UNL     1      -1.527  -0.774  -0.237  0.00  0.00    -0.306 N 
ATOM     29  H   UNL     1      -2.558  -0.390  -0.265  0.00  0.00    +0.170 HD
ENDBRANCH  15  18
ENDBRANCH  13  15
ENDBRANCH   6  13
BRANCH   1  30
ATOM     30  S   UNL     1       4.087   1.469  -4.375  0.00  0.00    -0.087 S 
BRANCH  30  35
ATOM     31  C   UNL     1       9.843   3.258  -4.703  0.00  0.00    +0.044 C 
ATOM     32  C   UNL     1       8.406   2.811  -4.621  0.00  0.00    -0.050 A 
ATOM     33  C   UNL     1       8.075   1.497  -4.897  0.00  0.00    +0.004 A 
ATOM     34  C   UNL     1       6.760   1.084  -4.822  0.00  0.00    +0.015 A 
ATOM     35  C   UNL     1       5.767   1.991  -4.470  0.00  0.00    +0.013 A 
ATOM     36  C   UNL     1       6.103   3.312  -4.199  0.00  0.00    +0.015 A 
ATOM     37  C   UNL     1       7.421   3.717  -4.270  0.00  0.00    +0.004 A 
ENDBRANCH  30  35
ENDBRANCH   1  30
TORSDOF 5
