REMARK  Name = ZINC38793228
REMARK  4 active torsions:
REMARK  status: ('A' for Active; 'I' for Inactive)
REMARK    1  A    between atoms: C_1  and  C_2
REMARK    2  A    between atoms: C_5  and  C_19
REMARK    3  A    between atoms: C_7  and  C_12
REMARK    4  A    between atoms: C_24  and  C_27
REMARK                            x       y       z     vdW  Elec       q    Type
REMARK                         _______ _______ _______ _____ _____    ______ ____
ROOT
ATOM      1  C   UNL     1       1.647   3.119  -1.566  0.00  0.00    +0.032 C 
ATOM      2  C   UNL     1       1.597   1.979  -0.548  0.00  0.00    +0.126 C 
ATOM      3  C   UNL     1       1.385   0.650  -1.241  0.00  0.00    +0.048 A 
ATOM      4  C   UNL     1       0.514   0.246  -2.249  0.00  0.00    +0.049 A 
ATOM      5  C   UNL     1       0.576  -1.083  -2.682  0.00  0.00    +0.042 A 
ATOM      6  C   UNL     1       1.501  -1.937  -2.087  0.00  0.00    +0.078 A 
ATOM      7  N   UNL     1       2.308  -1.509  -1.128  0.00  0.00    -0.211 NA
ATOM      8  C   UNL     1       2.280  -0.258  -0.686  0.00  0.00    +0.245 A 
ATOM      9  O   UNL     1       3.011   0.344   0.291  0.00  0.00    -0.386 OA
ATOM     10  N   UNL     1       2.916   1.804   0.112  0.00  0.00    -0.146 NA
ATOM     11  H   UNL     1       3.662   2.145  -0.475  0.00  0.00    +0.168 HD
ENDROOT
BRANCH   4  12
ATOM     12  C   UNL     1      -0.451   1.197  -2.847  0.00  0.00    +0.247 C 
ATOM     13  O   UNL     1      -1.184   1.850  -2.131  0.00  0.00    -0.270 OA
ATOM     14  N   UNL     1      -0.517   1.338  -4.186  0.00  0.00    -0.293 N 
ATOM     15  C   UNL     1      -1.390   2.349  -4.807  0.00  0.00    +0.113 C 
ATOM     16  C   UNL     1      -0.503   3.338  -5.567  0.00  0.00    +0.054 C 
ATOM     17  C   UNL     1       0.522   2.604  -6.380  0.00  0.00    -0.043 C 
ATOM     18  C   UNL     1       0.880   1.342  -6.166  0.00  0.00    -0.004 C 
ATOM     19  C   UNL     1       0.284   0.493  -5.083  0.00  0.00    +0.135 C 
BRANCH  17  20
ATOM     20  C   UNL     1       1.145   3.296  -7.437  0.00  0.00    -0.015 C 
ATOM     21  C   UNL     1       1.004   4.640  -7.761  0.00  0.00    +0.022 A 
ATOM     22  C   UNL     1       0.249   5.689  -7.189  0.00  0.00    +0.013 A 
ATOM     23  C   UNL     1       0.330   6.926  -7.757  0.00  0.00    +0.020 A 
ATOM     24  C   UNL     1       1.138   7.143  -8.873  0.00  0.00    +0.113 A 
ATOM     25  N   UNL     1       1.849   6.194  -9.425  0.00  0.00    -0.238 NA
ATOM     26  C   UNL     1       1.839   4.934  -8.940  0.00  0.00    +0.135 A 
ATOM     27  N   UNL     1       2.468   3.849  -9.337  0.00  0.00    -0.365 N 
ATOM     28  C   UNL     1       2.114   2.733  -8.454  0.00  0.00    +0.150 C 
ATOM     29  H   UNL     1       3.073   3.796 -10.093  0.00  0.00    +0.161 HD
ENDBRANCH  17  20
ENDBRANCH   4  12
BRANCH   6  30
ATOM     30  C   UNL     1       1.583  -3.348  -2.535  0.00  0.00    +0.036 A 
ATOM     31  C   UNL     1       0.744  -3.811  -3.546  0.00  0.00    +0.013 A 
ATOM     32  C   UNL     1       0.825  -5.125  -3.959  0.00  0.00    +0.001 A 
ATOM     33  C   UNL     1       1.736  -5.984  -3.371  0.00  0.00    +0.003 A 
ATOM     34  C   UNL     1       2.572  -5.533  -2.366  0.00  0.00    +0.039 A 
ATOM     35  C   UNL     1       2.505  -4.216  -1.948  0.00  0.00    +0.133 A 
ATOM     36  F   UNL     1       3.326  -3.773  -0.971  0.00  0.00    -0.205 F 
ENDBRANCH   6  30
TORSDOF 3
