REMARK  Name = ZINC39659802
REMARK  4 active torsions:
REMARK  status: ('A' for Active; 'I' for Inactive)
REMARK    1  A    between atoms: C_1  and  C_2
REMARK    2  A    between atoms: C_2  and  C_3
REMARK    3  A    between atoms: C_7  and  C_16
REMARK    4  A    between atoms: N_18  and  C_19
REMARK                            x       y       z     vdW  Elec       q    Type
REMARK                         _______ _______ _______ _____ _____    ______ ____
ROOT
ATOM      1  C   UNL     1      -1.119  -0.555  -0.103  0.00  0.00    +0.215 C 
ATOM      2  O   UNL     1      -1.985   0.293  -0.125  0.00  0.00    -0.276 OA
ATOM      3  N   UNL     1      -1.454  -1.860  -0.067  0.00  0.00    -0.300 N 
ATOM      4  C   UNL     1      -0.547  -3.031  -0.029  0.00  0.00    +0.121 C 
ATOM      5  C   UNL     1      -1.226  -4.020   0.944  0.00  0.00    +0.100 C 
ATOM      6  C   UNL     1      -2.715  -3.634   0.920  0.00  0.00    -0.004 C 
ATOM      7  C   UNL     1      -2.815  -2.448  -0.049  0.00  0.00    +0.115 C 
ATOM      8  C   UNL     1      -3.172  -3.210   2.313  0.00  0.00    -0.010 C 
ATOM      9  C   UNL     1      -4.668  -2.885   2.276  0.00  0.00    -0.082 C 
ATOM     10  N   UNL     1      -5.416  -4.068   1.833  0.00  0.00    +0.379 N 
ATOM     11  C   UNL     1      -5.037  -4.414   0.458  0.00  0.00    -0.082 C 
ATOM     12  C   UNL     1      -3.556  -4.803   0.417  0.00  0.00    -0.010 C 
ATOM     13  H   UNL     1      -5.209  -4.844   2.443  0.00  0.00    -0.086 HD
ATOM     14  H   UNL     1      -6.405  -3.871   1.868  0.00  0.00    -0.086 HD
ENDROOT
BRANCH   5  15
ATOM     15  C   UNL     1      -0.662  -3.862   2.332  0.00  0.00    +0.218 C 
ATOM     16  O   UNL     1      -0.251  -2.782   2.700  0.00  0.00    -0.275 OA
ATOM     17  N   UNL     1      -0.614  -4.920   3.165  0.00  0.00    -0.312 N 
ATOM     18  H   UNL     1      -0.943  -5.784   2.871  0.00  0.00    +0.149 HD
BRANCH  17  19
ATOM     19  C   UNL     1      -0.066  -4.766   4.515  0.00  0.00    +0.073 C 
ATOM     20  C   UNL     1       1.456  -4.921   4.468  0.00  0.00    +0.022 C 
ATOM     21  C   UNL     1       2.063  -4.378   5.763  0.00  0.00    +0.002 C 
ATOM     22  C   UNL     1       1.398  -3.048   6.121  0.00  0.00    +0.000 C 
ATOM     23  C   UNL     1       0.579  -3.217   7.403  0.00  0.00    +0.000 C 
ATOM     24  C   UNL     1      -0.717  -3.964   7.085  0.00  0.00    +0.000 C 
ATOM     25  C   UNL     1      -0.414  -5.451   6.892  0.00  0.00    +0.002 C 
ATOM     26  C   UNL     1      -0.659  -5.837   5.432  0.00  0.00    +0.022 C 
ENDBRANCH  17  19
ENDBRANCH   5  15
BRANCH   1  28
ATOM     27  C   UNL     1       0.437   1.375  -0.158  0.00  0.00    +0.013 C 
ATOM     28  C   UNL     1       0.333  -0.151  -0.116  0.00  0.00    +0.092 C 
ENDBRANCH   1  28
TORSDOF 3
