REMARK  Name = ZINC42866489
REMARK  7 active torsions:
REMARK  status: ('A' for Active; 'I' for Inactive)
REMARK    1  A    between atoms: C_1  and  C_2
REMARK    2  A    between atoms: C_3  and  C_20
REMARK    3  A    between atoms: N_4  and  C_10
REMARK    4  A    between atoms: C_5  and  N_9
REMARK    5  A    between atoms: C_6  and  C_7
REMARK    6  A    between atoms: C_10  and  C_11
REMARK    7  A    between atoms: C_17  and  C_19
REMARK                            x       y       z     vdW  Elec       q    Type
REMARK                         _______ _______ _______ _____ _____    ______ ____
ROOT
ATOM      1  C   UNL     1      -0.018   1.503   0.010  0.00  0.00    +0.047 C 
ATOM      2  C   UNL     1       0.002  -0.004   0.002  0.00  0.00    -0.011 A 
ATOM      3  C   UNL     1       0.008  -0.799  -1.079  0.00  0.00    +0.021 A 
ATOM      4  N   UNL     1       0.029  -2.110  -0.678  0.00  0.00    -0.332 N 
ATOM      5  C   UNL     1       0.036  -2.184   0.678  0.00  0.00    +0.114 A 
ATOM      6  C   UNL     1       0.026  -0.887   1.176  0.00  0.00    +0.094 A 
ATOM      7  C   UNL     1      -0.006  -0.326  -2.510  0.00  0.00    +0.064 C 
ENDROOT
BRANCH   5   8
ATOM      8  N   UNL     1       0.056  -3.344   1.430  0.00  0.00    -0.343 N 
ATOM      9  H   UNL     1       0.066  -4.208   0.989  0.00  0.00    +0.144 HD
ATOM     10  H   UNL     1       0.060  -3.295   2.399  0.00  0.00    +0.144 HD
ENDBRANCH   5   8
BRANCH   6  11
ATOM     11  C   UNL     1       0.033  -0.492   2.552  0.00  0.00    +0.103 C 
ATOM     12  N   UNL     1       0.039  -0.178   3.644  0.00  0.00    -0.191 NA
ENDBRANCH   6  11
BRANCH   4  13
ATOM     13  C   UNL     1       0.040  -3.264  -1.581  0.00  0.00    +0.127 C 
BRANCH  13  14
ATOM     14  C   UNL     1       1.487  -3.645  -1.902  0.00  0.00    +0.012 C 
ATOM     15  C   UNL     1       2.151  -2.511  -2.686  0.00  0.00    +0.005 C 
ATOM     16  C   UNL     1       3.598  -2.892  -3.007  0.00  0.00    +0.000 C 
ATOM     17  C   UNL     1       3.614  -4.170  -3.848  0.00  0.00    +0.000 C 
ATOM     18  C   UNL     1       2.949  -5.304  -3.065  0.00  0.00    +0.003 C 
ATOM     19  C   UNL     1       1.503  -4.923  -2.743  0.00  0.00    -0.009 C 
ATOM     20  C   UNL     1       0.838  -6.057  -1.960  0.00  0.00    +0.008 C 
ENDBRANCH  13  14
ENDBRANCH   4  13
TORSDOF 4
