REMARK  Name = ZINC35636504
REMARK  10 active torsions:
REMARK  status: ('A' for Active; 'I' for Inactive)
REMARK    1  A    between atoms: C_1  and  C_2
REMARK    2  A    between atoms: C_2  and  N_3
REMARK    3  A    between atoms: C_6  and  C_11
REMARK    4  A    between atoms: C_14  and  C_18
REMARK    5  A    between atoms: C_16  and  C_17
REMARK    6  A    between atoms: N_21  and  C_23
REMARK    7  A    between atoms: C_23  and  C_25
REMARK    8  A    between atoms: C_23  and  C_32
REMARK    9  A    between atoms: C_25  and  C_26
REMARK   10  A    between atoms: N_34  and  C_35
REMARK                            x       y       z     vdW  Elec       q    Type
REMARK                         _______ _______ _______ _____ _____    ______ ____
ROOT
ATOM      1  N   UNL     1      -1.988  -0.206   0.757  0.00  0.00    -0.257 N 
ATOM      2  C   UNL     1      -2.345  -0.268   2.074  0.00  0.00    +0.042 C 
ATOM      3  C   UNL     1      -3.601  -0.590   2.444  0.00  0.00    +0.058 C 
ATOM      4  C   UNL     1      -4.605  -0.880   1.347  0.00  0.00    +0.142 C 
ATOM      5  N   UNL     1      -4.123  -0.786  -0.041  0.00  0.00    -0.288 N 
ATOM      6  C   UNL     1      -2.835  -0.447  -0.252  0.00  0.00    +0.307 C 
ATOM      7  O   UNL     1      -2.429  -0.363  -1.394  0.00  0.00    -0.252 OA
ATOM      8  C   UNL     1      -3.715  -0.587   3.849  0.00  0.00    +0.247 C 
ATOM      9  O   UNL     1      -4.738  -0.842   4.457  0.00  0.00    -0.270 OA
ATOM     10  N   UNL     1      -2.545  -0.266   4.431  0.00  0.00    -0.280 N 
ATOM     11  C   UNL     1      -1.572  -0.035   3.353  0.00  0.00    +0.160 C 
ATOM     12  H   UNL     1      -4.718  -0.961  -0.787  0.00  0.00    +0.151 HD
ENDROOT
BRANCH   4  13
ATOM     13  C   UNL     1      -5.136  -2.275   1.560  0.00  0.00    -0.020 A 
ATOM     14  C   UNL     1      -4.450  -3.159   2.372  0.00  0.00    +0.006 A 
ATOM     15  C   UNL     1      -4.937  -4.437   2.568  0.00  0.00    +0.004 A 
ATOM     16  C   UNL     1      -6.110  -4.832   1.951  0.00  0.00    -0.050 A 
ATOM     17  C   UNL     1      -6.796  -3.948   1.140  0.00  0.00    +0.007 A 
ATOM     18  C   UNL     1      -6.311  -2.668   0.948  0.00  0.00    -0.045 A 
ATOM     19  C   UNL     1      -7.062  -1.702   0.067  0.00  0.00    +0.044 C 
ATOM     20  C   UNL     1      -6.640  -6.227   2.164  0.00  0.00    +0.044 C 
ENDBRANCH   4  13
BRANCH   1  22
ATOM     21  C   UNL     1      -0.490   1.670   0.290  0.00  0.00    +0.025 C 
ATOM     22  C   UNL     1      -0.606   0.151   0.430  0.00  0.00    +0.111 C 
ENDBRANCH   1  22
BRANCH  10  23
ATOM     23  C   UNL     1      -2.289  -0.164   5.869  0.00  0.00    +0.167 C 
BRANCH  23  24
ATOM     24  C   UNL     1      -2.563  -1.494   6.524  0.00  0.00    +0.238 C 
ATOM     25  O   UNL     1      -2.936  -2.433   5.854  0.00  0.00    -0.273 OA
ATOM     26  N   UNL     1      -2.394  -1.638   7.853  0.00  0.00    -0.284 N 
ATOM     27  H   UNL     1      -2.168  -0.869   8.399  0.00  0.00    +0.155 HD
BRANCH  26  28
ATOM     28  C   UNL     1      -2.545  -2.898   8.445  0.00  0.00    +0.034 A 
ATOM     29  C   UNL     1      -3.062  -3.006   9.729  0.00  0.00    +0.026 A 
ATOM     30  C   UNL     1      -3.209  -4.249  10.311  0.00  0.00    +0.040 A 
ATOM     31  C   UNL     1      -2.842  -5.389   9.615  0.00  0.00    +0.124 A 
ATOM     32  C   UNL     1      -2.326  -5.284   8.334  0.00  0.00    +0.040 A 
ATOM     33  C   UNL     1      -2.183  -4.042   7.746  0.00  0.00    +0.026 A 
ATOM     34  F   UNL     1      -2.986  -6.604  10.187  0.00  0.00    -0.205 F 
ENDBRANCH  26  28
ENDBRANCH  23  24
BRANCH  23  35
ATOM     35  C   UNL     1      -3.204   0.902   6.476  0.00  0.00    +0.067 C 
BRANCH  35  36
ATOM     36  C   UNL     1      -2.846   2.252   5.911  0.00  0.00    -0.045 A 
ATOM     37  C   UNL     1      -1.894   3.034   6.539  0.00  0.00    +0.004 A 
ATOM     38  C   UNL     1      -1.566   4.273   6.021  0.00  0.00    +0.000 A 
ATOM     39  C   UNL     1      -2.188   4.729   4.875  0.00  0.00    +0.000 A 
ATOM     40  C   UNL     1      -3.139   3.947   4.246  0.00  0.00    +0.000 A 
ATOM     41  C   UNL     1      -3.464   2.706   4.762  0.00  0.00    +0.004 A 
ENDBRANCH  35  36
ENDBRANCH  23  35
ENDBRANCH  10  23
TORSDOF 7
