REMARK  Name = ZINC39977706
REMARK  6 active torsions:
REMARK  status: ('A' for Active; 'I' for Inactive)
REMARK    1  A    between atoms: C_4  and  S_7
REMARK    2  A    between atoms: S_7  and  C_8
REMARK    3  A    between atoms: C_8  and  C_9
REMARK    4  A    between atoms: C_11  and  C_23
REMARK    5  A    between atoms: C_13  and  C_21
REMARK    6  A    between atoms: C_14  and  N_20
REMARK                            x       y       z     vdW  Elec       q    Type
REMARK                         _______ _______ _______ _____ _____    ______ ____
ROOT
ATOM      1  C   UNL     1       4.276  -3.722  -0.034  0.00  0.00    +0.079 C 
ATOM      2  C   UNL     1       4.986  -4.174   0.971  0.00  0.00    +0.027 C 
ATOM      3  C   UNL     1       4.922  -3.970   2.460  0.00  0.00    +0.075 C 
ATOM      4  C   UNL     1       6.361  -3.793   2.908  0.00  0.00    +0.094 C 
ATOM      5  C   UNL     1       7.396  -4.009   2.071  0.00  0.00    +0.195 C 
ATOM      6  O   UNL     1       7.322  -4.366   0.776  0.00  0.00    -0.448 OA
ATOM      7  C   UNL     1       6.112  -4.985   0.330  0.00  0.00    +0.343 C 
ATOM      8  N   UNL     1       5.871  -4.764  -1.100  0.00  0.00    -0.138 NA
ATOM      9  N   UNL     1       4.838  -4.093  -1.213  0.00  0.00    -0.154 NA
ENDROOT
BRANCH   3  10
ATOM     10  C   UNL     1       4.105  -2.719   2.788  0.00  0.00    +0.024 C 
ATOM     11  C   UNL     1       4.841  -1.482   2.269  0.00  0.00    +0.009 C 
ATOM     12  C   UNL     1       4.147  -0.234   2.829  0.00  0.00    +0.005 C 
ATOM     13  C   UNL     1       4.368  -0.195   4.343  0.00  0.00    +0.027 C 
ATOM     14  C   UNL     1       4.027  -1.525   4.949  0.00  0.00    -0.031 C 
ATOM     15  C   UNL     1       3.919  -2.621   4.274  0.00  0.00    -0.027 C 
ENDBRANCH   3  10
BRANCH   5  16
ATOM     16  N   UNL     1       8.655  -3.848   2.594  0.00  0.00    -0.329 N 
ATOM     17  H   UNL     1       8.765  -3.591   3.522  0.00  0.00    +0.145 HD
ATOM     18  H   UNL     1       9.434  -3.990   2.034  0.00  0.00    +0.145 HD
ENDBRANCH   5  16
BRANCH   4  19
ATOM     19  C   UNL     1       6.626  -3.386   4.255  0.00  0.00    +0.100 C 
ATOM     20  N   UNL     1       6.837  -3.063   5.324  0.00  0.00    -0.191 NA
ENDBRANCH   4  19
BRANCH   1  21
ATOM     21  C   UNL     1       3.012  -2.912   0.099  0.00  0.00    +0.131 C 
BRANCH  21  22
ATOM     22  S   UNL     1       3.380  -1.162  -0.210  0.00  0.00    -0.119 S 
BRANCH  22  26
ATOM     23  C   UNL     1      -0.622   0.901   0.281  0.00  0.00    +0.000 A 
ATOM     24  C   UNL     1       0.502   1.642  -0.036  0.00  0.00    +0.001 A 
ATOM     25  C   UNL     1       1.723   1.016  -0.186  0.00  0.00    +0.015 A 
ATOM     26  C   UNL     1       1.823  -0.359  -0.018  0.00  0.00    +0.008 A 
ATOM     27  C   UNL     1       0.691  -1.101   0.301  0.00  0.00    +0.015 A 
ATOM     28  C   UNL     1      -0.527  -0.468   0.449  0.00  0.00    +0.001 A 
ENDBRANCH  22  26
ENDBRANCH  21  22
ENDBRANCH   1  21
TORSDOF 6
