REMARK  Name = ZINC39387813
REMARK  7 active torsions:
REMARK  status: ('A' for Active; 'I' for Inactive)
REMARK    1  A    between atoms: C_1  and  C_2
REMARK    2  A    between atoms: C_5  and  N_8
REMARK    3  A    between atoms: C_12  and  C_32
REMARK    4  A    between atoms: C_12  and  C_33
REMARK    5  A    between atoms: C_14  and  N_20
REMARK    6  A    between atoms: N_20  and  C_21
REMARK    7  A    between atoms: C_21  and  C_22
REMARK                            x       y       z     vdW  Elec       q    Type
REMARK                         _______ _______ _______ _____ _____    ______ ____
ROOT
ATOM      1  N   UNL     1      -0.202  -4.388  -0.272  0.00  0.00    -0.221 N 
ATOM      2  C   UNL     1      -0.174  -5.240   0.945  0.00  0.00    +0.109 C 
ATOM      3  C   UNL     1       1.087  -4.917   1.709  0.00  0.00    +0.031 C 
ATOM      4  C   UNL     1       1.699  -6.074   2.455  0.00  0.00    -0.032 C 
ATOM      5  C   UNL     1       1.865  -7.301   1.582  0.00  0.00    +0.025 C 
ATOM      6  C   UNL     1       0.558  -7.727   0.956  0.00  0.00    +0.065 C 
ATOM      7  C   UNL     1      -0.274  -6.633   0.368  0.00  0.00    +0.071 C 
ATOM      8  C   UNL     1      -0.125  -6.465  -1.120  0.00  0.00    +0.110 C 
ATOM      9  N   UNL     1      -0.111  -5.219  -1.388  0.00  0.00    -0.191 NA
ATOM     10  C   UNL     1       3.072  -5.653   2.984  0.00  0.00    +0.011 C 
ATOM     11  C   UNL     1       0.801  -6.429   3.642  0.00  0.00    +0.011 C 
ENDROOT
BRANCH   1  16
ATOM     12  C   UNL     1      -0.633   1.264  -0.362  0.00  0.00    +0.044 C 
ATOM     13  C   UNL     1      -0.518  -0.238  -0.338  0.00  0.00    -0.050 A 
ATOM     14  C   UNL     1      -0.433  -0.942  -1.525  0.00  0.00    +0.005 A 
ATOM     15  C   UNL     1      -0.328  -2.319  -1.507  0.00  0.00    +0.025 A 
ATOM     16  C   UNL     1      -0.308  -2.997  -0.294  0.00  0.00    +0.052 A 
ATOM     17  C   UNL     1      -0.393  -2.285   0.897  0.00  0.00    +0.025 A 
ATOM     18  C   UNL     1      -0.492  -0.908   0.871  0.00  0.00    +0.005 A 
ENDBRANCH   1  16
BRANCH   6  19
ATOM     19  N   UNL     1      -0.248  -8.396   1.986  0.00  0.00    -0.306 NA
ATOM     20  H   UNL     1       0.342  -8.837   2.676  0.00  0.00    +0.123 HD
BRANCH  19  21
ATOM     21  C   UNL     1      -1.170  -9.368   1.383  0.00  0.00    +0.156 C 
BRANCH  21  22
ATOM     22  C   UNL     1      -1.978 -10.033   2.468  0.00  0.00    +0.122 A 
ATOM     23  N   UNL     1      -3.218  -9.642   2.867  0.00  0.00    -0.341 N 
ATOM     24  H   UNL     1      -3.729  -8.899   2.510  0.00  0.00    +0.167 HD
ATOM     25  C   UNL     1      -3.614 -10.499   3.875  0.00  0.00    +0.066 A 
ATOM     26  C   UNL     1      -4.754 -10.606   4.660  0.00  0.00    +0.028 A 
ATOM     27  C   UNL     1      -4.840 -11.605   5.607  0.00  0.00    +0.002 A 
ATOM     28  C   UNL     1      -3.795 -12.501   5.779  0.00  0.00    +0.002 A 
ATOM     29  C   UNL     1      -2.665 -12.411   5.016  0.00  0.00    +0.030 A 
ATOM     30  C   UNL     1      -2.557 -11.407   4.050  0.00  0.00    +0.089 A 
ATOM     31  N   UNL     1      -1.593 -11.069   3.155  0.00  0.00    -0.231 NA
ENDBRANCH  21  22
ENDBRANCH  19  21
ENDBRANCH   6  19
TORSDOF 4
