REMARK  Name = ZINC04115198
REMARK  6 active torsions:
REMARK  status: ('A' for Active; 'I' for Inactive)
REMARK    1  A    between atoms: C_4  and  C_7
REMARK    2  A    between atoms: C_15  and  C_27
REMARK    3  A    between atoms: C_17  and  C_23
REMARK    4  A    between atoms: C_17  and  C_25
REMARK    5  A    between atoms: C_18  and  N_22
REMARK    6  A    between atoms: C_19  and  C_20
REMARK                            x       y       z     vdW  Elec       q    Type
REMARK                         _______ _______ _______ _____ _____    ______ ____
ROOT
ATOM      1  C   UNL     1      -4.821   4.828  -0.953  0.00  0.00    +0.023 C 
ATOM      2  C   UNL     1      -3.656   5.617  -0.339  0.00  0.00    +0.035 C 
ATOM      3  C   UNL     1      -2.498   4.669  -0.168  0.00  0.00    -0.021 C 
ATOM      4  C   UNL     1      -2.697   3.391   0.091  0.00  0.00    -0.029 C 
ATOM      5  C   UNL     1      -4.052   2.780   0.291  0.00  0.00    +0.031 C 
ATOM      6  C   UNL     1      -5.208   3.712   0.014  0.00  0.00    +0.017 C 
ATOM      7  C   UNL     1      -4.132   1.504  -0.550  0.00  0.00    +0.073 C 
ATOM      8  C   UNL     1      -3.091   0.507  -0.040  0.00  0.00    +0.189 C 
ATOM      9  C   UNL     1      -1.734   1.133   0.070  0.00  0.00    +0.054 C 
ATOM     10  C   UNL     1      -1.530   2.472   0.150  0.00  0.00    +0.074 C 
ENDROOT
BRANCH   1  14
ATOM     11  C   UNL     1      -3.608   3.143  -4.686  0.00  0.00    +0.000 A 
ATOM     12  C   UNL     1      -4.770   2.708  -4.076  0.00  0.00    +0.000 A 
ATOM     13  C   UNL     1      -5.162   3.253  -2.868  0.00  0.00    +0.004 A 
ATOM     14  C   UNL     1      -4.393   4.234  -2.270  0.00  0.00    -0.044 A 
ATOM     15  C   UNL     1      -3.234   4.672  -2.883  0.00  0.00    +0.004 A 
ATOM     16  C   UNL     1      -2.839   4.124  -4.088  0.00  0.00    +0.000 A 
ENDBRANCH   1  14
BRANCH   7  17
ATOM     17  C   UNL     1      -5.509   0.903  -0.429  0.00  0.00    -0.004 A 
ATOM     18  C   UNL     1      -6.420   0.653  -1.401  0.00  0.00    +0.011 A 
ATOM     19  C   UNL     1      -7.633   0.089  -1.053  0.00  0.00    +0.008 A 
ATOM     20  C   UNL     1      -7.875  -0.198   0.249  0.00  0.00    +0.045 A 
ATOM     21  S   UNL     1      -6.359   0.327   1.032  0.00  0.00    -0.101 S 
ENDBRANCH   7  17
BRANCH   9  22
ATOM     22  N   UNL     1      -0.643   0.310   0.098  0.00  0.00    -0.358 N 
ATOM     23  H   UNL     1       0.367   0.738   0.179  0.00  0.00    +0.142 HD
ATOM     24  H   UNL     1      -0.775  -0.780   0.040  0.00  0.00    +0.142 HD
ENDBRANCH   9  22
BRANCH  10  25
ATOM     25  C   UNL     1      -0.203   2.995   0.283  0.00  0.00    +0.101 C 
ATOM     26  N   UNL     1       0.849   3.409   0.388  0.00  0.00    -0.191 NA
ENDBRANCH  10  25
BRANCH   8  27
ATOM     27  C   UNL     1      -3.021  -0.632  -0.970  0.00  0.00    +0.091 C 
ATOM     28  N   UNL     1      -2.967  -1.510  -1.688  0.00  0.00    -0.194 NA
ENDBRANCH   8  27
BRANCH   8  29
ATOM     29  C   UNL     1      -3.505   0.019   1.286  0.00  0.00    +0.091 C 
ATOM     30  N   UNL     1      -3.824  -0.357   2.309  0.00  0.00    -0.194 NA
ENDBRANCH   8  29
TORSDOF 6
