REMARK  Name = ZINC39733702
REMARK  4 active torsions:
REMARK  status: ('A' for Active; 'I' for Inactive)
REMARK    1  A    between atoms: C_7  and  C_11
REMARK    2  A    between atoms: C_11  and  O_13
REMARK    3  A    between atoms: O_13  and  C_14
REMARK    4  A    between atoms: C_14  and  C_15
REMARK                            x       y       z     vdW  Elec       q    Type
REMARK                         _______ _______ _______ _____ _____    ______ ____
ROOT
ATOM      1  C   UNL     1       1.279  -6.827  -0.049  0.00  0.00    +0.049 C 
ATOM      2  N   UNL     1       0.636  -8.043  -0.054  0.00  0.00    -0.317 N 
ATOM      3  C   UNL     1       1.326  -9.173   0.582  0.00  0.00    +0.231 C 
ATOM      4  N   UNL     1       2.727  -9.155   0.074  0.00  0.00    -0.242 N 
ATOM      5  C   UNL     1       3.239 -10.407  -0.279  0.00  0.00    +0.026 C 
ATOM      6  C   UNL     1       2.392 -11.423  -0.472  0.00  0.00    +0.006 C 
ATOM      7  S   UNL     1       0.747 -10.746  -0.175  0.00  0.00    -0.086 S 
ATOM      8  C   UNL     1       2.723 -12.836  -0.843  0.00  0.00    +0.044 C 
ATOM      9  C   UNL     1       4.162 -12.881  -1.373  0.00  0.00    +0.006 C 
ATOM     10  C   UNL     1       5.060 -12.101  -0.408  0.00  0.00    +0.006 C 
ATOM     11  C   UNL     1       4.739 -10.611  -0.493  0.00  0.00    +0.052 C 
ATOM     12  C   UNL     1       3.388  -7.976  -0.075  0.00  0.00    +0.247 C 
ATOM     13  O   UNL     1       4.597  -7.949  -0.221  0.00  0.00    -0.270 OA
ATOM     14  C   UNL     1       2.627  -6.780  -0.062  0.00  0.00    +0.089 C 
ATOM     15  H   UNL     1      -0.237  -8.150  -0.462  0.00  0.00    +0.148 HD
ENDROOT
BRANCH   1  16
ATOM     16  C   UNL     1       0.479  -5.550  -0.033  0.00  0.00    +0.283 C 
BRANCH  16  17
ATOM     17  O   UNL     1       1.368  -4.431  -0.036  0.00  0.00    -0.454 OA
BRANCH  17  18
ATOM     18  C   UNL     1       0.807  -3.203  -0.023  0.00  0.00    +0.358 C 
ATOM     19  O   UNL     1      -0.404  -3.087  -0.010  0.00  0.00    -0.243 OA
BRANCH  18  26
ATOM     20  C   UNL     1      -0.016   1.357   0.009  0.00  0.00    +0.001 A 
ATOM     21  C   UNL     1       1.162   2.103   0.002  0.00  0.00    +0.002 A 
ATOM     22  C   UNL     1       2.385   1.511  -0.013  0.00  0.00    +0.030 A 
ATOM     23  C   UNL     1       2.476   0.105  -0.021  0.00  0.00    +0.093 A 
ATOM     24  C   UNL     1       1.230  -0.676  -0.013  0.00  0.00    +0.034 A 
ATOM     25  C   UNL     1       0.002  -0.004   0.002  0.00  0.00    +0.012 A 
ATOM     26  C   UNL     1       1.656  -2.012  -0.025  0.00  0.00    +0.150 A 
ATOM     27  N   UNL     1       3.018  -1.979  -0.039  0.00  0.00    -0.270 N 
ATOM     28  H   UNL     1       3.582  -2.768  -0.050  0.00  0.00    +0.189 HD
ATOM     29  N   UNL     1       3.463  -0.774  -0.036  0.00  0.00    -0.173 NA
ENDBRANCH  18  26
ENDBRANCH  17  18
ENDBRANCH  16  17
ENDBRANCH   1  16
TORSDOF 4
