REMARK  Name = ZINC10888975
REMARK  5 active torsions:
REMARK  status: ('A' for Active; 'I' for Inactive)
REMARK    1  A    between atoms: C_6  and  S_7
REMARK    2  A    between atoms: S_7  and  N_10
REMARK    3  A    between atoms: C_14  and  C_16
REMARK    4  A    between atoms: N_18  and  N_19
REMARK    5  A    between atoms: C_20  and  C_22
REMARK                            x       y       z     vdW  Elec       q    Type
REMARK                         _______ _______ _______ _____ _____    ______ ____
ROOT
ATOM      1  N   UNL     1      -0.955  -0.207  10.452  0.00  0.00    -0.165 NA
ATOM      2  C   UNL     1      -1.912  -1.147  11.071  0.00  0.00    +0.110 C 
ATOM      3  C   UNL     1      -3.245  -0.363  11.149  0.00  0.00    +0.019 C 
ATOM      4  C   UNL     1      -3.209   0.445   9.825  0.00  0.00    +0.031 C 
ATOM      5  C   UNL     1      -1.711   0.776   9.663  0.00  0.00    +0.167 C 
ENDROOT
BRANCH   5   6
ATOM      6  C   UNL     1      -1.319   0.678   8.211  0.00  0.00    +0.248 C 
ATOM      7  O   UNL     1      -0.484  -0.129   7.861  0.00  0.00    -0.273 OA
ATOM      8  N   UNL     1      -1.896   1.488   7.301  0.00  0.00    -0.233 N 
ATOM      9  H   UNL     1      -2.564   2.134   7.580  0.00  0.00    +0.173 HD
BRANCH   8  10
ATOM     10  N   UNL     1      -1.531   1.397   5.951  0.00  0.00    -0.230 N 
ATOM     11  C   UNL     1      -2.108   2.207   5.041  0.00  0.00    +0.267 C 
ATOM     12  O   UNL     1      -2.946   3.017   5.392  0.00  0.00    -0.268 OA
ATOM     13  H   UNL     1      -0.863   0.752   5.672  0.00  0.00    +0.173 HD
BRANCH  11  14
ATOM     14  C   UNL     1      -1.727   2.112   3.629  0.00  0.00    +0.076 A 
ATOM     15  C   UNL     1      -2.191   2.840   2.550  0.00  0.00    +0.024 A 
ATOM     16  C   UNL     1      -1.668   2.559   1.298  0.00  0.00    -0.036 A 
ATOM     17  C   UNL     1      -0.724   1.574   1.232  0.00  0.00    -0.006 A 
ATOM     18  S   UNL     1      -0.541   1.026   2.854  0.00  0.00    -0.088 S 
ATOM     19  C   UNL     1      -0.013   1.086   0.008  0.00  0.00    +0.043 C 
ATOM     20  C   UNL     1      -0.766   1.600  -1.228  0.00  0.00    +0.005 C 
ATOM     21  C   UNL     1      -1.046   3.094  -1.047  0.00  0.00    +0.005 C 
ATOM     22  C   UNL     1      -2.105   3.299   0.036  0.00  0.00    +0.036 C 
ENDBRANCH  11  14
ENDBRANCH   8  10
ENDBRANCH   5   6
BRANCH   1  23
ATOM     23  S   UNL     1       0.692  -0.252  10.616  0.00  0.00    +0.062 S 
ATOM     24  O   UNL     1       1.030  -1.591  10.950  0.00  0.00    -0.153 OA
ATOM     25  O   UNL     1       1.232   0.410   9.481  0.00  0.00    -0.153 OA
BRANCH  23  31
ATOM     26  C   UNL     1       1.167   0.158  13.272  0.00  0.00    +0.032 A 
ATOM     27  C   UNL     1       1.488   0.929  14.373  0.00  0.00    +0.051 A 
ATOM     28  C   UNL     1       1.748   2.283  14.222  0.00  0.00    +0.162 A 
ATOM     29  C   UNL     1       1.686   2.862  12.960  0.00  0.00    +0.164 A 
ATOM     30  C   UNL     1       1.366   2.082  11.859  0.00  0.00    +0.078 A 
ATOM     31  C   UNL     1       1.103   0.734  12.017  0.00  0.00    +0.109 A 
ATOM     32  O   UNL     1       1.941   4.188  12.789  0.00  0.00    -0.485 OA
ATOM     33  C   UNL     1       1.894   5.009  13.961  0.00  0.00    +0.270 C 
ATOM     34  C   UNL     1       2.675   4.300  15.075  0.00  0.00    +0.270 C 
ATOM     35  O   UNL     1       2.059   3.030  15.317  0.00  0.00    -0.485 OA
ENDBRANCH  23  31
ENDBRANCH   1  23
TORSDOF 5
