REMARK  Name = ZINC08017576
REMARK  10 active torsions:
REMARK  status: ('A' for Active; 'I' for Inactive)
REMARK    1  A    between atoms: C_1  and  C_2
REMARK    2  A    between atoms: C_7  and  N_12
REMARK    3  A    between atoms: C_9  and  C_11
REMARK    4  A    between atoms: N_12  and  C_13
REMARK    5  A    between atoms: C_13  and  N_15
REMARK    6  A    between atoms: N_15  and  N_16
REMARK    7  A    between atoms: C_17  and  C_19
REMARK    8  A    between atoms: C_19  and  N_27
REMARK    9  A    between atoms: C_20  and  C_21
REMARK   10  A    between atoms: C_28  and  C_30
REMARK                            x       y       z     vdW  Elec       q    Type
REMARK                         _______ _______ _______ _____ _____    ______ ____
ROOT
ATOM      1  N   UNL     1      -6.234   1.841   0.467  0.00  0.00    -0.230 N 
ATOM      2  C   UNL     1      -5.174   1.030   0.280  0.00  0.00    +0.274 C 
ATOM      3  O   UNL     1      -5.335  -0.174   0.208  0.00  0.00    -0.267 OA
ATOM      4  H   UNL     1      -6.116   2.804   0.452  0.00  0.00    +0.173 HD
ENDROOT
BRANCH   1   5
ATOM      5  N   UNL     1      -7.505   1.294   0.685  0.00  0.00    -0.246 N 
ATOM      6  H   UNL     1      -7.610   0.334   0.778  0.00  0.00    +0.172 HD
BRANCH   5   7
ATOM      7  C   UNL     1      -8.581   2.101   0.765  0.00  0.00    +0.147 C 
ATOM      8  S   UNL     1     -10.114   1.448   1.160  0.00  0.00    -0.017 S 
BRANCH   7   9
ATOM      9  N   UNL     1      -8.451   3.423   0.534  0.00  0.00    -0.322 N 
ATOM     10  H   UNL     1      -7.600   3.782   0.239  0.00  0.00    +0.148 HD
BRANCH   9  16
ATOM     11  C   UNL     1      -7.965   7.534  -0.618  0.00  0.00    +0.008 C 
ATOM     12  C   UNL     1      -8.137   6.288   0.253  0.00  0.00    -0.009 C 
ATOM     13  C   UNL     1      -8.215   6.702   1.724  0.00  0.00    +0.003 C 
ATOM     14  C   UNL     1      -8.386   5.456   2.596  0.00  0.00    +0.002 C 
ATOM     15  C   UNL     1      -9.674   4.730   2.201  0.00  0.00    +0.022 C 
ATOM     16  C   UNL     1      -9.595   4.317   0.730  0.00  0.00    +0.075 C 
ATOM     17  C   UNL     1      -9.424   5.562  -0.142  0.00  0.00    +0.009 C 
ATOM     18  C   UNL     1      -9.345   5.149  -1.613  0.00  0.00    +0.009 C 
ENDBRANCH   9  16
ENDBRANCH   7   9
ENDBRANCH   5   7
ENDBRANCH   1   5
BRANCH   2  19
ATOM     19  C   UNL     1      -3.824   1.600   0.162  0.00  0.00    +0.098 C 
ATOM     20  C   UNL     1      -2.753   0.782   0.038  0.00  0.00    +0.036 C 
BRANCH  20  21
ATOM     21  C   UNL     1      -1.392   1.339   0.093  0.00  0.00    -0.023 A 
ATOM     22  C   UNL     1      -0.323   0.639  -0.476  0.00  0.00    +0.008 A 
ATOM     23  C   UNL     1       0.948   1.170  -0.426  0.00  0.00    +0.001 A 
ATOM     24  C   UNL     1       1.169   2.390   0.190  0.00  0.00    +0.000 A 
ATOM     25  C   UNL     1       0.117   3.086   0.760  0.00  0.00    +0.001 A 
ATOM     26  C   UNL     1      -1.160   2.568   0.719  0.00  0.00    +0.008 A 
ENDBRANCH  20  21
BRANCH  19  27
ATOM     27  N   UNL     1      -3.646   2.987   0.179  0.00  0.00    -0.282 N 
ATOM     28  C   UNL     1      -4.090   3.711   1.225  0.00  0.00    +0.214 C 
ATOM     29  O   UNL     1      -4.564   3.152   2.192  0.00  0.00    -0.276 OA
ATOM     30  C   UNL     1      -3.999   5.215   1.194  0.00  0.00    +0.109 C 
ATOM     31  H   UNL     1      -3.203   3.428  -0.563  0.00  0.00    +0.155 HD
ENDBRANCH  19  27
ENDBRANCH   2  19
TORSDOF 7
