REMARK  Name = ZINC08876228
REMARK  11 active torsions:
REMARK  status: ('A' for Active; 'I' for Inactive)
REMARK    1  A    between atoms: C_1  and  C_2
REMARK    2  A    between atoms: C_12  and  C_13
REMARK    3  A    between atoms: C_13  and  C_14
REMARK    4  A    between atoms: N_16  and  CA_17
REMARK    5  A    between atoms: CA_17  and  CB_19
REMARK    6  A    between atoms: CA_17  and  C_23
REMARK    7  A    between atoms: CB_19  and  CG_20
REMARK    8  A    between atoms: CG_20  and  SD_21
REMARK    9  A    between atoms: SD_21  and  CE_22
REMARK   10  A    between atoms: N_25  and  CA_26
REMARK   11  A    between atoms: CA_26  and  C_27
REMARK                            x       y       z     vdW  Elec       q    Type
REMARK                         _______ _______ _______ _____ _____    ______ ____
ROOT
ATOM      1  C   UNK A   0      -7.808   0.902   1.229  0.00  0.00    +0.045 C 
ATOM      2  C   UNK A   0      -8.038   1.019  -0.256  0.00  0.00    -0.029 A 
ATOM      3  C   UNK A   0      -9.200   0.393  -0.895  0.00  0.00    +0.022 A 
ATOM      4  C   UNK A   0     -10.123  -0.330  -0.139  0.00  0.00    +0.023 A 
ATOM      5  C   UNK A   0     -11.214  -0.913  -0.768  0.00  0.00    +0.024 A 
ATOM      6  C   UNK A   0     -11.388  -0.774  -2.162  0.00  0.00    +0.139 A 
ATOM      7  C   UNK A   0     -10.466  -0.055  -2.906  0.00  0.00    +0.093 A 
ATOM      8  C   UNK A   0      -9.373   0.531  -2.287  0.00  0.00    +0.143 A 
ATOM      9  O   UNK A   0      -8.480   1.229  -3.020  0.00  0.00    -0.422 OA
ATOM     10  C   UNK A   0      -7.426   1.802  -2.433  0.00  0.00    +0.341 A 
ATOM     11  O   UNK A   0      -6.643   2.428  -3.124  0.00  0.00    -0.245 OA
ATOM     12  C   UNK A   0      -7.176   1.708  -1.048  0.00  0.00    +0.049 A 
ATOM     13  O   UNK A   0     -12.518  -1.435  -2.491  0.00  0.00    -0.459 OA
ATOM     14  C   UNK A   0     -13.085  -1.992  -1.408  0.00  0.00    +0.109 A 
ATOM     15  C   UNK A   0     -12.350  -1.718  -0.318  0.00  0.00    +0.001 A 
ATOM     16  C   UNK A   0     -12.676  -2.174   1.079  0.00  0.00    +0.039 C 
ATOM     17  C   UNK A   0     -14.141  -2.627   1.113  0.00  0.00    +0.005 C 
ATOM     18  C   UNK A   0     -14.400  -3.587  -0.052  0.00  0.00    +0.008 C 
ATOM     19  C   UNK A   0     -14.355  -2.811  -1.373  0.00  0.00    +0.075 C 
ENDROOT
BRANCH  12  20
ATOM     20  C   UNK A   0      -5.964   2.373  -0.450  0.00  0.00    +0.138 C 
BRANCH  20  21
ATOM     21  C   UNK A   0      -4.805   1.410  -0.461  0.00  0.00    +0.218 C 
ATOM     22  O   UNK A   0      -4.950   0.292  -0.910  0.00  0.00    -0.275 OA
ATOM     23  N   MET A   1      -3.608   1.789   0.029  0.00  0.00    -0.304 N 
ATOM     24  H   MET A   1      -3.493   2.683   0.388  0.00  0.00    +0.149 HD
BRANCH  23  25
ATOM     25  CA  MET A   1      -2.482   0.853   0.018  0.00  0.00    +0.160 C 
BRANCH  25  26
ATOM     26  C   MET A   1      -1.187   1.624   0.017  0.00  0.00    +0.234 C 
ATOM     27  O   MET A   1      -1.204   2.837   0.023  0.00  0.00    -0.274 OA
ATOM     28  N   GLY A   2      -0.011   0.966   0.007  0.00  0.00    -0.303 N 
ATOM     29  H   GLY A   2       0.002  -0.004   0.002  0.00  0.00    +0.149 HD
BRANCH  28  30
ATOM     30  CA  GLY A   2       1.248   1.716  -0.001  0.00  0.00    +0.229 C 
BRANCH  30  31
ATOM     31  C   GLY A   2       2.406   0.752  -0.017  0.00  0.00    +0.373 C 
ATOM     32  O   GLY A   2       2.201  -0.439  -0.021  0.00  0.00    -0.245 OA
ATOM     33  OXT GLY A   2       3.665   1.216  -0.026  0.00  0.00    -0.245 OA
ENDBRANCH  30  31
ENDBRANCH  28  30
ENDBRANCH  25  26
BRANCH  25  34
ATOM     34  CB  MET A   1      -2.545  -0.035   1.263  0.00  0.00    +0.042 C 
BRANCH  34  35
ATOM     35  CG  MET A   1      -3.799  -0.909   1.203  0.00  0.00    +0.071 C 
BRANCH  35  36
ATOM     36  SD  MET A   1      -3.874  -1.961   2.679  0.00  0.00    -0.164 S 
ATOM     37  CE  MET A   1      -5.397  -2.922   2.456  0.00  0.00    +0.084 C 
ENDBRANCH  35  36
ENDBRANCH  34  35
ENDBRANCH  25  34
ENDBRANCH  23  25
ENDBRANCH  20  21
ENDBRANCH  12  20
TORSDOF 9
