REMARK  Name = ZINC12877669
REMARK  3 active torsions:
REMARK  status: ('A' for Active; 'I' for Inactive)
REMARK    1  A    between atoms: C_4  and  C_7
REMARK    2  A    between atoms: C_7  and  C_8
REMARK    3  A    between atoms: N_16  and  C_19
REMARK                            x       y       z     vdW  Elec       q    Type
REMARK                         _______ _______ _______ _____ _____    ______ ____
ROOT
ATOM      1  C   UNL     1       6.581  -1.116  -1.531  0.00  0.00    -0.053 C 
ATOM      2  C   UNL     1       5.914  -1.067  -0.140  0.00  0.00    +0.074 C 
ATOM      3  C   UNL     1       5.156  -2.417  -0.012  0.00  0.00    +0.088 C 
ATOM      4  C   UNL     1       3.704  -1.996   0.048  0.00  0.00    +0.229 C 
ATOM      5  O   UNL     1       2.761  -2.749   0.162  0.00  0.00    -0.275 OA
ATOM      6  N   UNL     1       3.623  -0.664  -0.046  0.00  0.00    -0.210 N 
ATOM      7  C   UNL     1       4.803  -0.042  -0.155  0.00  0.00    +0.228 C 
ATOM      8  O   UNL     1       4.956   1.157  -0.251  0.00  0.00    -0.275 OA
ATOM      9  C   UNL     1       5.431  -3.140  -1.336  0.00  0.00    +0.050 C 
ATOM     10  C   UNL     1       6.545  -4.139  -1.197  0.00  0.00    -0.028 A 
ATOM     11  C   UNL     1       7.869  -4.037  -0.832  0.00  0.00    +0.004 A 
ATOM     12  C   UNL     1       8.666  -5.167  -0.796  0.00  0.00    +0.000 A 
ATOM     13  C   UNL     1       8.131  -6.398  -1.130  0.00  0.00    +0.002 A 
ATOM     14  C   UNL     1       6.806  -6.504  -1.498  0.00  0.00    +0.023 A 
ATOM     15  C   UNL     1       5.996  -5.372  -1.537  0.00  0.00    +0.036 A 
ATOM     16  N   UNL     1       4.649  -5.223  -1.873  0.00  0.00    -0.286 N 
ATOM     17  C   UNL     1       4.240  -3.943  -1.782  0.00  0.00    +0.211 C 
ATOM     18  O   UNL     1       3.128  -3.520  -2.015  0.00  0.00    -0.277 OA
ATOM     19  H   UNL     1       4.074  -5.958  -2.140  0.00  0.00    +0.155 HD
ATOM     20  N   UNL     1       5.777  -2.088  -2.275  0.00  0.00    +0.394 N 
ATOM     21  H   UNL     1       6.320  -2.473  -3.057  0.00  0.00    -0.083 HD
ATOM     22  H   UNL     1       4.926  -1.641  -2.637  0.00  0.00    -0.083 HD
ENDROOT
BRANCH   6  23
ATOM     23  C   UNL     1       2.401   0.025  -0.027  0.00  0.00    +0.048 A 
ATOM     24  C   UNL     1       1.961   0.691  -1.162  0.00  0.00    +0.028 A 
ATOM     25  C   UNL     1       0.758   1.370  -1.143  0.00  0.00    +0.051 A 
ATOM     26  C   UNL     1      -0.013   1.389   0.009  0.00  0.00    +0.162 A 
ATOM     27  C   UNL     1       0.423   0.720   1.147  0.00  0.00    +0.164 A 
ATOM     28  C   UNL     1       1.631   0.040   1.127  0.00  0.00    +0.073 A 
ATOM     29  O   UNL     1      -0.325   0.719   2.284  0.00  0.00    -0.485 OA
ATOM     30  C   UNL     1      -1.345   1.718   2.384  0.00  0.00    +0.270 C 
ATOM     31  C   UNL     1      -2.117   1.753   1.058  0.00  0.00    +0.270 C 
ATOM     32  O   UNL     1      -1.192   2.071   0.011  0.00  0.00    -0.485 OA
ENDBRANCH   6  23
BRANCH   1  33
ATOM     33  C   UNL     1       6.541   0.264  -2.190  0.00  0.00    +0.020 C 
BRANCH  33  37
ATOM     34  C   UNL     1       8.703   0.147  -5.872  0.00  0.00    +0.000 A 
ATOM     35  C   UNL     1       7.350  -0.140  -5.855  0.00  0.00    +0.000 A 
ATOM     36  C   UNL     1       6.651  -0.102  -4.663  0.00  0.00    +0.003 A 
ATOM     37  C   UNL     1       7.304   0.223  -3.489  0.00  0.00    -0.049 A 
ATOM     38  C   UNL     1       8.655   0.515  -3.507  0.00  0.00    +0.003 A 
ATOM     39  C   UNL     1       9.355   0.472  -4.698  0.00  0.00    +0.000 A 
ENDBRANCH  33  37
ENDBRANCH   1  33
TORSDOF 3
