REMARK  Name = ZINC03036222
REMARK  9 active torsions:
REMARK  status: ('A' for Active; 'I' for Inactive)
REMARK    1  A    between atoms: C_1  and  O_2
REMARK    2  A    between atoms: O_2  and  C_3
REMARK    3  A    between atoms: C_7  and  C_10
REMARK    4  A    between atoms: C_8  and  O_9
REMARK    5  A    between atoms: N_11  and  N_12
REMARK    6  A    between atoms: C_13  and  C_15
REMARK    7  A    between atoms: C_15  and  N_22
REMARK    8  A    between atoms: C_16  and  C_17
REMARK    9  A    between atoms: C_23  and  C_25
REMARK                            x       y       z     vdW  Elec       q    Type
REMARK                         _______ _______ _______ _____ _____    ______ ____
ROOT
ATOM      1  N   UNL     1      -4.742   0.918  -0.299  0.00  0.00    -0.202 N 
ATOM      2  C   UNL     1      -3.642   1.692  -0.225  0.00  0.00    +0.277 C 
ATOM      3  O   UNL     1      -3.741   2.903  -0.319  0.00  0.00    -0.267 OA
ATOM      4  H   UNL     1      -4.663  -0.046  -0.224  0.00  0.00    +0.178 HD
ENDROOT
BRANCH   1   6
ATOM      5  C   UNL     1      -7.061   0.759  -0.557  0.00  0.00    +0.142 C 
ATOM      6  N   UNL     1      -6.001   1.505  -0.485  0.00  0.00    -0.187 NA
BRANCH   5  11
ATOM      7  C   UNL     1      -9.756   3.339  -1.044  0.00  0.00    +0.163 A 
ATOM      8  C   UNL     1     -10.882   2.534  -1.120  0.00  0.00    +0.064 A 
ATOM      9  C   UNL     1     -10.766   1.158  -1.012  0.00  0.00    +0.022 A 
ATOM     10  C   UNL     1      -9.528   0.576  -0.830  0.00  0.00    +0.028 A 
ATOM     11  C   UNL     1      -8.385   1.376  -0.752  0.00  0.00    +0.041 A 
ATOM     12  C   UNL     1      -8.504   2.768  -0.855  0.00  0.00    +0.167 A 
ATOM     13 BR   UNL     1     -12.310   0.073  -1.117  0.00  0.00    -0.050 Br
BRANCH   7  15
ATOM     14  C   UNL     1     -11.195   5.210  -1.338  0.00  0.00    +0.277 C 
ATOM     15  O   UNL     1      -9.877   4.690  -1.150  0.00  0.00    -0.491 OA
ENDBRANCH   7  15
BRANCH  12  16
ATOM     16  O   UNL     1      -7.399   3.555  -0.775  0.00  0.00    -0.503 OA
ATOM     17  H   UNL     1      -6.976   3.727  -1.628  0.00  0.00    +0.292 HD
ENDBRANCH  12  16
ENDBRANCH   5  11
ENDBRANCH   1   6
BRANCH   2  18
ATOM     18  C   UNL     1      -2.327   1.079  -0.031  0.00  0.00    +0.099 C 
ATOM     19  C   UNL     1      -2.216  -0.273   0.074  0.00  0.00    +0.043 C 
BRANCH  19  20
ATOM     20  C   UNL     1      -0.936  -0.875   0.137  0.00  0.00    +0.014 A 
ATOM     21  C   UNL     1      -0.603  -2.223   0.167  0.00  0.00    +0.015 A 
ATOM     22  C   UNL     1       0.725  -2.564   0.224  0.00  0.00    +0.008 A 
ATOM     23  C   UNL     1       1.666  -1.581   0.262  0.00  0.00    +0.046 A 
ATOM     24  S   UNL     1       0.671  -0.100   0.207  0.00  0.00    -0.097 S 
ENDBRANCH  19  20
BRANCH  18  25
ATOM     25  N   UNL     1      -1.184   1.884   0.047  0.00  0.00    -0.277 N 
ATOM     26  C   UNL     1      -0.855   2.688  -0.984  0.00  0.00    +0.248 C 
ATOM     27  O   UNL     1      -1.596   2.781  -1.943  0.00  0.00    -0.270 OA
ATOM     28  H   UNL     1      -0.629   1.862   0.842  0.00  0.00    +0.155 HD
BRANCH  26  29
ATOM     29  C   UNL     1       0.404   3.462  -0.944  0.00  0.00    +0.037 A 
ATOM     30  C   UNL     1       1.199   3.450   0.203  0.00  0.00    +0.013 A 
ATOM     31  C   UNL     1       2.375   4.170   0.231  0.00  0.00    +0.001 A 
ATOM     32  C   UNL     1       2.763   4.911  -0.871  0.00  0.00    +0.000 A 
ATOM     33  C   UNL     1       1.977   4.932  -2.010  0.00  0.00    +0.001 A 
ATOM     34  C   UNL     1       0.801   4.212  -2.053  0.00  0.00    +0.013 A 
ENDBRANCH  26  29
ENDBRANCH  18  25
ENDBRANCH   2  18
TORSDOF 8
