REMARK  Name = ZINC04221589
REMARK  11 active torsions:
REMARK  status: ('A' for Active; 'I' for Inactive)
REMARK    1  A    between atoms: C_2  and  C_3
REMARK    2  A    between atoms: C_3  and  N_4
REMARK    3  A    between atoms: C_5  and  O_7
REMARK    4  A    between atoms: O_7  and  C_8
REMARK    5  A    between atoms: C_11  and  C_28
REMARK    6  A    between atoms: C_11  and  O_35
REMARK    7  A    between atoms: C_13  and  N_18
REMARK    8  A    between atoms: C_15  and  O_17
REMARK    9  A    between atoms: N_21  and  C_22
REMARK   10  A    between atoms: N_30  and  C_31
REMARK   11  A    between atoms: C_31  and  C_32
REMARK                            x       y       z     vdW  Elec       q    Type
REMARK                         _______ _______ _______ _____ _____    ______ ____
ROOT
ATOM      1  C   UNL     1       0.742  -0.511   1.242  0.00  0.00    +0.211 C 
ATOM      2  C   UNL     1       0.763  -2.041   1.233  0.00  0.00    +0.091 C 
ATOM      3  C   UNL     1      -0.673  -2.570   1.244  0.00  0.00    +0.147 C 
ATOM      4  C   UNL     1      -1.413  -2.063   0.004  0.00  0.00    +0.069 C 
ATOM      5  C   UNL     1      -1.433  -0.534   0.013  0.00  0.00    +0.110 C 
ATOM      6  C   UNL     1       0.002  -0.004   0.002  0.00  0.00    +0.175 C 
ENDROOT
BRANCH   5   7
ATOM      7  N   UNL     1      -2.142  -0.048  -1.174  0.00  0.00    -0.294 N 
ATOM      8  C   UNL     1      -2.727   1.166  -1.160  0.00  0.00    +0.300 C 
ATOM      9  O   UNL     1      -2.667   1.858  -0.163  0.00  0.00    -0.253 OA
ATOM     10  N   UNL     1      -3.379   1.612  -2.252  0.00  0.00    -0.297 N 
ATOM     11  H   UNL     1      -2.190  -0.601  -1.970  0.00  0.00    +0.151 HD
ATOM     12  H   UNL     1      -3.427   1.060  -3.048  0.00  0.00    +0.151 HD
BRANCH  10  13
ATOM     13  C   UNL     1      -4.015   2.932  -2.237  0.00  0.00    +0.074 C 
ATOM     14  C   UNL     1      -5.414   2.817  -1.629  0.00  0.00    +0.022 C 
ATOM     15  C   UNL     1      -6.078   4.195  -1.613  0.00  0.00    +0.002 C 
ATOM     16  C   UNL     1      -6.186   4.726  -3.044  0.00  0.00    +0.000 C 
ATOM     17  C   UNL     1      -4.787   4.841  -3.652  0.00  0.00    +0.002 C 
ATOM     18  C   UNL     1      -4.122   3.462  -3.668  0.00  0.00    +0.022 C 
ENDBRANCH  10  13
ENDBRANCH   5   7
BRANCH   3  19
ATOM     19  C   UNL     1      -0.652  -4.077   1.236  0.00  0.00    +0.245 C 
ATOM     20  O   UNL     1      -0.745  -4.679   0.187  0.00  0.00    -0.273 OA
ATOM     21  N   UNL     1      -0.530  -4.756   2.394  0.00  0.00    -0.304 N 
ATOM     22  H   UNL     1      -0.456  -4.274   3.232  0.00  0.00    +0.149 HD
BRANCH  21  23
ATOM     23  C   UNL     1      -0.510  -6.221   2.386  0.00  0.00    +0.200 C 
BRANCH  23  24
ATOM     24  C   UNL     1      -0.366  -6.729   3.797  0.00  0.00    +0.228 C 
ATOM     25  O   UNL     1      -0.288  -5.945   4.719  0.00  0.00    -0.274 OA
ATOM     26  N   UNL     1      -0.324  -8.055   4.035  0.00  0.00    -0.328 N 
ATOM     27  H   UNL     1      -0.387  -8.682   3.298  0.00  0.00    +0.145 HD
ATOM     28  H   UNL     1      -0.232  -8.382   4.943  0.00  0.00    +0.145 HD
ENDBRANCH  23  24
ENDBRANCH  21  23
ENDBRANCH   3  19
BRANCH   6  29
ATOM     29  O   UNL     1      -0.017   1.425   0.010  0.00  0.00    -0.386 OA
ATOM     30  H   UNL     1       0.861   1.830   0.004  0.00  0.00    +0.210 HD
ENDBRANCH   6  29
BRANCH   3  31
ATOM     31  O   UNL     1      -1.341  -2.110   2.420  0.00  0.00    -0.379 OA
ATOM     32  H   UNL     1      -0.926  -2.394   3.245  0.00  0.00    +0.211 HD
ENDBRANCH   3  31
BRANCH   1  33
ATOM     33  O   UNL     1       2.104  -0.008   1.231  0.00  0.00    -0.444 OA
BRANCH  33  35
ATOM     34  N   UNL     1       3.953   0.662   2.487  0.00  0.00    -0.278 N 
ATOM     35  C   UNL     1       2.689   0.197   2.426  0.00  0.00    +0.401 C 
ATOM     36  O   UNL     1       2.078  -0.038   3.450  0.00  0.00    -0.226 OA
ATOM     37  H   UNL     1       4.440   0.850   1.670  0.00  0.00    +0.152 HD
BRANCH  34  38
ATOM     38  C   UNL     1       4.589   0.885   3.788  0.00  0.00    +0.134 C 
BRANCH  38  40
ATOM     39  C   UNL     1       6.362   2.527   4.142  0.00  0.00    +0.005 C 
ATOM     40  C   UNL     1       5.989   1.404   3.580  0.00  0.00    -0.016 C 
ENDBRANCH  38  40
ENDBRANCH  34  38
ENDBRANCH  33  35
ENDBRANCH   1  33
TORSDOF 11
