REMARK  Name = ZINC23353432
REMARK  10 active torsions:
REMARK  status: ('A' for Active; 'I' for Inactive)
REMARK    1  A    between atoms: C_1  and  C_2
REMARK    2  A    between atoms: C_2  and  C_3
REMARK    3  A    between atoms: C_2  and  C_4
REMARK    4  A    between atoms: C_2  and  N_28
REMARK    5  A    between atoms: C_4  and  N_5
REMARK    6  A    between atoms: N_5  and  C_6
REMARK    7  A    between atoms: C_12  and  C_16
REMARK    8  A    between atoms: N_14  and  C_15
REMARK    9  A    between atoms: N_18  and  C_19
REMARK   10  A    between atoms: C_19  and  C_20
REMARK                            x       y       z     vdW  Elec       q    Type
REMARK                         _______ _______ _______ _____ _____    ______ ____
ROOT
ATOM      1  C   UNL     1      -2.996  -2.111  -1.291  0.00  0.00    -0.067 C 
ATOM      2  C   UNL     1      -3.970  -1.989  -0.115  0.00  0.00    -0.009 C 
ATOM      3  C   UNL     1      -5.413  -2.032  -0.634  0.00  0.00    +0.054 C 
ATOM      4  C   UNL     1      -5.553  -3.223  -1.546  0.00  0.00    +0.043 A 
ATOM      5  C   UNL     1      -4.503  -3.889  -2.088  0.00  0.00    +0.004 A 
ATOM      6  C   UNL     1      -5.059  -4.921  -2.862  0.00  0.00    +0.150 A 
ATOM      7  N   UNL     1      -6.372  -4.818  -2.746  0.00  0.00    -0.166 NA
ATOM      8  N   UNL     1      -6.672  -3.827  -1.979  0.00  0.00    -0.270 N 
ATOM      9  C   UNL     1      -8.036  -3.419  -1.630  0.00  0.00    +0.172 C 
ATOM     10  C   UNL     1      -3.059  -3.534  -1.863  0.00  0.00    +0.023 C 
ENDROOT
BRANCH   6  11
ATOM     11  C   UNL     1      -4.319  -5.926  -3.653  0.00  0.00    +0.265 C 
ATOM     12  O   UNL     1      -3.104  -5.908  -3.675  0.00  0.00    -0.268 OA
ATOM     13  N   UNL     1      -4.992  -6.862  -4.351  0.00  0.00    -0.306 N 
ATOM     14  H   UNL     1      -5.962  -6.876  -4.334  0.00  0.00    +0.149 HD
BRANCH  13  15
ATOM     15  C   UNL     1      -4.259  -7.859  -5.135  0.00  0.00    +0.140 C 
BRANCH  15  16
ATOM     16  C   UNL     1      -5.238  -8.783  -5.814  0.00  0.00    -0.030 A 
ATOM     17  C   UNL     1      -5.663  -9.931  -5.173  0.00  0.00    +0.008 A 
ATOM     18  C   UNL     1      -6.561 -10.778  -5.794  0.00  0.00    +0.038 A 
ATOM     19  C   UNL     1      -7.034 -10.477  -7.060  0.00  0.00    +0.123 A 
ATOM     20  C   UNL     1      -6.607  -9.327  -7.702  0.00  0.00    +0.038 A 
ATOM     21  C   UNL     1      -5.713  -8.478  -7.076  0.00  0.00    +0.008 A 
ATOM     22  F   UNL     1      -7.911 -11.305  -7.669  0.00  0.00    -0.205 F 
ENDBRANCH  15  16
ENDBRANCH  13  15
ENDBRANCH   6  11
BRANCH   1  23
ATOM     23  N   UNL     1      -1.631  -1.831  -0.827  0.00  0.00    +0.382 N 
ATOM     24  H   UNL     1      -0.980  -1.991  -1.581  0.00  0.00    -0.085 HD
ATOM     25  H   UNL     1      -1.406  -2.439  -0.054  0.00  0.00    -0.085 HD
BRANCH  23  26
ATOM     26  C   UNL     1      -1.540  -0.431  -0.391  0.00  0.00    -0.060 C 
BRANCH  26  28
ATOM     27  C   UNL     1       0.777  -0.175  -1.289  0.00  0.00    +0.025 C 
ATOM     28  C   UNL     1      -0.090  -0.102  -0.031  0.00  0.00    +0.001 C 
ATOM     29  C   UNL     1      -0.018   1.310   0.556  0.00  0.00    +0.025 C 
BRANCH  28  30
ATOM     30  N   UNL     1       0.400  -1.069   0.960  0.00  0.00    -0.295 NA
ATOM     31  C   UNL     1      -0.461  -1.086   2.151  0.00  0.00    +0.113 C 
ATOM     32  C   UNL     1       0.051  -2.147   3.129  0.00  0.00    +0.175 C 
ATOM     33  O   UNL     1       1.417  -1.873   3.451  0.00  0.00    -0.377 OA
ATOM     34  C   UNL     1       2.283  -1.850   2.314  0.00  0.00    +0.175 C 
ATOM     35  C   UNL     1       1.795  -0.786   1.328  0.00  0.00    +0.113 C 
ENDBRANCH  28  30
ENDBRANCH  26  28
ENDBRANCH  23  26
ENDBRANCH   1  23
TORSDOF 7
