REMARK  Name = ZINC39413381
REMARK  8 active torsions:
REMARK  status: ('A' for Active; 'I' for Inactive)
REMARK    1  A    between atoms: C_1  and  C_2
REMARK    2  A    between atoms: C_2  and  O_3
REMARK    3  A    between atoms: O_3  and  C_4
REMARK    4  A    between atoms: C_9  and  C_10
REMARK    5  A    between atoms: C_13  and  C_19
REMARK    6  A    between atoms: C_15  and  C_18
REMARK    7  A    between atoms: C_19  and  N_20
REMARK    8  A    between atoms: C_24  and  C_26
REMARK                            x       y       z     vdW  Elec       q    Type
REMARK                         _______ _______ _______ _____ _____    ______ ____
ROOT
ATOM      1  C   UNL     1       4.376  -2.167   6.178  0.00  0.00    -0.056 C 
ENDROOT
BRANCH   1   4
ATOM      2  C   UNL     1       2.044  -1.791   3.380  0.00  0.00    +0.222 C 
ATOM      3  N   UNL     1       2.407  -2.410   4.681  0.00  0.00    -0.284 NA
ATOM      4  C   UNL     1       3.423  -1.460   5.212  0.00  0.00    +0.068 C 
ATOM      5  C   UNL     1       4.165  -1.008   3.936  0.00  0.00    +0.133 C 
ATOM      6  O   UNL     1       3.268  -1.262   2.842  0.00  0.00    -0.353 OA
ATOM      7  C   UNL     1       4.489   0.485   4.015  0.00  0.00    +0.039 C 
ATOM      8  H   UNL     1       1.605  -2.463   5.292  0.00  0.00    +0.125 HD
BRANCH   2  14
ATOM      9  C   UNL     1       0.805  -2.440   1.299  0.00  0.00    +0.127 A 
ATOM     10  C   UNL     1       0.285  -3.400   0.442  0.00  0.00    +0.046 A 
ATOM     11  C   UNL     1       0.431  -4.741   0.739  0.00  0.00    +0.004 A 
ATOM     12  C   UNL     1       1.093  -5.127   1.890  0.00  0.00    +0.001 A 
ATOM     13  C   UNL     1       1.611  -4.173   2.746  0.00  0.00    +0.011 A 
ATOM     14  C   UNL     1       1.474  -2.830   2.450  0.00  0.00    +0.037 A 
BRANCH   9  15
ATOM     15  O   UNL     1       0.664  -1.120   1.008  0.00  0.00    -0.492 OA
BRANCH  15  17
ATOM     16  C   UNL     1      -0.094   0.729  -0.350  0.00  0.00    +0.048 C 
ATOM     17  C   UNL     1      -0.036  -0.791  -0.193  0.00  0.00    +0.225 C 
ENDBRANCH  15  17
ENDBRANCH   9  15
ENDBRANCH   2  14
ENDBRANCH   1   4
BRANCH   1  18
ATOM     18  N   UNL     1       3.602  -2.793   7.258  0.00  0.00    +0.387 N 
ATOM     19  C   UNL     1       4.505  -3.581   8.125  0.00  0.00    -0.078 C 
ATOM     20  C   UNL     1       4.856  -2.631   9.297  0.00  0.00    -0.020 C 
ATOM     21  C   UNL     1       3.512  -1.887   9.511  0.00  0.00    -0.010 C 
ATOM     22  C   UNL     1       2.959  -1.749   8.077  0.00  0.00    -0.001 C 
ATOM     23  H   UNL     1       2.897  -3.399   6.866  0.00  0.00    -0.081 HD
BRANCH  22  24
ATOM     24  C   UNL     1       1.465  -1.949   8.082  0.00  0.00    +0.095 A 
ATOM     25  N   UNL     1       0.547  -0.967   8.293  0.00  0.00    -0.343 N 
ATOM     26  H   UNL     1       0.736  -0.031   8.465  0.00  0.00    +0.167 HD
ATOM     27  C   UNL     1      -0.702  -1.549   8.219  0.00  0.00    +0.069 A 
ATOM     28  C   UNL     1      -2.000  -1.072   8.347  0.00  0.00    +0.066 A 
ATOM     29  C   UNL     1      -3.063  -1.942   8.213  0.00  0.00    +0.125 A 
ATOM     30  C   UNL     1      -2.842  -3.289   7.953  0.00  0.00    +0.040 A 
ATOM     31  C   UNL     1      -1.572  -3.774   7.825  0.00  0.00    +0.032 A 
ATOM     32  C   UNL     1      -0.480  -2.911   7.956  0.00  0.00    +0.089 A 
ATOM     33  N   UNL     1       0.865  -3.085   7.879  0.00  0.00    -0.234 NA
ATOM     34  F   UNL     1      -4.327  -1.481   8.338  0.00  0.00    -0.205 F 
ENDBRANCH  22  24
ENDBRANCH   1  18
TORSDOF 6
