REMARK  Name = ZINC59368174
REMARK  7 active torsions:
REMARK  status: ('A' for Active; 'I' for Inactive)
REMARK    1  A    between atoms: C_1  and  C_2
REMARK    2  A    between atoms: C_2  and  N_3
REMARK    3  A    between atoms: N_14  and  N_15
REMARK    4  A    between atoms: C_16  and  C_18
REMARK    5  A    between atoms: C_18  and  C_20
REMARK    6  A    between atoms: C_18  and  N_21
REMARK    7  A    between atoms: C_22  and  C_24
REMARK                            x       y       z     vdW  Elec       q    Type
REMARK                         _______ _______ _______ _____ _____    ______ ____
ROOT
ATOM      1  N   UNL     1      -2.080  -0.744   3.509  0.00  0.00    -0.233 N 
ATOM      2  C   UNL     1      -3.410  -0.525   3.515  0.00  0.00    +0.249 C 
ATOM      3  O   UNL     1      -3.963  -0.123   2.514  0.00  0.00    -0.272 OA
ATOM      4  H   UNL     1      -1.638  -1.066   4.310  0.00  0.00    +0.173 HD
ENDROOT
BRANCH   1  16
ATOM      5  N   UNL     1       0.711  -0.489   1.189  0.00  0.00    -0.280 N 
ATOM      6  C   UNL     1       2.048  -0.689   1.137  0.00  0.00    +0.263 A 
ATOM      7  O   UNL     1       2.679  -0.473   0.119  0.00  0.00    -0.267 OA
ATOM      8  C   UNL     1       2.710  -1.177   2.355  0.00  0.00    +0.065 A 
ATOM      9  C   UNL     1       4.083  -1.413   2.403  0.00  0.00    +0.015 A 
ATOM     10  C   UNL     1       4.648  -1.867   3.563  0.00  0.00    +0.001 A 
ATOM     11  C   UNL     1       3.869  -2.093   4.691  0.00  0.00    +0.002 A 
ATOM     12  C   UNL     1       2.521  -1.869   4.671  0.00  0.00    +0.028 A 
ATOM     13  C   UNL     1       1.914  -1.406   3.500  0.00  0.00    +0.080 A 
ATOM     14  N   UNL     1       0.583  -1.170   3.436  0.00  0.00    -0.214 NA
ATOM     15  C   UNL     1       0.018  -0.731   2.339  0.00  0.00    +0.216 A 
ATOM     16  N   UNL     1      -1.336  -0.507   2.346  0.00  0.00    -0.234 N 
ATOM     17  H   UNL     1      -1.779  -0.185   1.545  0.00  0.00    +0.173 HD
BRANCH   5  19
ATOM     18  C   UNL     1      -0.019   1.526   0.010  0.00  0.00    +0.027 C 
ATOM     19  C   UNL     1       0.002  -0.004   0.002  0.00  0.00    +0.125 C 
ENDBRANCH   5  19
ENDBRANCH   1  16
BRANCH   2  20
ATOM     20  C   UNL     1      -4.209  -0.780   4.767  0.00  0.00    +0.158 C 
ATOM     21  C   UNL     1      -3.683   0.106   5.898  0.00  0.00    +0.038 C 
BRANCH  20  22
ATOM     22  N   UNL     1      -5.619  -0.468   4.518  0.00  0.00    -0.300 N 
ATOM     23  C   UNL     1      -6.580  -1.060   5.255  0.00  0.00    +0.251 C 
ATOM     24  O   UNL     1      -6.277  -1.853   6.127  0.00  0.00    -0.270 OA
ATOM     25  H   UNL     1      -5.860   0.164   3.823  0.00  0.00    +0.150 HD
BRANCH  23  26
ATOM     26  C   UNL     1      -7.990  -0.748   5.005  0.00  0.00    +0.075 A 
ATOM     27  C   UNL     1      -9.119  -1.235   5.646  0.00  0.00    +0.022 A 
ATOM     28  C   UNL     1     -10.321  -0.753   5.187  0.00  0.00    +0.024 A 
ATOM     29  C   UNL     1     -10.325   0.143   4.167  0.00  0.00    +0.056 A 
ATOM     30  S   UNL     1      -8.700   0.363   3.805  0.00  0.00    -0.077 S 
ATOM     31 BR   UNL     1     -11.819   0.962   3.346  0.00  0.00    -0.043 Br
ENDBRANCH  23  26
ENDBRANCH  20  22
ENDBRANCH   2  20
TORSDOF 5
