REMARK  Name = ZINC38656924
REMARK  16 active torsions:
REMARK  status: ('A' for Active; 'I' for Inactive)
REMARK    1  A    between atoms: C_1  and  O_2
REMARK    2  A    between atoms: O_2  and  C_3
REMARK    3  A    between atoms: C_6  and  C_11
REMARK    4  A    between atoms: C_7  and  O_9
REMARK    5  A    between atoms: O_9  and  C_10
REMARK    6  A    between atoms: C_16  and  O_25
REMARK    7  A    between atoms: C_20  and  N_24
REMARK    8  A    between atoms: C_21  and  C_22
REMARK    9  A    between atoms: O_25  and  C_26
REMARK   10  A    between atoms: C_26  and  C_28
REMARK   11  A    between atoms: C_30  and  O_38
REMARK   12  A    between atoms: C_31  and  O_36
REMARK   13  A    between atoms: C_32  and  O_34
REMARK   14  A    between atoms: O_34  and  C_35
REMARK   15  A    between atoms: O_36  and  C_37
REMARK   16  A    between atoms: O_38  and  C_39
REMARK                            x       y       z     vdW  Elec       q    Type
REMARK                         _______ _______ _______ _____ _____    ______ ____
ROOT
ATOM      1  C   UNL     1       2.513  -2.510  -4.326  0.00  0.00    +0.101 C 
ATOM      2  C   UNL     1       3.958  -2.090  -4.396  0.00  0.00    +0.008 A 
ATOM      3  C   UNL     1       4.853  -2.574  -3.459  0.00  0.00    +0.012 A 
ATOM      4  C   UNL     1       6.181  -2.200  -3.507  0.00  0.00    +0.047 A 
ATOM      5  C   UNL     1       6.622  -1.334  -4.498  0.00  0.00    +0.135 A 
ATOM      6  C   UNL     1       5.728  -0.847  -5.438  0.00  0.00    +0.093 A 
ATOM      7  C   UNL     1       4.393  -1.225  -5.388  0.00  0.00    +0.138 A 
ATOM      8  O   UNL     1       3.530  -0.740  -6.315  0.00  0.00    -0.441 OA
ATOM      9  C   UNL     1       2.360  -1.363  -6.533  0.00  0.00    +0.199 C 
ATOM     10  C   UNL     1       1.826  -2.212  -5.629  0.00  0.00    +0.098 C 
ENDROOT
BRANCH   1  14
ATOM     11  C   UNL     1       0.565  -0.371  -1.177  0.00  0.00    +0.124 A 
ATOM     12  C   UNL     1       1.139   0.318  -2.236  0.00  0.00    +0.046 A 
ATOM     13  C   UNL     1       1.768  -0.376  -3.252  0.00  0.00    +0.012 A 
ATOM     14  C   UNL     1       1.827  -1.756  -3.216  0.00  0.00    +0.007 A 
ATOM     15  C   UNL     1       1.254  -2.449  -2.159  0.00  0.00    +0.128 A 
ATOM     16  C   UNL     1       0.627  -1.755  -1.135  0.00  0.00    +0.091 A 
BRANCH  11  18
ATOM     17  C   UNL     1      -0.081   1.737  -0.286  0.00  0.00    +0.277 C 
ATOM     18  O   UNL     1      -0.054   0.312  -0.178  0.00  0.00    -0.495 OA
ENDBRANCH  11  18
BRANCH  15  19
ATOM     19  O   UNL     1       1.312  -3.806  -2.124  0.00  0.00    -0.495 OA
ATOM     20  C   UNL     1       0.701  -4.453  -1.006  0.00  0.00    +0.277 C 
ENDBRANCH  15  19
ENDBRANCH   1  14
BRANCH   9  21
ATOM     21  N   UNL     1       1.689  -1.129  -7.707  0.00  0.00    -0.328 N 
ATOM     22  H   UNL     1       2.061  -0.521  -8.365  0.00  0.00    +0.145 HD
ATOM     23  H   UNL     1       0.843  -1.572  -7.879  0.00  0.00    +0.145 HD
ENDBRANCH   9  21
BRANCH  10  24
ATOM     24  C   UNL     1       0.575  -2.845  -5.922  0.00  0.00    +0.101 C 
ATOM     25  N   UNL     1      -0.418  -3.346  -6.155  0.00  0.00    -0.191 NA
ENDBRANCH  10  24
BRANCH   5  26
ATOM     26  O   UNL     1       7.929  -0.965  -4.547  0.00  0.00    -0.422 OA
BRANCH  26  27
ATOM     27  C   UNL     1       8.838  -1.898  -4.892  0.00  0.00    +0.345 C 
ATOM     28  O   UNL     1       8.472  -3.000  -5.248  0.00  0.00    -0.245 OA
BRANCH  27  29
ATOM     29  C   UNL     1      10.278  -1.581  -4.836  0.00  0.00    +0.067 A 
ATOM     30  C   UNL     1      10.701  -0.316  -4.421  0.00  0.00    +0.064 A 
ATOM     31  C   UNL     1      12.050  -0.022  -4.369  0.00  0.00    +0.166 A 
ATOM     32  C   UNL     1      12.988  -0.986  -4.731  0.00  0.00    +0.204 A 
ATOM     33  C   UNL     1      12.569  -2.248  -5.145  0.00  0.00    +0.166 A 
ATOM     34  C   UNL     1      11.221  -2.549  -5.194  0.00  0.00    +0.064 A 
BRANCH  33  35
ATOM     35  O   UNL     1      13.488  -3.186  -5.498  0.00  0.00    -0.491 OA
ATOM     36  C   UNL     1      12.989  -4.459  -5.913  0.00  0.00    +0.277 C 
ENDBRANCH  33  35
BRANCH  32  37
ATOM     37  O   UNL     1      14.314  -0.694  -4.679  0.00  0.00    -0.488 OA
ATOM     38  C   UNL     1      14.991  -0.965  -3.450  0.00  0.00    +0.277 C 
ENDBRANCH  32  37
BRANCH  31  39
ATOM     39  O   UNL     1      12.463   1.209  -3.965  0.00  0.00    -0.491 OA
ATOM     40  C   UNL     1      11.447   2.149  -3.610  0.00  0.00    +0.277 C 
ENDBRANCH  31  39
ENDBRANCH  27  29
ENDBRANCH  26  27
ENDBRANCH   5  26
TORSDOF 11
