REMARK  Name = ZINC38689222
REMARK  6 active torsions:
REMARK  status: ('A' for Active; 'I' for Inactive)
REMARK    1  A    between atoms: C_1  and  C_2
REMARK    2  A    between atoms: C_7  and  N_8
REMARK    3  A    between atoms: C_9  and  C_20
REMARK    4  A    between atoms: C_21  and  C_22
REMARK    5  A    between atoms: C_25  and  O_31
REMARK    6  A    between atoms: O_31  and  C_32
REMARK                            x       y       z     vdW  Elec       q    Type
REMARK                         _______ _______ _______ _____ _____    ______ ____
ROOT
ATOM      1  N   UNL     1       0.025  -0.015   2.417  0.00  0.00    -0.245 N 
ATOM      2  C   UNL     1      -1.248   0.317   3.057  0.00  0.00    +0.190 C 
ATOM      3  N   UNL     1      -1.137   1.587   3.783  0.00  0.00    -0.322 N 
ATOM      4  C   UNL     1      -0.001   1.822   4.550  0.00  0.00    +0.041 A 
ATOM      5  C   UNL     1      -0.034   2.633   5.671  0.00  0.00    +0.024 A 
ATOM      6  C   UNL     1       1.123   2.847   6.396  0.00  0.00    +0.002 A 
ATOM      7  C   UNL     1       2.316   2.256   6.008  0.00  0.00    +0.001 A 
ATOM      8  C   UNL     1       2.365   1.441   4.896  0.00  0.00    +0.015 A 
ATOM      9  C   UNL     1       1.204   1.213   4.160  0.00  0.00    +0.058 A 
ATOM     10  C   UNL     1       1.200   0.328   2.981  0.00  0.00    +0.254 C 
ATOM     11  O   UNL     1       2.246  -0.087   2.520  0.00  0.00    -0.270 OA
ATOM     12  H   UNL     1      -1.843   2.250   3.730  0.00  0.00    +0.148 HD
ENDROOT
BRANCH   1  19
ATOM     13  C   UNL     1      -0.018   1.503   0.010  0.00  0.00    +0.045 C 
ATOM     14  C   UNL     1       0.002  -0.004   0.002  0.00  0.00    -0.029 A 
ATOM     15  C   UNL     1       0.006  -0.689  -1.198  0.00  0.00    +0.005 A 
ATOM     16  C   UNL     1       0.025  -2.071  -1.206  0.00  0.00    +0.000 A 
ATOM     17  C   UNL     1       0.040  -2.773  -0.014  0.00  0.00    +0.002 A 
ATOM     18  C   UNL     1       0.036  -2.095   1.188  0.00  0.00    +0.024 A 
ATOM     19  C   UNL     1       0.023  -0.706   1.200  0.00  0.00    +0.042 A 
ENDBRANCH   1  19
BRANCH   2  20
ATOM     20  C   UNL     1      -1.620  -0.777   4.024  0.00  0.00    +0.015 C 
ATOM     21  C   UNL     1      -2.765  -1.456   3.860  0.00  0.00    +0.005 C 
BRANCH  21  22
ATOM     22  C   UNL     1      -3.113  -2.480   4.766  0.00  0.00    -0.019 C 
ATOM     23  C   UNL     1      -4.250  -3.276   4.735  0.00  0.00    +0.006 A 
ATOM     24  C   UNL     1      -5.356  -3.327   3.855  0.00  0.00    +0.056 A 
ATOM     25  C   UNL     1      -6.349  -4.230   4.073  0.00  0.00    +0.121 A 
ATOM     26  C   UNL     1      -6.305  -5.122   5.157  0.00  0.00    +0.047 A 
ATOM     27  C   UNL     1      -5.277  -5.128   6.036  0.00  0.00    +0.029 A 
ATOM     28  C   UNL     1      -4.202  -4.212   5.874  0.00  0.00    +0.043 A 
ATOM     29  N   UNL     1      -3.108  -4.021   6.579  0.00  0.00    -0.380 N 
ATOM     30  C   UNL     1      -2.323  -2.944   5.969  0.00  0.00    +0.149 C 
ATOM     31  H   UNL     1      -2.858  -4.518   7.374  0.00  0.00    +0.160 HD
BRANCH  25  32
ATOM     32  O   UNL     1      -7.408  -4.271   3.223  0.00  0.00    -0.495 OA
ATOM     33  C   UNL     1      -8.424  -5.238   3.496  0.00  0.00    +0.277 C 
ENDBRANCH  25  32
ENDBRANCH  21  22
ENDBRANCH   2  20
TORSDOF 4
