REMARK  Name = ZINC34967539
REMARK  10 active torsions:
REMARK  status: ('A' for Active; 'I' for Inactive)
REMARK    1  A    between atoms: C_1  and  C_2
REMARK    2  A    between atoms: C_4  and  C_13
REMARK    3  A    between atoms: C_20  and  C_38
REMARK    4  A    between atoms: C_21  and  C_34
REMARK    5  A    between atoms: C_22  and  C_24
REMARK    6  A    between atoms: C_27  and  O_30
REMARK    7  A    between atoms: O_30  and  C_31
REMARK    8  A    between atoms: C_31  and  C_33
REMARK    9  A    between atoms: C_34  and  O_36
REMARK   10  A    between atoms: O_36  and  C_37
REMARK                            x       y       z     vdW  Elec       q    Type
REMARK                         _______ _______ _______ _____ _____    ______ ____
ROOT
ATOM      1  C   UNL     1      -2.560   0.197  -0.746  0.00  0.00    +0.027 C 
ATOM      2  C   UNL     1      -2.081   1.327  -1.367  0.00  0.00    +0.080 A 
ATOM      3  C   UNL     1      -2.817   2.442  -1.971  0.00  0.00    +0.268 A 
ATOM      4  O   UNL     1      -4.035   2.460  -1.972  0.00  0.00    -0.266 OA
ATOM      5  N   UNL     1      -2.113   3.439  -2.521  0.00  0.00    -0.275 N 
ATOM      6  C   UNL     1      -0.739   3.369  -2.492  0.00  0.00    +0.178 A 
ATOM      7  N   UNL     1       0.052   4.282  -2.998  0.00  0.00    -0.228 NA
ATOM      8  C   UNL     1      -0.359   5.390  -3.601  0.00  0.00    +0.053 C 
ATOM      9  C   UNL     1      -1.694   5.654  -3.736  0.00  0.00    +0.085 C 
ATOM     10  C   UNL     1      -2.677   4.650  -3.180  0.00  0.00    +0.162 C 
ATOM     11  C   UNL     1       0.654   6.366  -4.142  0.00  0.00    +0.066 C 
ATOM     12  S   UNL     1      -0.393   1.838  -1.649  0.00  0.00    -0.046 S 
ENDROOT
BRANCH   1  15
ATOM     13  C   UNL     1      -2.104  -2.284  -1.971  0.00  0.00    +0.057 C 
ATOM     14  C   UNL     1      -1.652  -2.149  -0.516  0.00  0.00    +0.201 C 
ATOM     15  C   UNL     1      -1.668  -0.695  -0.122  0.00  0.00    -0.006 C 
ATOM     16  C   UNL     1      -0.814  -0.248   0.840  0.00  0.00    +0.018 C 
ATOM     17  C   UNL     1       0.110  -1.220   1.442  0.00  0.00    +0.017 A 
ATOM     18  C   UNL     1       0.774  -0.949   2.638  0.00  0.00    +0.011 A 
ATOM     19  C   UNL     1       1.632  -1.890   3.168  0.00  0.00    +0.001 A 
ATOM     20  C   UNL     1       1.835  -3.097   2.518  0.00  0.00    +0.004 A 
ATOM     21  C   UNL     1       1.181  -3.377   1.331  0.00  0.00    +0.046 A 
ATOM     22  C   UNL     1       0.317  -2.446   0.784  0.00  0.00    +0.128 A 
ATOM     23  O   UNL     1      -0.336  -2.685  -0.379  0.00  0.00    -0.484 OA
ENDBRANCH   1  15
BRANCH  10  24
ATOM     24  C   UNL     1      -3.547   5.361  -2.175  0.00  0.00    -0.020 A 
ATOM     25  C   UNL     1      -3.142   5.458  -0.857  0.00  0.00    +0.009 A 
ATOM     26  C   UNL     1      -3.938   6.109   0.066  0.00  0.00    +0.047 A 
ATOM     27  C   UNL     1      -5.145   6.665  -0.332  0.00  0.00    +0.132 A 
ATOM     28  C   UNL     1      -5.549   6.567  -1.655  0.00  0.00    +0.047 A 
ATOM     29  C   UNL     1      -4.747   5.920  -2.575  0.00  0.00    +0.009 A 
BRANCH  27  30
ATOM     30  O   UNL     1      -5.930   7.306   0.574  0.00  0.00    -0.426 OA
BRANCH  30  31
ATOM     31  C   UNL     1      -5.494   8.473   1.073  0.00  0.00    +0.309 C 
ATOM     32  O   UNL     1      -4.484   8.976   0.640  0.00  0.00    -0.251 OA
ATOM     33  C   UNL     1      -6.264   9.158   2.173  0.00  0.00    +0.136 C 
ENDBRANCH  30  31
ENDBRANCH  27  30
ENDBRANCH  10  24
BRANCH   9  34
ATOM     34  C   UNL     1      -2.138   6.824  -4.374  0.00  0.00    +0.339 C 
ATOM     35  O   UNL     1      -1.330   7.621  -4.816  0.00  0.00    -0.245 OA
BRANCH  34  36
ATOM     36  O   UNL     1      -3.462   7.065  -4.497  0.00  0.00    -0.465 OA
ATOM     37  C   UNL     1      -3.842   8.274  -5.156  0.00  0.00    +0.280 C 
ENDBRANCH  34  36
ENDBRANCH   9  34
TORSDOF 6
