REMARK  Name = ZINC55743225
REMARK  6 active torsions:
REMARK  status: ('A' for Active; 'I' for Inactive)
REMARK    1  A    between atoms: C_1  and  C_2
REMARK    2  A    between atoms: C_2  and  C_4
REMARK    3  A    between atoms: C_2  and  N_12
REMARK    4  A    between atoms: C_13  and  C_15
REMARK    5  A    between atoms: C_18  and  N_24
REMARK    6  A    between atoms: C_19  and  N_21
REMARK                            x       y       z     vdW  Elec       q    Type
REMARK                         _______ _______ _______ _____ _____    ______ ____
ROOT
ATOM      1  N   UNL     1       0.693  -0.360   1.274  0.00  0.00    -0.305 N 
ATOM      2  C   UNL     1       1.991  -0.709   1.170  0.00  0.00    +0.245 C 
ATOM      3  O   UNL     1       2.547  -0.666   0.089  0.00  0.00    -0.270 OA
ATOM      4  H   UNL     1       0.250  -0.394   2.137  0.00  0.00    +0.150 HD
ENDROOT
BRANCH   2   5
ATOM      5  C   UNL     1       2.737  -1.141   2.367  0.00  0.00    +0.039 A 
ATOM      6  C   UNL     1       2.098  -1.195   3.609  0.00  0.00    +0.015 A 
ATOM      7  C   UNL     1       2.796  -1.599   4.724  0.00  0.00    +0.026 A 
ATOM      8  C   UNL     1       4.138  -1.954   4.615  0.00  0.00    +0.055 A 
ATOM      9  C   UNL     1       4.778  -1.900   3.380  0.00  0.00    +0.147 A 
ATOM     10  C   UNL     1       4.083  -1.503   2.260  0.00  0.00    +0.047 A 
BRANCH   9  11
ATOM     11  N   UNL     1       6.205  -2.277   3.269  0.00  0.00    +0.058 N 
ATOM     12  O   UNL     1       6.933  -1.671   2.518  0.00  0.00    -0.126 OA
ATOM     13  O   UNL     1       6.642  -3.190   3.930  0.00  0.00    -0.126 OA
ENDBRANCH   9  11
BRANCH   8  14
ATOM     14  N   UNL     1       4.842  -2.361   5.744  0.00  0.00    -0.356 N 
ATOM     15  H   UNL     1       4.373  -2.508   6.580  0.00  0.00    +0.142 HD
ATOM     16  H   UNL     1       5.801  -2.499   5.694  0.00  0.00    +0.142 HD
ENDBRANCH   8  14
ENDBRANCH   2   5
BRANCH   1  18
ATOM     17  C   UNL     1       0.183   1.564  -0.147  0.00  0.00    +0.033 C 
ATOM     18  C   UNL     1      -0.048   0.069   0.086  0.00  0.00    +0.100 C 
BRANCH  18  19
ATOM     19  C   UNL     1      -1.519  -0.185   0.292  0.00  0.00    -0.026 A 
ATOM     20  C   UNL     1      -2.098   0.066   1.522  0.00  0.00    +0.008 A 
ATOM     21  C   UNL     1      -3.447  -0.167   1.712  0.00  0.00    +0.040 A 
ATOM     22  C   UNL     1      -4.219  -0.652   0.670  0.00  0.00    +0.142 A 
ATOM     23  C   UNL     1      -3.638  -0.904  -0.562  0.00  0.00    +0.076 A 
ATOM     24  C   UNL     1      -2.289  -0.665  -0.751  0.00  0.00    +0.028 A 
ATOM     25 CL   UNL     1      -4.604  -1.513  -1.870  0.00  0.00    -0.081 Cl
ATOM     26  F   UNL     1      -5.538  -0.880   0.856  0.00  0.00    -0.204 F 
ENDBRANCH  18  19
ENDBRANCH   1  18
TORSDOF 5
