REMARK  Name = ZINC39603028
REMARK  7 active torsions:
REMARK  status: ('A' for Active; 'I' for Inactive)
REMARK    1  A    between atoms: C_1  and  C_2
REMARK    2  A    between atoms: C_2  and  N_3
REMARK    3  A    between atoms: C_4  and  C_10
REMARK    4  A    between atoms: C_6  and  C_8
REMARK    5  A    between atoms: C_14  and  C_23
REMARK    6  A    between atoms: N_25  and  C_26
REMARK    7  A    between atoms: C_26  and  C_27
REMARK                            x       y       z     vdW  Elec       q    Type
REMARK                         _______ _______ _______ _____ _____    ______ ____
ROOT
ATOM      1  C   UNL     1       3.243  -0.405   0.206  0.00  0.00    +0.266 C 
ATOM      2  O   UNL     1       4.392  -0.720   0.455  0.00  0.00    -0.268 OA
ATOM      3  N   UNL     1       2.941   0.159  -0.981  0.00  0.00    -0.295 N 
ATOM      4  C   UNL     1       1.600   0.512  -1.503  0.00  0.00    +0.121 C 
ATOM      5  C   UNL     1       1.805   1.864  -2.223  0.00  0.00    +0.100 C 
ATOM      6  C   UNL     1       3.300   1.892  -2.586  0.00  0.00    -0.004 C 
ATOM      7  C   UNL     1       3.876   0.571  -2.055  0.00  0.00    +0.115 C 
ATOM      8  C   UNL     1       3.986   3.072  -1.905  0.00  0.00    -0.010 C 
ATOM      9  C   UNL     1       5.458   3.112  -2.327  0.00  0.00    -0.082 C 
ATOM     10  N   UNL     1       5.548   3.243  -3.786  0.00  0.00    +0.379 N 
ATOM     11  C   UNL     1       4.967   2.060  -4.432  0.00  0.00    -0.082 C 
ATOM     12  C   UNL     1       3.475   1.975  -4.099  0.00  0.00    -0.010 C 
ATOM     13  H   UNL     1       5.044   4.066  -4.080  0.00  0.00    -0.086 HD
ATOM     14  H   UNL     1       6.516   3.331  -4.056  0.00  0.00    -0.086 HD
ENDROOT
BRANCH   1  16
ATOM     15  N   UNL     1       1.660   0.273   2.071  0.00  0.00    -0.258 N 
ATOM     16  C   UNL     1       2.185  -0.640   1.199  0.00  0.00    +0.138 A 
ATOM     17  C   UNL     1       1.519  -1.831   1.440  0.00  0.00    +0.071 A 
ATOM     18  C   UNL     1       0.614  -1.547   2.467  0.00  0.00    +0.075 A 
ATOM     19  N   UNL     1       0.757  -0.288   2.792  0.00  0.00    -0.175 NA
ATOM     20  C   UNL     1      -0.350  -2.521   3.093  0.00  0.00    +0.069 C 
ATOM     21 BR   UNL     1       1.780  -3.487   0.565  0.00  0.00    -0.046 Br
BRANCH  15  23
ATOM     22  C   UNL     1       3.284   1.789   3.093  0.00  0.00    +0.029 C 
ATOM     23  C   UNL     1       2.069   1.677   2.171  0.00  0.00    +0.141 C 
ENDBRANCH  15  23
ENDBRANCH   1  16
BRANCH   5  24
ATOM     24  C   UNL     1       0.959   1.928  -3.469  0.00  0.00    +0.218 C 
ATOM     25  O   UNL     1       0.638   0.906  -4.037  0.00  0.00    -0.275 OA
ATOM     26  N   UNL     1       0.559   3.122  -3.950  0.00  0.00    -0.311 N 
ATOM     27  H   UNL     1       0.877   3.942  -3.540  0.00  0.00    +0.149 HD
BRANCH  26  28
ATOM     28  C   UNL     1      -0.356   3.181  -5.093  0.00  0.00    +0.139 C 
BRANCH  28  29
ATOM     29  C   UNL     1      -0.644   4.621  -5.431  0.00  0.00    -0.028 A 
ATOM     30  C   UNL     1      -1.708   5.271  -4.834  0.00  0.00    +0.005 A 
ATOM     31  C   UNL     1      -1.974   6.592  -5.143  0.00  0.00    +0.003 A 
ATOM     32  C   UNL     1      -1.177   7.264  -6.050  0.00  0.00    +0.038 A 
ATOM     33  C   UNL     1      -0.111   6.614  -6.649  0.00  0.00    +0.124 A 
ATOM     34  C   UNL     1       0.158   5.293  -6.333  0.00  0.00    +0.043 A 
ATOM     35  F   UNL     1       0.669   7.270  -7.536  0.00  0.00    -0.205 F 
ENDBRANCH  28  29
ENDBRANCH  26  28
ENDBRANCH   5  24
TORSDOF 5
