REMARK  Name = ZINC59310761
REMARK  9 active torsions:
REMARK  status: ('A' for Active; 'I' for Inactive)
REMARK    1  A    between atoms: C_1  and  C_2
REMARK    2  A    between atoms: C_2  and  C_24
REMARK    3  A    between atoms: N_3  and  N_4
REMARK    4  A    between atoms: C_7  and  S_10
REMARK    5  A    between atoms: S_10  and  C_11
REMARK    6  A    between atoms: C_11  and  C_12
REMARK    7  A    between atoms: C_18  and  S_20
REMARK    8  A    between atoms: S_20  and  C_21
REMARK    9  A    between atoms: C_21  and  C_22
REMARK                            x       y       z     vdW  Elec       q    Type
REMARK                         _______ _______ _______ _____ _____    ______ ____
ROOT
ATOM      1  N   UNL     1       0.023   0.044   2.324  0.00  0.00    -0.205 N 
ATOM      2  C   UNL     1       0.044  -0.654   3.518  0.00  0.00    +0.232 A 
ATOM      3  N   UNL     1       0.069  -1.964   3.649  0.00  0.00    -0.186 NA
ATOM      4  C   UNL     1       0.084  -2.286   4.947  0.00  0.00    +0.211 A 
ATOM      5  N   UNL     1       0.068  -1.185   5.660  0.00  0.00    -0.144 NA
ATOM      6  N   UNL     1       0.049  -0.112   4.755  0.00  0.00    -0.245 N 
ATOM      7  H   UNL     1       0.010   1.014   2.329  0.00  0.00    +0.177 HD
ATOM      8  H   UNL     1       0.038   0.833   4.974  0.00  0.00    +0.192 HD
ENDROOT
BRANCH   1  11
ATOM      9  C   UNL     1      -0.018   1.503   0.010  0.00  0.00    +0.063 C 
ATOM     10  C   UNL     1       0.002  -0.004   0.002  0.00  0.00    +0.040 C 
ATOM     11  N   UNL     1       0.021  -0.650   1.107  0.00  0.00    -0.189 NA
BRANCH  10  12
ATOM     12  C   UNL     1      -0.000  -0.750  -1.307  0.00  0.00    +0.011 C 
ATOM     13  C   UNL     1       1.236  -0.360  -2.119  0.00  0.00    +0.016 C 
ATOM     14  C   UNL     1       1.234  -1.117  -3.448  0.00  0.00    -0.010 C 
ATOM     15  C   UNL     1       1.257  -2.623  -3.177  0.00  0.00    +0.007 C 
ATOM     16  C   UNL     1       0.021  -3.014  -2.365  0.00  0.00    -0.010 C 
ATOM     17  C   UNL     1       0.023  -2.256  -1.036  0.00  0.00    +0.016 C 
ATOM     18  C   UNL     1      -1.241  -2.657  -3.153  0.00  0.00    +0.007 C 
ATOM     19  C   UNL     1      -1.264  -1.151  -3.425  0.00  0.00    -0.010 C 
ATOM     20  C   UNL     1      -0.028  -0.760  -4.237  0.00  0.00    +0.007 C 
ATOM     21  C   UNL     1      -1.262  -0.394  -2.095  0.00  0.00    +0.016 C 
ENDBRANCH  10  12
ENDBRANCH   1  11
BRANCH   4  22
ATOM     22  S   UNL     1       0.117  -3.925   5.594  0.00  0.00    -0.075 S 
BRANCH  22  23
ATOM     23  C   UNL     1       0.126  -3.686   7.392  0.00  0.00    +0.173 C 
BRANCH  23  24
ATOM     24  C   UNL     1       0.154  -5.028   8.077  0.00  0.00    +0.229 C 
ATOM     25  O   UNL     1       0.168  -6.046   7.417  0.00  0.00    -0.275 OA
ATOM     26  N   UNL     1       0.165  -5.098   9.423  0.00  0.00    -0.263 N 
ATOM     27  C   UNL     1       0.191  -6.338  10.056  0.00  0.00    +0.189 A 
ATOM     28  N   UNL     1       0.215  -7.556   9.540  0.00  0.00    -0.125 NA
ATOM     29  N   UNL     1       0.238  -8.589  10.263  0.00  0.00    -0.133 NA
ATOM     30  C   UNL     1       0.239  -8.517  11.586  0.00  0.00    +0.160 A 
ATOM     31  S   UNL     1       0.210  -6.740  11.801  0.00  0.00    -0.024 S 
ATOM     32  H   UNL     1       0.154  -4.284   9.951  0.00  0.00    +0.157 HD
BRANCH  30  33
ATOM     33  S   UNL     1       0.268  -9.803  12.790  0.00  0.00    -0.093 S 
BRANCH  33  34
ATOM     34  C   UNL     1       0.297 -11.326  11.805  0.00  0.00    +0.103 C 
BRANCH  34  35
ATOM     35  C   UNL     1       0.323 -12.519  12.726  0.00  0.00    -0.023 C 
ATOM     36  C   UNL     1      -0.689 -13.351  12.748  0.00  0.00    +0.005 C 
ENDBRANCH  34  35
ENDBRANCH  33  34
ENDBRANCH  30  33
ENDBRANCH  23  24
ENDBRANCH  22  23
ENDBRANCH   4  22
TORSDOF 8
