REMARK  Name = ZINC41585525
REMARK  7 active torsions:
REMARK  status: ('A' for Active; 'I' for Inactive)
REMARK    1  A    between atoms: C_1  and  C_2
REMARK    2  A    between atoms: C_5  and  C_8
REMARK    3  A    between atoms: C_13  and  C_34
REMARK    4  A    between atoms: C_15  and  O_33
REMARK    5  A    between atoms: C_16  and  C_19
REMARK    6  A    between atoms: C_19  and  N_20
REMARK    7  A    between atoms: N_23  and  C_26
REMARK                            x       y       z     vdW  Elec       q    Type
REMARK                         _______ _______ _______ _____ _____    ______ ____
ROOT
ATOM      1  C   UNL     1       0.071  -4.259  -0.024  0.00  0.00    +0.058 C 
ATOM      2  C   UNL     1       0.176  -4.934   1.148  0.00  0.00    +0.176 C 
ATOM      3  C   UNL     1       0.304  -6.392   1.303  0.00  0.00    +0.232 C 
ATOM      4  O   UNL     1       0.337  -7.236   0.424  0.00  0.00    -0.283 OA
ATOM      5  C   UNL     1       0.383  -6.603   2.760  0.00  0.00    +0.071 A 
ATOM      6  C   UNL     1       0.510  -7.743   3.553  0.00  0.00    -0.033 A 
ATOM      7  C   UNL     1       0.557  -7.625   4.913  0.00  0.00    +0.050 A 
ATOM      8  C   UNL     1       0.478  -6.368   5.509  0.00  0.00    +0.122 A 
ATOM      9  C   UNL     1       0.351  -5.228   4.733  0.00  0.00    +0.020 A 
ATOM     10  C   UNL     1       0.302  -5.331   3.349  0.00  0.00    +0.145 A 
ATOM     11  O   UNL     1       0.188  -4.389   2.387  0.00  0.00    -0.451 OA
ATOM     12  C   UNL     1       0.596  -9.104   2.911  0.00  0.00    +0.045 C 
ENDROOT
BRANCH   1  17
ATOM     13  C   UNL     1       0.072   1.489  -0.037  0.00  0.00    +0.044 C 
ATOM     14  C   UNL     1       0.072  -0.018  -0.034  0.00  0.00    -0.050 A 
ATOM     15  C   UNL     1       0.052  -0.704   1.169  0.00  0.00    +0.004 A 
ATOM     16  C   UNL     1       0.052  -2.082   1.181  0.00  0.00    +0.008 A 
ATOM     17  C   UNL     1       0.071  -2.789  -0.027  0.00  0.00    -0.021 A 
ATOM     18  C   UNL     1       0.091  -2.088  -1.239  0.00  0.00    +0.008 A 
ATOM     19  C   UNL     1       0.086  -0.710  -1.233  0.00  0.00    +0.004 A 
ENDBRANCH   1  17
BRANCH   8  20
ATOM     20  O   UNL     1       0.525  -6.261   6.861  0.00  0.00    -0.506 OA
ATOM     21  H   UNL     1       1.419  -6.157   7.217  0.00  0.00    +0.292 HD
ENDBRANCH   8  20
BRANCH   9  22
ATOM     22  C   UNL     1       0.266  -3.875   5.392  0.00  0.00    -0.035 C 
BRANCH  22  23
ATOM     23  N   UNL     1       1.617  -3.320   5.548  0.00  0.00    +0.385 N 
ATOM     24  C   UNL     1       2.387  -4.165   6.471  0.00  0.00    -0.059 C 
ATOM     25  C   UNL     1       3.829  -3.654   6.546  0.00  0.00    +0.086 C 
ATOM     26  N   UNL     1       3.801  -2.228   6.908  0.00  0.00    -0.333 N 
ATOM     27  C   UNL     1       2.926  -1.334   6.135  0.00  0.00    +0.086 C 
ATOM     28  C   UNL     1       1.526  -1.954   6.079  0.00  0.00    -0.059 C 
ATOM     29  H   UNL     1       2.078  -3.301   4.651  0.00  0.00    -0.081 HD
BRANCH  26  30
ATOM     30  C   UNL     1       4.585  -1.737   7.957  0.00  0.00    +0.030 A 
ATOM     31  C   UNL     1       5.497  -2.570   8.592  0.00  0.00    +0.026 A 
ATOM     32  C   UNL     1       6.271  -2.082   9.627  0.00  0.00    +0.040 A 
ATOM     33  C   UNL     1       6.136  -0.765  10.033  0.00  0.00    +0.124 A 
ATOM     34  C   UNL     1       5.227   0.067   9.401  0.00  0.00    +0.040 A 
ATOM     35  C   UNL     1       4.455  -0.415   8.361  0.00  0.00    +0.026 A 
ATOM     36  F   UNL     1       6.893  -0.290  11.046  0.00  0.00    -0.205 F 
ENDBRANCH  26  30
ENDBRANCH  22  23
ENDBRANCH   9  22
TORSDOF 5
