REMARK  Name = ZINC09157375
REMARK  7 active torsions:
REMARK  status: ('A' for Active; 'I' for Inactive)
REMARK    1  A    between atoms: C_1  and  N_64
REMARK    2  A    between atoms: C_2  and  C_3
REMARK    3  A    between atoms: C_2  and  N_64
REMARK    4  A    between atoms: C_8  and  N_9
REMARK    5  A    between atoms: C_15  and  C_16
REMARK    6  A    between atoms: C_15  and  N_64
REMARK    7  A    between atoms: N_18  and  N_19
REMARK                            x       y       z     vdW  Elec       q    Type
REMARK                         _______ _______ _______ _____ _____    ______ ____
ROOT
ATOM      1  C   UNL     1      -3.010   3.526   1.190  0.00  0.00    +0.020 C 
ENDROOT
BRANCH   1   2
ATOM      2  C   UNL     1      -1.647   2.887   1.111  0.00  0.00    +0.213 C 
ATOM      3  O   UNL     1      -0.846   3.055   2.005  0.00  0.00    -0.276 OA
ATOM      4  N   UNL     1      -1.319   2.129   0.045  0.00  0.00    -0.225 N 
ATOM      5  H   UNL     1      -1.960   1.995  -0.670  0.00  0.00    +0.173 HD
BRANCH   4   6
ATOM      6  N   UNL     1      -0.053   1.535  -0.028  0.00  0.00    -0.137 N 
ATOM      7  C   UNL     1       0.183   0.223   0.181  0.00  0.00    +0.263 C 
ATOM      8  O   UNL     1      -0.629  -0.632   0.463  0.00  0.00    -0.271 OA
ATOM      9  C   UNL     1       1.671   0.045  -0.009  0.00  0.00    +0.114 C 
ATOM     10  C   UNL     1       1.948  -0.914  -1.161  0.00  0.00    +0.035 C 
ATOM     11  C   UNL     1       3.460  -1.059  -1.356  0.00  0.00    +0.003 C 
ATOM     12  C   UNL     1       4.090  -1.590  -0.067  0.00  0.00    +0.000 C 
ATOM     13  C   UNL     1       3.825  -0.605   1.074  0.00  0.00    +0.003 C 
ATOM     14  C   UNL     1       2.315  -0.458   1.279  0.00  0.00    +0.035 C 
ATOM     15  N   UNL     1       2.154   1.393  -0.333  0.00  0.00    -0.284 N 
ATOM     16  C   UNL     1       1.073   2.197  -0.321  0.00  0.00    +0.326 C 
ATOM     17  O   UNL     1       1.115   3.390  -0.551  0.00  0.00    -0.251 OA
ATOM     18  H   UNL     1       3.069   1.654  -0.520  0.00  0.00    +0.151 HD
ENDBRANCH   4   6
ENDBRANCH   1   2
BRANCH   1  20
ATOM     19  C   UNL     1      -2.196   5.438   2.434  0.00  0.00    -0.095 C 
ATOM     20  N   UNL     1      -3.111   4.277   2.459  0.00  0.00    +0.386 N 
ATOM     21  H   UNL     1      -2.845   3.659   3.234  0.00  0.00    -0.081 HD
BRANCH  20  22
ATOM     22  C   UNL     1      -4.501   4.735   2.666  0.00  0.00    -0.041 C 
BRANCH  22  23
ATOM     23  C   UNL     1      -4.660   5.166   4.101  0.00  0.00    -0.043 A 
ATOM     24  C   UNL     1      -4.710   6.509   4.418  0.00  0.00    +0.003 A 
ATOM     25  C   UNL     1      -4.861   6.905   5.734  0.00  0.00    +0.000 A 
ATOM     26  C   UNL     1      -4.952   5.959   6.738  0.00  0.00    +0.002 A 
ATOM     27  C   UNL     1      -4.899   4.614   6.429  0.00  0.00    +0.023 A 
ATOM     28  C   UNL     1      -4.752   4.213   5.107  0.00  0.00    +0.031 A 
BRANCH  28  29
ATOM     29  N   UNL     1      -4.697   2.853   4.790  0.00  0.00    -0.330 N 
ATOM     30  C   UNL     1      -5.940   2.172   5.175  0.00  0.00    +0.105 C 
ATOM     31  C   UNL     1      -5.903   0.724   4.684  0.00  0.00    +0.019 C 
ATOM     32  C   UNL     1      -4.697   0.011   5.302  0.00  0.00    +0.003 C 
ATOM     33  C   UNL     1      -3.420   0.768   4.927  0.00  0.00    +0.019 C 
ATOM     34  C   UNL     1      -3.529   2.216   5.411  0.00  0.00    +0.105 C 
ENDBRANCH  28  29
ENDBRANCH  22  23
ENDBRANCH  20  22
ENDBRANCH   1  20
TORSDOF 6
