REMARK  Name = ZINC35231841
REMARK  9 active torsions:
REMARK  status: ('A' for Active; 'I' for Inactive)
REMARK    1  A    between atoms: C_1  and  C_2
REMARK    2  A    between atoms: C_2  and  C_3
REMARK    3  A    between atoms: C_3  and  C_4
REMARK    4  A    between atoms: C_4  and  N_5
REMARK    5  A    between atoms: N_5  and  C_6
REMARK    6  A    between atoms: C_6  and  C_7
REMARK    7  A    between atoms: C_21  and  C_23
REMARK    8  A    between atoms: N_32  and  C_33
REMARK    9  A    between atoms: C_37  and  C_39
REMARK                            x       y       z     vdW  Elec       q    Type
REMARK                         _______ _______ _______ _____ _____    ______ ____
ROOT
ATOM      1  C   UNL     1       3.402  -3.720  -2.097  0.00  0.00    +0.238 C 
ATOM      2  O   UNL     1       2.614  -4.596  -1.808  0.00  0.00    -0.273 OA
ATOM      3  N   UNL     1       4.723  -3.985  -2.127  0.00  0.00    -0.255 N 
ATOM      4  C   UNL     1       5.178  -5.298  -1.941  0.00  0.00    +0.061 A 
ATOM      5  C   UNL     1       4.391  -6.376  -2.317  0.00  0.00    +0.025 A 
ATOM      6  C   UNL     1       4.847  -7.665  -2.118  0.00  0.00    +0.002 A 
ATOM      7  C   UNL     1       6.086  -7.889  -1.544  0.00  0.00    +0.002 A 
ATOM      8  C   UNL     1       6.881  -6.821  -1.169  0.00  0.00    +0.028 A 
ATOM      9  C   UNL     1       6.434  -5.530  -1.371  0.00  0.00    +0.068 A 
ATOM     10  N   UNL     1       7.214  -4.415  -1.032  0.00  0.00    -0.316 N 
ATOM     11  C   UNL     1       8.336  -4.330  -0.278  0.00  0.00    +0.092 A 
ATOM     12  C   UNL     1       8.719  -3.034  -0.236  0.00  0.00    +0.020 A 
ATOM     13  C   UNL     1       7.792  -2.291  -0.999  0.00  0.00    +0.025 A 
ATOM     14  C   UNL     1       6.887  -3.152  -1.476  0.00  0.00    +0.049 A 
ATOM     15  C   UNL     1       5.686  -2.897  -2.361  0.00  0.00    +0.159 C 
ENDROOT
BRANCH  15  16
ATOM     16  C   UNL     1       6.105  -2.888  -3.809  0.00  0.00    -0.021 A 
ATOM     17  C   UNL     1       6.326  -4.081  -4.471  0.00  0.00    +0.008 A 
ATOM     18  C   UNL     1       6.710  -4.075  -5.798  0.00  0.00    +0.038 A 
ATOM     19  C   UNL     1       6.873  -2.873  -6.465  0.00  0.00    +0.123 A 
ATOM     20  C   UNL     1       6.652  -1.678  -5.801  0.00  0.00    +0.038 A 
ATOM     21  C   UNL     1       6.263  -1.687  -4.475  0.00  0.00    +0.008 A 
ATOM     22  F   UNL     1       7.249  -2.865  -7.763  0.00  0.00    -0.205 F 
ENDBRANCH  15  16
BRANCH   1  23
ATOM     23  C   UNL     1       2.904  -2.336  -2.422  0.00  0.00    +0.205 C 
BRANCH  23  24
ATOM     24  N   UNL     1       1.439  -2.336  -2.442  0.00  0.00    -0.277 N 
ATOM     25  C   UNL     1       0.781  -2.597  -3.589  0.00  0.00    +0.307 C 
ATOM     26  O   UNL     1       1.403  -2.833  -4.606  0.00  0.00    -0.252 OA
ATOM     27  N   UNL     1      -0.567  -2.598  -3.607  0.00  0.00    -0.269 N 
ATOM     28  H   UNL     1      -1.063  -2.336  -2.816  0.00  0.00    +0.156 HD
BRANCH  27  29
ATOM     29  C   UNL     1      -1.251  -2.975  -4.769  0.00  0.00    +0.036 A 
ATOM     30  C   UNL     1      -2.463  -2.374  -5.088  0.00  0.00    +0.023 A 
ATOM     31  C   UNL     1      -3.142  -2.744  -6.233  0.00  0.00    +0.003 A 
ATOM     32  C   UNL     1      -2.622  -3.712  -7.068  0.00  0.00    +0.019 A 
ATOM     33  C   UNL     1      -1.405  -4.321  -6.757  0.00  0.00    +0.054 A 
ATOM     34  C   UNL     1      -0.716  -3.944  -5.604  0.00  0.00    +0.042 A 
BRANCH  33  35
ATOM     35  C   UNL     1      -0.863  -5.326  -7.622  0.00  0.00    +0.099 C 
ATOM     36  N   UNL     1      -0.432  -6.122  -8.307  0.00  0.00    -0.191 NA
ENDBRANCH  33  35
ENDBRANCH  27  29
BRANCH  24  37
ATOM     37  C   UNL     1       0.689  -2.052  -1.216  0.00  0.00    +0.110 C 
BRANCH  37  38
ATOM     38  C   UNL     1       0.432  -0.547  -1.112  0.00  0.00    +0.019 C 
BRANCH  38  40
ATOM     39  C   UNL     1      -0.607   1.254   0.273  0.00  0.00    +0.004 C 
ATOM     40  C   UNL     1      -0.351  -0.251   0.169  0.00  0.00    -0.002 C 
ENDBRANCH  38  40
ENDBRANCH  37  38
ENDBRANCH  24  37
ENDBRANCH  23  24
ENDBRANCH   1  23
TORSDOF 8
