REMARK  Name = ZINC22873445
REMARK  12 active torsions:
REMARK  status: ('A' for Active; 'I' for Inactive)
REMARK    1  A    between atoms: C_1  and  C_2
REMARK    2  A    between atoms: C_2  and  N_3
REMARK    3  A    between atoms: N_3  and  C_4
REMARK    4  A    between atoms: N_3  and  S_6
REMARK    5  A    between atoms: C_4  and  C_5
REMARK    6  A    between atoms: S_6  and  C_9
REMARK    7  A    between atoms: C_12  and  O_34
REMARK    8  A    between atoms: C_13  and  N_15
REMARK    9  A    between atoms: C_16  and  C_18
REMARK   10  A    between atoms: C_18  and  N_19
REMARK   11  A    between atoms: C_22  and  C_26
REMARK   12  A    between atoms: C_22  and  C_27
REMARK                            x       y       z     vdW  Elec       q    Type
REMARK                         _______ _______ _______ _____ _____    ______ ____
ROOT
ATOM      1  N   UNL     1      -0.011   0.966   0.007  0.00  0.00    -0.281 N 
ATOM      2  C   UNL     1      -1.110   1.746   0.016  0.00  0.00    +0.235 C 
ATOM      3  O   UNL     1      -1.000   2.950  -0.079  0.00  0.00    -0.274 OA
ATOM      4  H   UNL     1      -0.113  -0.129   0.025  0.00  0.00    +0.155 HD
ENDROOT
BRANCH   1   9
ATOM      5  C   UNL     1       2.725   3.306  -0.751  0.00  0.00    +0.107 A 
ATOM      6  C   UNL     1       3.779   2.706  -0.086  0.00  0.00    +0.032 A 
ATOM      7  C   UNL     1       3.581   1.529   0.611  0.00  0.00    +0.049 A 
ATOM      8  C   UNL     1       2.324   0.946   0.645  0.00  0.00    +0.138 A 
ATOM      9  C   UNL     1       1.262   1.550  -0.024  0.00  0.00    +0.077 A 
ATOM     10  C   UNL     1       1.470   2.728  -0.726  0.00  0.00    +0.055 A 
BRANCH   5  11
ATOM     11  S   UNL     1       2.985   4.805  -1.638  0.00  0.00    +0.061 S 
ATOM     12  O   UNL     1       1.723   5.453  -1.720  0.00  0.00    -0.153 OA
ATOM     13  O   UNL     1       4.125   5.427  -1.060  0.00  0.00    -0.153 OA
BRANCH  11  14
ATOM     14  N   UNL     1       3.406   4.392  -3.186  0.00  0.00    -0.177 NA
BRANCH  14  16
ATOM     15  C   UNL     1       2.205   5.527  -4.989  0.00  0.00    +0.022 C 
ATOM     16  C   UNL     1       2.369   4.223  -4.207  0.00  0.00    +0.106 C 
ENDBRANCH  14  16
BRANCH  14  17
ATOM     17  C   UNL     1       4.815   4.196  -3.534  0.00  0.00    +0.106 C 
ATOM     18  C   UNL     1       5.164   2.710  -3.432  0.00  0.00    +0.022 C 
ENDBRANCH  14  17
ENDBRANCH  11  14
ENDBRANCH   5  11
BRANCH   8  19
ATOM     19  O   UNL     1       2.128  -0.212   1.330  0.00  0.00    -0.505 OA
ATOM     20  H   UNL     1       1.130  -0.673   1.357  0.00  0.00    +0.292 HD
ENDBRANCH   8  19
ENDBRANCH   1   9
BRANCH   2  21
ATOM     21  C   UNL     1      -2.476   1.121   0.145  0.00  0.00    +0.214 C 
BRANCH  21  22
ATOM     22  N   UNL     1      -3.497   2.172   0.129  0.00  0.00    -0.215 N 
ATOM     23  C   UNL     1      -4.091   2.634  -0.989  0.00  0.00    +0.251 C 
ATOM     24  O   UNL     1      -3.889   2.272  -2.128  0.00  0.00    -0.272 OA
ATOM     25  C   UNL     1      -5.064   3.699  -0.526  0.00  0.00    +0.135 C 
ATOM     26  N   UNL     1      -4.889   3.716   0.937  0.00  0.00    -0.281 N 
ATOM     27  C   UNL     1      -3.958   2.788   1.223  0.00  0.00    +0.310 C 
ATOM     28  O   UNL     1      -3.576   2.540   2.350  0.00  0.00    -0.252 OA
ATOM     29  C   UNL     1      -6.499   3.313  -0.891  0.00  0.00    +0.047 C 
ATOM     30  H   UNL     1      -5.478   4.411   1.554  0.00  0.00    +0.152 HD
BRANCH  25  31
ATOM     31  C   UNL     1      -4.707   5.038  -1.118  0.00  0.00    -0.015 A 
ATOM     32  C   UNL     1      -4.084   5.104  -2.350  0.00  0.00    +0.009 A 
ATOM     33  C   UNL     1      -3.760   6.331  -2.897  0.00  0.00    +0.039 A 
ATOM     34  C   UNL     1      -4.049   7.495  -2.205  0.00  0.00    +0.123 A 
ATOM     35  C   UNL     1      -4.668   7.427  -0.968  0.00  0.00    +0.039 A 
ATOM     36  C   UNL     1      -4.996   6.199  -0.426  0.00  0.00    +0.009 A 
ATOM     37  F   UNL     1      -3.728   8.695  -2.736  0.00  0.00    -0.205 F 
ENDBRANCH  25  31
ENDBRANCH  21  22
ENDBRANCH   2  21
TORSDOF 9
