REMARK  Name = ZINC24819787
REMARK  9 active torsions:
REMARK  status: ('A' for Active; 'I' for Inactive)
REMARK    1  A    between atoms: C_4  and  S_8
REMARK    2  A    between atoms: S_8  and  N_11
REMARK    3  A    between atoms: N_14  and  C_17
REMARK    4  A    between atoms: C_17  and  C_18
REMARK    5  A    between atoms: N_20  and  C_21
REMARK    6  A    between atoms: C_21  and  C_22
REMARK    7  A    between atoms: C_22  and  C_23
REMARK    8  A    between atoms: C_26  and  O_29
REMARK    9  A    between atoms: O_29  and  C_30
REMARK                            x       y       z     vdW  Elec       q    Type
REMARK                         _______ _______ _______ _____ _____    ______ ____
ROOT
ATOM      1  N   UNL     1       0.481  -8.234  -6.312  0.00  0.00    -0.180 NA
ATOM      2  C   UNL     1       1.659  -8.688  -5.557  0.00  0.00    +0.091 C 
ATOM      3  C   UNL     1       1.495  -8.258  -4.095  0.00  0.00    -0.061 C 
ATOM      4  N   UNL     1       1.241  -6.812  -4.039  0.00  0.00    +0.387 N 
ATOM      5  C   UNL     1      -0.020  -6.467  -4.710  0.00  0.00    -0.061 C 
ATOM      6  C   UNL     1       0.082  -6.824  -6.197  0.00  0.00    +0.091 C 
ATOM      7  H   UNL     1       2.056  -6.308  -4.579  0.00  0.00    -0.081 HD
ENDROOT
BRANCH   1   8
ATOM      8  S   UNL     1      -0.372  -9.284  -7.267  0.00  0.00    +0.066 S 
ATOM      9  O   UNL     1      -1.036  -8.495  -8.245  0.00  0.00    -0.153 OA
ATOM     10  O   UNL     1       0.519 -10.335  -7.613  0.00  0.00    -0.153 OA
BRANCH   8  14
ATOM     11  C   UNL     1      -3.602 -11.127  -4.679  0.00  0.00    +0.006 A 
ATOM     12  C   UNL     1      -3.857  -9.961  -5.377  0.00  0.00    +0.040 A 
ATOM     13  C   UNL     1      -2.871  -9.397  -6.168  0.00  0.00    +0.152 A 
ATOM     14  C   UNL     1      -1.628 -10.000  -6.260  0.00  0.00    +0.175 A 
ATOM     15  C   UNL     1      -1.375 -11.170  -5.565  0.00  0.00    +0.152 A 
ATOM     16  C   UNL     1      -2.362 -11.730  -4.771  0.00  0.00    +0.040 A 
ATOM     17  F   UNL     1      -0.165 -11.764  -5.658  0.00  0.00    -0.203 F 
ATOM     18  F   UNL     1      -3.121  -8.258  -6.850  0.00  0.00    -0.203 F 
ENDBRANCH   8  14
ENDBRANCH   1   8
BRANCH   4  19
ATOM     19  C   UNL     1       1.248  -6.330  -2.652  0.00  0.00    +0.019 C 
BRANCH  19  20
ATOM     20  C   UNL     1       1.231  -4.823  -2.644  0.00  0.00    +0.196 C 
ATOM     21  O   UNL     1       1.214  -4.211  -3.691  0.00  0.00    -0.278 OA
ATOM     22  N   UNL     1       1.234  -4.155  -1.474  0.00  0.00    -0.317 N 
ATOM     23  H   UNL     1       1.250  -4.710  -0.524  0.00  0.00    +0.149 HD
BRANCH  22  24
ATOM     24  C   UNL     1       1.217  -2.690  -1.466  0.00  0.00    +0.109 C 
BRANCH  24  25
ATOM     25  C   UNL     1       1.226  -2.187  -0.021  0.00  0.00    +0.054 C 
BRANCH  25  26
ATOM     26  C   UNL     1       1.208  -0.680  -0.013  0.00  0.00    -0.046 A 
ATOM     27  C   UNL     1       0.002  -0.004   0.002  0.00  0.00    +0.007 A 
ATOM     28  C   UNL     1      -0.017   1.377   0.010  0.00  0.00    +0.046 A 
ATOM     29  C   UNL     1       1.176   2.086   0.002  0.00  0.00    +0.127 A 
ATOM     30  C   UNL     1       2.385   1.405  -0.013  0.00  0.00    +0.046 A 
ATOM     31  C   UNL     1       2.398   0.024  -0.021  0.00  0.00    +0.007 A 
BRANCH  29  32
ATOM     32  O   UNL     1       1.160   3.445   0.009  0.00  0.00    -0.434 OA
BRANCH  32  33
ATOM     33  C   UNL     1       2.426   4.108   0.001  0.00  0.00    +0.541 C 
ATOM     34  F   UNL     1       3.156   3.735   1.134  0.00  0.00    -0.166 F 
ATOM     35  F   UNL     1       3.134   3.747  -1.150  0.00  0.00    -0.166 F 
ENDBRANCH  32  33
ENDBRANCH  29  32
ENDBRANCH  25  26
ENDBRANCH  24  25
ENDBRANCH  22  24
ENDBRANCH  19  20
ENDBRANCH   4  19
TORSDOF 9
