REMARK  Name = ZINC00518625
REMARK  6 active torsions:
REMARK  status: ('A' for Active; 'I' for Inactive)
REMARK    1  A    between atoms: C_1  and  C_2
REMARK    2  A    between atoms: C_2  and  C_16
REMARK    3  A    between atoms: C_4  and  C_14
REMARK    4  A    between atoms: C_6  and  C_10
REMARK    5  A    between atoms: C_10  and  C_11
REMARK    6  A    between atoms: C_11  and  C_12
REMARK                            x       y       z     vdW  Elec       q    Type
REMARK                         _______ _______ _______ _____ _____    ______ ____
ROOT
ATOM      1  C   UNL     1       1.177   3.041   2.672  0.00  0.00    +0.041 C 
ATOM      2  C   UNL     1       0.434   3.545   1.434  0.00  0.00    +0.065 C 
ATOM      3  C   UNL     1       1.251   3.220   0.180  0.00  0.00    +0.049 C 
ATOM      4  C   UNL     1       1.391   1.700   0.052  0.00  0.00    +0.110 C 
ATOM      5  C   UNL     1      -0.005   1.070   0.016  0.00  0.00    +0.029 C 
ATOM      6  C   UNL     1      -0.773   1.478   1.275  0.00  0.00    +0.165 C 
ATOM      7  O   UNL     1      -0.841   2.904   1.349  0.00  0.00    -0.374 OA
ATOM      8  C   UNL     1       0.238   5.059   1.536  0.00  0.00    +0.041 C 
ENDROOT
BRANCH   4   9
ATOM      9  C   UNL     1       2.128   1.365  -1.219  0.00  0.00    +0.359 C 
ATOM     10  O   UNL     1       2.130   2.147  -2.140  0.00  0.00    -0.246 OA
ATOM     11  O   UNL     1       2.783   0.199  -1.328  0.00  0.00    -0.246 OA
ENDBRANCH   4   9
BRANCH   5  12
ATOM     12  C   UNL     1      -0.755   1.561  -1.224  0.00  0.00    +0.018 C 
BRANCH  12  13
ATOM     13  C   UNL     1      -2.091   0.824  -1.337  0.00  0.00    +0.125 C 
BRANCH  13  14
ATOM     14  C   UNL     1      -2.830   1.308  -2.558  0.00  0.00    +0.356 C 
ATOM     15  O   UNL     1      -2.338   2.155  -3.265  0.00  0.00    -0.246 OA
ATOM     16  O   UNL     1      -4.034   0.798  -2.860  0.00  0.00    -0.246 OA
ENDBRANCH  13  14
ENDBRANCH  12  13
ENDBRANCH   5  12
TORSDOF 4
