REMARK  Name = ZINC49080340
REMARK  3 active torsions:
REMARK  status: ('A' for Active; 'I' for Inactive)
REMARK    1  A    between atoms: C_4  and  N_8
REMARK    2  A    between atoms: C_9  and  C_11
REMARK    3  A    between atoms: C_17  and  C_19
REMARK                            x       y       z     vdW  Elec       q    Type
REMARK                         _______ _______ _______ _____ _____    ______ ____
ROOT
ATOM      1  N   UNL     1       3.323  -1.166  -1.054  0.00  0.00    -0.284 N 
ATOM      2  C   UNL     1       3.687  -1.920   0.003  0.00  0.00    +0.221 C 
ATOM      3  O   UNL     1       2.918  -2.081   0.927  0.00  0.00    -0.275 OA
ATOM      4  H   UNL     1       3.903  -1.103  -1.828  0.00  0.00    +0.155 HD
ENDROOT
BRANCH   1   8
ATOM      5  C   UNL     1      -0.301   0.892  -0.994  0.00  0.00    +0.016 A 
ATOM      6  C   UNL     1       0.276   0.545  -2.202  0.00  0.00    +0.017 A 
ATOM      7  C   UNL     1       1.477  -0.137  -2.225  0.00  0.00    +0.035 A 
ATOM      8  C   UNL     1       2.106  -0.475  -1.033  0.00  0.00    +0.048 A 
ATOM      9  C   UNL     1       1.525  -0.125   0.178  0.00  0.00    +0.039 A 
ATOM     10  C   UNL     1       0.323   0.557   0.195  0.00  0.00    +0.020 A 
ATOM     11 BR   UNL     1      -0.470   1.034   1.844  0.00  0.00    -0.050 Br
ATOM     12  I   UNL     1       2.349  -0.663  -4.056  0.00  0.00    -0.042 I 
ENDBRANCH   1   8
BRANCH   2  13
ATOM     13  C   UNL     1       5.050  -2.562   0.035  0.00  0.00    +0.093 C 
ATOM     14  C   UNL     1       5.770  -2.176   1.329  0.00  0.00    +0.040 C 
ATOM     15  C   UNL     1       5.121  -2.849   2.503  0.00  0.00    -0.030 C 
ATOM     16  C   UNL     1       4.325  -3.865   2.407  0.00  0.00    -0.030 C 
ATOM     17  C   UNL     1       3.932  -4.506   1.108  0.00  0.00    +0.042 C 
ATOM     18  C   UNL     1       4.902  -4.088  -0.005  0.00  0.00    +0.118 C 
BRANCH  18  19
ATOM     19  C   UNL     1       4.356  -4.509  -1.346  0.00  0.00    +0.360 C 
ATOM     20  O   UNL     1       4.790  -5.508  -1.894  0.00  0.00    -0.246 OA
ATOM     21  O   UNL     1       3.482  -3.850  -1.882  0.00  0.00    -0.246 OA
ENDBRANCH  18  19
ENDBRANCH   2  13
TORSDOF 3
