REMARK  Name = ZINC41049332
REMARK  7 active torsions:
REMARK  status: ('A' for Active; 'I' for Inactive)
REMARK    1  A    between atoms: C_1  and  C_2
REMARK    2  A    between atoms: C_2  and  C_3
REMARK    3  A    between atoms: C_2  and  C_4
REMARK    4  A    between atoms: C_4  and  C_6
REMARK    5  A    between atoms: C_4  and  S_9
REMARK    6  A    between atoms: S_9  and  C_10
REMARK    7  A    between atoms: C_15  and  N_16
REMARK                            x       y       z     vdW  Elec       q    Type
REMARK                         _______ _______ _______ _____ _____    ______ ____
ROOT
ATOM      1  C   UNL     1      -3.104  -2.798   0.166  0.00  0.00    +0.029 A 
ATOM      2  C   UNL     1      -4.079  -1.815   0.259  0.00  0.00    +0.017 A 
ATOM      3  C   UNL     1      -5.409  -2.170   0.386  0.00  0.00    +0.016 A 
ATOM      4  C   UNL     1      -5.772  -3.505   0.421  0.00  0.00    +0.020 A 
ATOM      5  C   UNL     1      -4.807  -4.491   0.329  0.00  0.00    +0.039 A 
ATOM      6  C   UNL     1      -3.471  -4.144   0.196  0.00  0.00    +0.039 A 
ATOM      7 BR   UNL     1      -7.594  -3.982   0.597  0.00  0.00    -0.050 Br
ENDROOT
BRANCH   6   8
ATOM      8  N   UNL     1      -2.493  -5.140   0.097  0.00  0.00    -0.357 N 
ATOM      9  H   UNL     1      -1.558  -4.895   0.008  0.00  0.00    +0.142 HD
ATOM     10  H   UNL     1      -2.749  -6.075   0.118  0.00  0.00    +0.142 HD
ENDBRANCH   6   8
BRANCH   1  11
ATOM     11  S   UNL     1      -1.409  -2.348   0.003  0.00  0.00    -0.108 S 
BRANCH  11  12
ATOM     12  C   UNL     1      -1.433  -0.534   0.013  0.00  0.00    +0.167 C 
BRANCH  12  14
ATOM     13  C   UNL     1      -0.019   1.526   0.010  0.00  0.00    +0.009 C 
ATOM     14  C   UNL     1       0.002  -0.004   0.002  0.00  0.00    +0.007 C 
ATOM     15  C   UNL     1       0.742  -0.511   1.242  0.00  0.00    +0.009 C 
ENDBRANCH  12  14
BRANCH  12  16
ATOM     16  C   UNL     1      -2.162  -0.034  -1.208  0.00  0.00    +0.369 C 
ATOM     17  O   UNL     1      -2.223  -0.729  -2.208  0.00  0.00    -0.245 OA
ATOM     18  O   UNL     1      -2.691   1.064  -1.195  0.00  0.00    -0.245 OA
ENDBRANCH  12  16
ENDBRANCH  11  12
ENDBRANCH   1  11
TORSDOF 5
