REMARK  Name = ZINC21667739
REMARK  14 active torsions:
REMARK  status: ('A' for Active; 'I' for Inactive)
REMARK    1  A    between atoms: C_1  and  C_2
REMARK    2  A    between atoms: C_2  and  O_3
REMARK    3  A    between atoms: O_3  and  C_4
REMARK    4  A    between atoms: C_9  and  N_10
REMARK    5  A    between atoms: C_11  and  C_13
REMARK    6  A    between atoms: C_13  and  C_15
REMARK    7  A    between atoms: C_13  and  S_16
REMARK    8  A    between atoms: S_16  and  C_17
REMARK    9  A    between atoms: C_20  and  C_23
REMARK   10  A    between atoms: N_21  and  N_22
REMARK   11  A    between atoms: C_26  and  C_29
REMARK   12  A    between atoms: C_29  and  C_30
REMARK   13  A    between atoms: C_29  and  C_31
REMARK   14  A    between atoms: C_29  and  C_32
REMARK                            x       y       z     vdW  Elec       q    Type
REMARK                         _______ _______ _______ _____ _____    ______ ____
ROOT
ATOM      1  C   UNL     1      -1.115   2.185  -0.013  0.00  0.00    +0.209 A 
ATOM      2  N   UNL     1      -0.687   3.428  -0.011  0.00  0.00    -0.121 NA
ATOM      3  N   UNL     1       0.598   3.452  -0.032  0.00  0.00    -0.127 NA
ATOM      4  C   UNL     1       1.069   2.227  -0.044  0.00  0.00    +0.182 A 
ATOM      5  N   UNL     1      -0.013   1.378  -0.028  0.00  0.00    -0.224 N 
ENDROOT
BRANCH   4   6
ATOM      6  C   UNL     1       2.494   1.834  -0.069  0.00  0.00    +0.021 A 
ATOM      7  C   UNL     1       2.866   0.524   0.238  0.00  0.00    +0.012 A 
ATOM      8  C   UNL     1       4.197   0.163   0.207  0.00  0.00    +0.005 A 
ATOM      9  C   UNL     1       5.163   1.098  -0.117  0.00  0.00    -0.042 A 
ATOM     10  C   UNL     1       4.803   2.400  -0.417  0.00  0.00    +0.005 A 
ATOM     11  C   UNL     1       3.474   2.773  -0.395  0.00  0.00    +0.012 A 
BRANCH   9  12
ATOM     12  C   UNL     1       6.616   0.698  -0.143  0.00  0.00    -0.013 C 
ATOM     13  C   UNL     1       7.396   1.542   0.867  0.00  0.00    +0.015 C 
ATOM     14  C   UNL     1       6.744  -0.783   0.223  0.00  0.00    +0.015 C 
ATOM     15  C   UNL     1       7.183   0.927  -1.545  0.00  0.00    +0.015 C 
ENDBRANCH   9  12
ENDBRANCH   4   6
BRANCH   5  16
ATOM     16  N   UNL     1       0.009   0.012  -0.033  0.00  0.00    -0.295 N 
ATOM     17  H   UNL     1       0.971  -0.522  -0.046  0.00  0.00    +0.163 HD
ATOM     18  H   UNL     1      -0.934  -0.554  -0.024  0.00  0.00    +0.163 HD
ENDBRANCH   5  16
BRANCH   1  19
ATOM     19  S   UNL     1      -2.796   1.658   0.004  0.00  0.00    -0.072 S 
BRANCH  19  20
ATOM     20  C   UNL     1      -3.628   3.265   0.019  0.00  0.00    +0.137 C 
ATOM     21  C   UNL     1      -3.337   4.003  -1.289  0.00  0.00    +0.029 C 
BRANCH  20  23
ATOM     22  N   UNL     1      -5.897   4.068   0.593  0.00  0.00    -0.282 N 
ATOM     23  C   UNL     1      -5.115   3.060   0.159  0.00  0.00    +0.230 C 
ATOM     24  O   UNL     1      -5.607   1.987  -0.118  0.00  0.00    -0.274 OA
ATOM     25  H   UNL     1      -5.441   5.011   0.931  0.00  0.00    +0.155 HD
BRANCH  22  31
ATOM     26  C   UNL     1      -8.062   4.676   1.488  0.00  0.00    +0.142 A 
ATOM     27  C   UNL     1      -9.439   4.522   1.503  0.00  0.00    +0.047 A 
ATOM     28  C   UNL     1     -10.043   3.615   0.652  0.00  0.00    +0.004 A 
ATOM     29  C   UNL     1      -9.276   2.860  -0.216  0.00  0.00    +0.002 A 
ATOM     30  C   UNL     1      -7.903   3.012  -0.242  0.00  0.00    +0.027 A 
ATOM     31  C   UNL     1      -7.290   3.916   0.613  0.00  0.00    +0.076 A 
BRANCH  26  32
ATOM     32  O   UNL     1      -7.468   5.569   2.323  0.00  0.00    -0.490 OA
BRANCH  32  34
ATOM     33  C   UNL     1      -7.480   7.259   4.051  0.00  0.00    +0.048 C 
ATOM     34  C   UNL     1      -8.323   6.314   3.192  0.00  0.00    +0.226 C 
ENDBRANCH  32  34
ENDBRANCH  26  32
ENDBRANCH  22  31
ENDBRANCH  20  23
ENDBRANCH  19  20
ENDBRANCH   1  19
TORSDOF 9
