REMARK  Name = ZINC13543181
REMARK  12 active torsions:
REMARK  status: ('A' for Active; 'I' for Inactive)
REMARK    1  A    between atoms: C_1  and  C_2
REMARK    2  A    between atoms: C_2  and  C_4
REMARK    3  A    between atoms: C_2  and  C_10
REMARK    4  A    between atoms: C_4  and  C_5
REMARK    5  A    between atoms: C_5  and  C_6
REMARK    6  A    between atoms: C_6  and  C_7
REMARK    7  A    between atoms: C_7  and  C_8
REMARK    8  A    between atoms: C_7  and  C_9
REMARK    9  A    between atoms: C_16  and  C_37
REMARK   10  A    between atoms: C_17  and  O_36
REMARK   11  A    between atoms: C_24  and  O_35
REMARK   12  A    between atoms: C_33  and  C_34
REMARK                            x       y       z     vdW  Elec       q    Type
REMARK                         _______ _______ _______ _____ _____    ______ ____
ROOT
ATOM      1  C   UNL     1       0.605  -0.504  -1.314  0.00  0.00    +0.001 C 
ATOM      2  C   UNL     1       0.457  -2.042  -1.427  0.00  0.00    +0.005 C 
ATOM      3  C   UNL     1      -0.333  -2.311  -2.737  0.00  0.00    +0.005 C 
ATOM      4  C   UNL     1      -0.056  -1.054  -3.569  0.00  0.00    +0.003 C 
ATOM      5  C   UNL     1      -0.169   0.066  -2.498  0.00  0.00    +0.000 C 
ATOM      6  C   UNL     1       0.381   1.337  -3.117  0.00  0.00    +0.121 C 
ATOM      7  C   UNL     1      -0.551   1.715  -4.279  0.00  0.00    +0.036 C 
ATOM      8  C   UNL     1      -0.661   0.591  -5.305  0.00  0.00    +0.007 C 
ATOM      9  C   UNL     1      -1.063  -0.753  -4.664  0.00  0.00    +0.026 C 
ATOM     10  C   UNL     1      -1.022  -1.859  -5.723  0.00  0.00    +0.122 C 
ATOM     11  C   UNL     1      -2.092  -1.580  -6.781  0.00  0.00    +0.063 C 
ATOM     12  C   UNL     1      -1.873  -0.188  -7.343  0.00  0.00    -0.058 C 
ATOM     13  C   UNL     1      -1.870  -0.048  -8.669  0.00  0.00    +0.046 C 
ATOM     14  C   UNL     1      -1.678   1.277  -9.267  0.00  0.00    +0.156 C 
ATOM     15  O   UNL     1      -1.294   1.412 -10.410  0.00  0.00    -0.293 OA
ATOM     16  C   UNL     1      -1.984   2.470  -8.382  0.00  0.00    +0.080 C 
ATOM     17  C   UNL     1      -1.261   2.251  -7.054  0.00  0.00    +0.019 C 
ATOM     18  C   UNL     1      -1.698   0.979  -6.366  0.00  0.00    -0.007 C 
ATOM     19  C   UNL     1      -3.025   1.247  -5.653  0.00  0.00    +0.016 C 
ATOM     20  C   UNL     1      -1.636   0.266  -2.111  0.00  0.00    +0.014 C 
ENDROOT
BRANCH   1  22
ATOM     21  C   UNL     1       0.205   1.502   0.120  0.00  0.00    +0.008 C 
ATOM     22  C   UNL     1       0.001  -0.010   0.002  0.00  0.00    -0.010 C 
BRANCH  22  23
ATOM     23  C   UNL     1       0.690  -0.711   1.175  0.00  0.00    +0.003 C 
BRANCH  23  24
ATOM     24  C   UNL     1       0.004  -0.311   2.482  0.00  0.00    +0.001 C 
BRANCH  24  25
ATOM     25  C   UNL     1       0.693  -1.012   3.655  0.00  0.00    +0.003 C 
BRANCH  25  26
ATOM     26  C   UNL     1       0.007  -0.612   4.963  0.00  0.00    -0.017 C 
ATOM     27  C   UNL     1       0.613  -1.407   6.121  0.00  0.00    +0.007 C 
ATOM     28  C   UNL     1       0.211   0.885   5.209  0.00  0.00    +0.007 C 
ENDBRANCH  25  26
ENDBRANCH  24  25
ENDBRANCH  23  24
ENDBRANCH  22  23
ENDBRANCH   1  22
BRANCH  10  29
ATOM     29  O   UNL     1       0.267  -1.883  -6.339  0.00  0.00    -0.391 OA
ATOM     30  H   UNL     1       0.364  -2.561  -7.022  0.00  0.00    +0.210 HD
ENDBRANCH  10  29
BRANCH   6  31
ATOM     31  O   UNL     1       1.703   1.107  -3.607  0.00  0.00    -0.391 OA
ATOM     32  H   UNL     1       2.112   1.882  -4.016  0.00  0.00    +0.210 HD
ENDBRANCH   6  31
TORSDOF 7
