REMARK  Name = ZINC08832814
REMARK  7 active torsions:
REMARK  status: ('A' for Active; 'I' for Inactive)
REMARK    1  A    between atoms: C_1  and  C_2
REMARK    2  A    between atoms: C_8  and  C_10
REMARK    3  A    between atoms: C_15  and  N_16
REMARK    4  A    between atoms: N_16  and  C_17
REMARK    5  A    between atoms: C_17  and  N_19
REMARK    6  A    between atoms: C_20  and  C_22
REMARK    7  A    between atoms: C_23  and  C_24
REMARK                            x       y       z     vdW  Elec       q    Type
REMARK                         _______ _______ _______ _____ _____    ______ ____
ROOT
ATOM      1  N   UNL     1      -3.688   7.737  -0.315  0.00  0.00    -0.296 N 
ATOM      2  H   UNL     1      -2.918   8.278  -0.552  0.00  0.00    +0.154 HD
ENDROOT
BRANCH   1   8
ATOM      3  C   UNL     1      -5.119   9.524   0.483  0.00  0.00    +0.030 A 
ATOM      4  C   UNL     1      -6.385  10.105   0.563  0.00  0.00    +0.012 A 
ATOM      5  C   UNL     1      -7.463   9.492  -0.041  0.00  0.00    +0.001 A 
ATOM      6  C   UNL     1      -7.295   8.305  -0.733  0.00  0.00    +0.002 A 
ATOM      7  C   UNL     1      -6.046   7.721  -0.825  0.00  0.00    +0.024 A 
ATOM      8  C   UNL     1      -4.951   8.325  -0.223  0.00  0.00    +0.042 A 
BRANCH   3  16
ATOM      9  C   UNL     1      -3.024  14.086   3.414  0.00  0.00    +0.090 C 
ATOM     10  C   UNL     1      -2.231  12.873   3.001  0.00  0.00    +0.153 A 
ATOM     11  N   UNL     1      -0.965  12.668   3.237  0.00  0.00    -0.132 NA
ATOM     12  N   UNL     1      -0.603  11.534   2.748  0.00  0.00    -0.120 NA
ATOM     13  C   UNL     1      -1.621  10.966   2.178  0.00  0.00    +0.218 A 
ATOM     14  N   UNL     1      -2.716  11.785   2.305  0.00  0.00    -0.190 N 
ATOM     15  N   UNL     1      -3.901  11.329   1.742  0.00  0.00    -0.155 NA
ATOM     16  C   UNL     1      -3.961  10.172   1.133  0.00  0.00    +0.134 A 
ATOM     17  S   UNL     1      -2.282   9.582   1.282  0.00  0.00    -0.026 S 
ENDBRANCH   3  16
ENDBRANCH   1   8
BRANCH   1  18
ATOM     18  C   UNL     1      -3.539   6.420  -0.076  0.00  0.00    +0.141 C 
ATOM     19  S   UNL     1      -4.868   5.495   0.480  0.00  0.00    -0.018 S 
BRANCH  18  20
ATOM     20  N   UNL     1      -2.343   5.830  -0.274  0.00  0.00    -0.264 N 
ATOM     21  C   UNL     1      -2.194   4.512  -0.034  0.00  0.00    +0.242 C 
ATOM     22  O   UNL     1      -3.139   3.854   0.360  0.00  0.00    -0.270 OA
ATOM     23  H   UNL     1      -1.590   6.354  -0.589  0.00  0.00    +0.157 HD
BRANCH  21  24
ATOM     24  C   UNL     1      -0.897   3.872  -0.249  0.00  0.00    +0.068 C 
ATOM     25  C   UNL     1      -0.747   2.553  -0.009  0.00  0.00    +0.014 C 
BRANCH  25  26
ATOM     26  C   UNL     1       0.557   1.909  -0.225  0.00  0.00    -0.006 A 
ATOM     27  C   UNL     1       1.645   2.661  -0.685  0.00  0.00    +0.011 A 
ATOM     28  C   UNL     1       2.862   2.050  -0.890  0.00  0.00    +0.020 A 
ATOM     29  C   UNL     1       3.013   0.694  -0.643  0.00  0.00    +0.042 A 
ATOM     30  C   UNL     1       1.943  -0.057  -0.189  0.00  0.00    +0.040 A 
ATOM     31  C   UNL     1       0.717   0.540   0.022  0.00  0.00    +0.049 A 
ATOM     32 CL   UNL     1      -0.625  -0.403   0.592  0.00  0.00    -0.083 Cl
ATOM     33 CL   UNL     1       4.552  -0.065  -0.905  0.00  0.00    -0.083 Cl
ENDBRANCH  25  26
ENDBRANCH  21  24
ENDBRANCH  18  20
ENDBRANCH   1  18
TORSDOF 6
