REMARK  Name = ZINC13923919
REMARK  6 active torsions:
REMARK  status: ('A' for Active; 'I' for Inactive)
REMARK    1  A    between atoms: C_1  and  O_2
REMARK    2  A    between atoms: O_2  and  C_3
REMARK    3  A    between atoms: C_6  and  C_9
REMARK    4  A    between atoms: N_10  and  N_11
REMARK    5  A    between atoms: C_12  and  C_14
REMARK    6  A    between atoms: C_16  and  C_20
REMARK                            x       y       z     vdW  Elec       q    Type
REMARK                         _______ _______ _______ _____ _____    ______ ____
ROOT
ATOM      1  N   UNL     1       0.860   4.322  -0.666  0.00  0.00    -0.202 N 
ATOM      2  C   UNL     1       1.727   3.291  -0.638  0.00  0.00    +0.281 C 
ATOM      3  O   UNL     1       2.837   3.441  -0.162  0.00  0.00    -0.267 OA
ATOM      4  H   UNL     1      -0.024   4.202  -1.046  0.00  0.00    +0.178 HD
ENDROOT
BRANCH   2   5
ATOM      5  C   UNL     1       1.332   1.982  -1.184  0.00  0.00    +0.122 A 
ATOM      6  C   UNL     1       2.110   0.845  -1.222  0.00  0.00    +0.063 A 
ATOM      7  C   UNL     1       1.347  -0.170  -1.823  0.00  0.00    +0.100 A 
ATOM      8  N   UNL     1       0.165   0.325  -2.134  0.00  0.00    -0.173 NA
ATOM      9  N   UNL     1       0.126   1.670  -1.747  0.00  0.00    -0.272 N 
ATOM     10  H   UNL     1      -0.649   2.292  -1.861  0.00  0.00    +0.189 HD
BRANCH   7  11
ATOM     11  C   UNL     1       1.795  -1.559  -2.066  0.00  0.00    +0.041 A 
ATOM     12  C   UNL     1       1.111  -2.598  -2.636  0.00  0.00    +0.019 A 
ATOM     13  C   UNL     1       1.742  -3.817  -2.762  0.00  0.00    +0.028 A 
ATOM     14  C   UNL     1       3.015  -3.953  -2.308  0.00  0.00    +0.079 A 
ATOM     15  S   UNL     1       3.365  -2.318  -1.683  0.00  0.00    -0.075 S 
ATOM     16 CL   UNL     1       4.038  -5.355  -2.330  0.00  0.00    -0.076 Cl
ENDBRANCH   7  11
ENDBRANCH   2   5
BRANCH   1  18
ATOM     17  C   UNL     1       0.365   6.527  -0.065  0.00  0.00    +0.138 C 
ATOM     18  N   UNL     1       1.236   5.567  -0.147  0.00  0.00    -0.187 NA
BRANCH  17  22
ATOM     19  C   UNL     1      -3.784   5.628  -0.029  0.00  0.00    +0.120 A 
ATOM     20  C   UNL     1      -2.854   4.614   0.165  0.00  0.00    +0.046 A 
ATOM     21  C   UNL     1      -1.506   4.901   0.154  0.00  0.00    +0.013 A 
ATOM     22  C   UNL     1      -1.075   6.215  -0.053  0.00  0.00    -0.005 A 
ATOM     23  C   UNL     1      -2.014   7.232  -0.242  0.00  0.00    +0.013 A 
ATOM     24  C   UNL     1      -3.360   6.935  -0.235  0.00  0.00    +0.046 A 
BRANCH  19  26
ATOM     25  C   UNL     1      -6.013   6.430  -0.224  0.00  0.00    +0.277 C 
ATOM     26  O   UNL     1      -5.111   5.340  -0.017  0.00  0.00    -0.495 OA
ENDBRANCH  19  26
ENDBRANCH  17  22
ENDBRANCH   1  18
TORSDOF 5
