REMARK  Name = ZINC02752174
REMARK  10 active torsions:
REMARK  status: ('A' for Active; 'I' for Inactive)
REMARK    1  A    between atoms: C_1  and  C_2
REMARK    2  A    between atoms: C_2  and  O_3
REMARK    3  A    between atoms: O_3  and  C_4
REMARK    4  A    between atoms: C_7  and  C_10
REMARK    5  A    between atoms: C_10  and  N_62
REMARK    6  A    between atoms: C_11  and  C_12
REMARK    7  A    between atoms: C_11  and  N_62
REMARK    8  A    between atoms: C_12  and  C_13
REMARK    9  A    between atoms: C_22  and  C_23
REMARK   10  A    between atoms: C_22  and  N_62
REMARK                            x       y       z     vdW  Elec       q    Type
REMARK                         _______ _______ _______ _____ _____    ______ ____
ROOT
ATOM      1  N   UNL     1       7.481  -1.444   1.729  0.00  0.00    +0.385 N 
ATOM      2  H   UNL     1       7.511  -2.021   2.578  0.00  0.00    -0.081 HD
ENDROOT
BRANCH   1   3
ATOM      3  C   UNL     1       8.548  -1.890   0.808  0.00  0.00    -0.043 C 
BRANCH   3   7
ATOM      4  C   UNL     1      12.132  -2.500   3.054  0.00  0.00    +0.121 A 
ATOM      5  C   UNL     1      11.210  -3.528   2.924  0.00  0.00    +0.046 A 
ATOM      6  C   UNL     1      10.052  -3.328   2.198  0.00  0.00    +0.005 A 
ATOM      7  C   UNL     1       9.812  -2.105   1.600  0.00  0.00    -0.064 A 
ATOM      8  C   UNL     1      10.732  -1.080   1.723  0.00  0.00    +0.005 A 
ATOM      9  C   UNL     1      11.889  -1.273   2.453  0.00  0.00    +0.046 A 
BRANCH   4  10
ATOM     10  O   UNL     1      13.272  -2.693   3.768  0.00  0.00    -0.492 OA
BRANCH  10  12
ATOM     11  C   UNL     1      15.391  -1.995   4.696  0.00  0.00    +0.048 C 
ATOM     12  C   UNL     1      14.176  -1.590   3.859  0.00  0.00    +0.225 C 
ENDBRANCH  10  12
ENDBRANCH   4  10
ENDBRANCH   3   7
ENDBRANCH   1   3
BRANCH   1  13
ATOM     13  C   UNL     1       6.160  -1.605   1.087  0.00  0.00    -0.073 C 
BRANCH  13  14
ATOM     14  C   UNL     1       5.076  -1.507   2.162  0.00  0.00    +0.017 C 
BRANCH  14  15
ATOM     15  C   UNL     1       3.725  -1.744   1.537  0.00  0.00    -0.045 A 
ATOM     16  C   UNL     1       3.214  -3.027   1.466  0.00  0.00    +0.007 A 
ATOM     17  C   UNL     1       1.976  -3.250   0.893  0.00  0.00    +0.050 A 
ATOM     18  C   UNL     1       1.244  -2.188   0.389  0.00  0.00    +0.166 A 
ATOM     19  C   UNL     1       1.758  -0.896   0.461  0.00  0.00    +0.166 A 
ATOM     20  C   UNL     1       3.000  -0.679   1.036  0.00  0.00    +0.053 A 
ATOM     21  O   UNL     1       0.857  -0.036  -0.097  0.00  0.00    -0.453 OA
ATOM     22  C   UNL     1      -0.388  -0.758  -0.142  0.00  0.00    +0.466 C 
ATOM     23  O   UNL     1       0.020  -2.137  -0.214  0.00  0.00    -0.453 OA
ENDBRANCH  14  15
ENDBRANCH  13  14
ENDBRANCH   1  13
BRANCH   1  24
ATOM     24  C   UNL     1       7.694  -0.030   2.101  0.00  0.00    -0.043 C 
BRANCH  24  25
ATOM     25  C   UNL     1       7.457   0.870   0.915  0.00  0.00    -0.063 A 
ATOM     26  C   UNL     1       8.501   1.125   0.028  0.00  0.00    +0.002 A 
ATOM     27  C   UNL     1       8.319   1.928  -1.055  0.00  0.00    +0.009 A 
ATOM     28  C   UNL     1       7.065   2.520  -1.280  0.00  0.00    -0.018 A 
ATOM     29  C   UNL     1       6.841   3.360  -2.384  0.00  0.00    +0.008 A 
ATOM     30  C   UNL     1       5.612   3.915  -2.569  0.00  0.00    +0.001 A 
ATOM     31  C   UNL     1       4.570   3.664  -1.679  0.00  0.00    +0.001 A 
ATOM     32  C   UNL     1       4.750   2.856  -0.599  0.00  0.00    +0.008 A 
ATOM     33  C   UNL     1       6.004   2.264  -0.375  0.00  0.00    -0.018 A 
ATOM     34  C   UNL     1       6.228   1.425   0.730  0.00  0.00    +0.010 A 
ENDBRANCH  24  25
ENDBRANCH   1  24
TORSDOF 9
