REMARK  Name = ZINC24232557
REMARK  5 active torsions:
REMARK  status: ('A' for Active; 'I' for Inactive)
REMARK    1  A    between atoms: C_1  and  C_2
REMARK    2  A    between atoms: C_2  and  C_4
REMARK    3  A    between atoms: C_2  and  N_11
REMARK    4  A    between atoms: N_14  and  C_15
REMARK    5  A    between atoms: C_20  and  N_21
REMARK                            x       y       z     vdW  Elec       q    Type
REMARK                         _______ _______ _______ _____ _____    ______ ____
ROOT
ATOM      1  N   UNL     1       0.709  -0.501   1.186  0.00  0.00    -0.293 N 
ATOM      2  C   UNL     1       2.054  -0.598   1.176  0.00  0.00    +0.304 C 
ATOM      3  O   UNL     1       2.678  -0.279   0.183  0.00  0.00    -0.252 OA
ATOM      4  N   UNL     1       2.705  -1.049   2.266  0.00  0.00    -0.267 N 
ATOM      5  H   UNL     1       0.211  -0.756   1.978  0.00  0.00    +0.151 HD
ATOM      6  H   UNL     1       2.216  -1.226   3.085  0.00  0.00    +0.156 HD
ENDROOT
BRANCH   4   7
ATOM      7  C   UNL     1       4.088  -1.262   2.217  0.00  0.00    +0.065 A 
ATOM      8  C   UNL     1       4.708  -1.527   1.003  0.00  0.00    +0.025 A 
ATOM      9  C   UNL     1       6.072  -1.736   0.958  0.00  0.00    +0.002 A 
ATOM     10  C   UNL     1       6.821  -1.682   2.119  0.00  0.00    +0.002 A 
ATOM     11  C   UNL     1       6.206  -1.418   3.329  0.00  0.00    +0.034 A 
ATOM     12  C   UNL     1       4.842  -1.203   3.381  0.00  0.00    +0.147 A 
BRANCH  12  13
ATOM     13  N   UNL     1       4.186  -0.914   4.676  0.00  0.00    +0.058 N 
ATOM     14  O   UNL     1       4.854  -0.774   5.674  0.00  0.00    -0.126 OA
ATOM     15  O   UNL     1       2.982  -0.818   4.735  0.00  0.00    -0.126 OA
ENDBRANCH  12  13
ENDBRANCH   4   7
BRANCH   1  17
ATOM     16  C   UNL     1      -0.035   1.518   0.025  0.00  0.00    +0.033 C 
ATOM     17  C   UNL     1       0.001  -0.011   0.001  0.00  0.00    +0.102 C 
BRANCH  17  18
ATOM     18  C   UNL     1      -1.408  -0.547   0.001  0.00  0.00    -0.027 A 
ATOM     19  C   UNL     1      -2.123  -0.611   1.182  0.00  0.00    +0.008 A 
ATOM     20  C   UNL     1      -3.415  -1.102   1.183  0.00  0.00    +0.038 A 
ATOM     21  C   UNL     1      -3.993  -1.529  -0.001  0.00  0.00    +0.123 A 
ATOM     22  C   UNL     1      -3.276  -1.465  -1.183  0.00  0.00    +0.038 A 
ATOM     23  C   UNL     1      -1.986  -0.969  -1.182  0.00  0.00    +0.008 A 
ATOM     24  F   UNL     1      -5.255  -2.010  -0.001  0.00  0.00    -0.205 F 
ENDBRANCH  17  18
ENDBRANCH   1  17
TORSDOF 4
