REMARK  Name = ZINC02396054
REMARK  12 active torsions:
REMARK  status: ('A' for Active; 'I' for Inactive)
REMARK    1  A    between atoms: C_1  and  C_2
REMARK    2  A    between atoms: C_2  and  C_3
REMARK    3  A    between atoms: C_2  and  O_4
REMARK    4  A    between atoms: O_4  and  C_5
REMARK    5  A    between atoms: C_5  and  C_6
REMARK    6  A    between atoms: C_6  and  C_7
REMARK    7  A    between atoms: C_7  and  N_8
REMARK    8  A    between atoms: C_9  and  C_11
REMARK    9  A    between atoms: N_22  and  N_25
REMARK   10  A    between atoms: C_23  and  N_24
REMARK   11  A    between atoms: C_26  and  C_27
REMARK   12  A    between atoms: C_32  and  O_33
REMARK                            x       y       z     vdW  Elec       q    Type
REMARK                         _______ _______ _______ _____ _____    ______ ____
ROOT
ATOM      1  C   UNL     1      -6.290  -5.508  -1.700  0.00  0.00    +0.105 A 
ATOM      2  C   UNL     1      -7.347  -5.202  -2.678  0.00  0.00    +0.124 A 
ATOM      3  C   UNL     1      -8.559  -5.837  -2.153  0.00  0.00    +0.183 A 
ATOM      4  N   UNL     1      -9.686  -5.734  -2.824  0.00  0.00    -0.224 NA
ATOM      5  C   UNL     1      -9.717  -5.052  -3.976  0.00  0.00    +0.092 A 
ATOM      6  C   UNL     1     -10.918  -4.936  -4.700  0.00  0.00    +0.030 A 
ATOM      7  C   UNL     1     -10.940  -4.241  -5.869  0.00  0.00    +0.002 A 
ATOM      8  C   UNL     1      -9.786  -3.638  -6.366  0.00  0.00    +0.002 A 
ATOM      9  C   UNL     1      -8.606  -3.728  -5.695  0.00  0.00    +0.030 A 
ATOM     10  C   UNL     1      -8.544  -4.438  -4.482  0.00  0.00    +0.090 A 
ATOM     11  N   UNL     1      -7.388  -4.534  -3.813  0.00  0.00    -0.241 NA
ATOM     12  N   UNL     1      -8.209  -6.455  -0.968  0.00  0.00    -0.198 N 
ATOM     13  C   UNL     1      -6.885  -6.271  -0.701  0.00  0.00    +0.134 A 
ENDROOT
BRANCH   1  15
ATOM     14  N   UNL     1      -4.541  -3.946  -1.209  0.00  0.00    -0.311 N 
ATOM     15  C   UNL     1      -4.930  -5.110  -1.767  0.00  0.00    +0.250 C 
ATOM     16  O   UNL     1      -4.115  -5.819  -2.328  0.00  0.00    -0.270 OA
ATOM     17  H   UNL     1      -5.191  -3.381  -0.762  0.00  0.00    +0.149 HD
BRANCH  14  18
ATOM     18  C   UNL     1      -3.137  -3.534  -1.278  0.00  0.00    +0.107 C 
BRANCH  18  19
ATOM     19  C   UNL     1      -2.965  -2.187  -0.574  0.00  0.00    +0.047 C 
BRANCH  19  20
ATOM     20  C   UNL     1      -1.499  -1.757  -0.646  0.00  0.00    +0.161 C 
BRANCH  20  21
ATOM     21  O   UNL     1      -1.339  -0.499   0.012  0.00  0.00    -0.377 OA
BRANCH  21  23
ATOM     22  C   UNL     1      -0.019   1.526   0.010  0.00  0.00    +0.037 C 
ATOM     23  C   UNL     1       0.002  -0.004   0.002  0.00  0.00    +0.112 C 
ATOM     24  C   UNL     1       0.742  -0.511   1.242  0.00  0.00    +0.037 C 
ENDBRANCH  21  23
ENDBRANCH  20  21
ENDBRANCH  19  20
ENDBRANCH  18  19
ENDBRANCH  14  18
ENDBRANCH   1  15
BRANCH  13  25
ATOM     25  N   UNL     1      -6.233  -6.765   0.400  0.00  0.00    -0.342 N 
ATOM     26  H   UNL     1      -5.287  -6.589   0.523  0.00  0.00    +0.144 HD
ATOM     27  H   UNL     1      -6.718  -7.290   1.056  0.00  0.00    +0.144 HD
ENDBRANCH  13  25
BRANCH  12  28
ATOM     28  N   UNL     1      -9.094  -7.175  -0.154  0.00  0.00    -0.171 NA
ATOM     29  C   UNL     1      -9.255  -8.450  -0.340  0.00  0.00    +0.145 C 
BRANCH  29  30
ATOM     30  C   UNL     1     -10.185  -9.207   0.516  0.00  0.00    +0.036 A 
ATOM     31  C   UNL     1     -10.357 -10.580   0.323  0.00  0.00    +0.013 A 
ATOM     32  C   UNL     1     -11.229 -11.283   1.127  0.00  0.00    +0.001 A 
ATOM     33  C   UNL     1     -11.935 -10.634   2.126  0.00  0.00    +0.004 A 
ATOM     34  C   UNL     1     -11.773  -9.277   2.328  0.00  0.00    +0.046 A 
ATOM     35  C   UNL     1     -10.897  -8.556   1.532  0.00  0.00    +0.125 A 
BRANCH  35  36
ATOM     36  O   UNL     1     -10.733  -7.223   1.733  0.00  0.00    -0.506 OA
ATOM     37  H   UNL     1     -11.343  -6.671   1.224  0.00  0.00    +0.292 HD
ENDBRANCH  35  36
ENDBRANCH  29  30
ENDBRANCH  12  28
TORSDOF 10
