REMARK  Name = ZINC64622275
REMARK  9 active torsions:
REMARK  status: ('A' for Active; 'I' for Inactive)
REMARK    1  A    between atoms: C_1  and  O_2
REMARK    2  A    between atoms: O_2  and  C_3
REMARK    3  A    between atoms: C_8  and  C_13
REMARK    4  A    between atoms: C_13  and  C_14
REMARK    5  A    between atoms: C_14  and  N_15
REMARK    6  A    between atoms: C_16  and  C_18
REMARK    7  A    between atoms: C_18  and  C_19
REMARK    8  A    between atoms: N_26  and  C_27
REMARK    9  A    between atoms: C_27  and  C_28
REMARK                            x       y       z     vdW  Elec       q    Type
REMARK                         _______ _______ _______ _____ _____    ______ ____
ROOT
ATOM      1  N   UNL     1      -6.331  -5.165   2.869  0.00  0.00    -0.315 N 
ATOM      2  C   UNL     1      -7.624  -5.545   2.853  0.00  0.00    +0.215 C 
ATOM      3  O   UNL     1      -8.338  -5.224   1.926  0.00  0.00    -0.276 OA
ATOM      4  H   UNL     1      -5.760  -5.421   3.610  0.00  0.00    +0.149 HD
ENDROOT
BRANCH   1   5
ATOM      5  C   UNL     1      -5.788  -4.366   1.768  0.00  0.00    +0.108 C 
BRANCH   5   6
ATOM      6  C   UNL     1      -4.310  -4.073   2.031  0.00  0.00    +0.065 C 
BRANCH   6  12
ATOM      7  C   UNL     1      -1.007   0.428   1.422  0.00  0.00    +0.122 A 
ATOM      8  C   UNL     1      -2.287   1.112   1.291  0.00  0.00    +0.048 A 
ATOM      9  C   UNL     1      -3.438   0.438   1.107  0.00  0.00    +0.031 A 
ATOM     10  C   UNL     1      -3.421  -1.030   1.035  0.00  0.00    +0.060 A 
ATOM     11  N   UNL     1      -4.366  -1.910   0.868  0.00  0.00    -0.363 N 
ATOM     12  C   UNL     1      -3.742  -3.238   0.882  0.00  0.00    +0.175 C 
ATOM     13  N   UNL     1      -2.304  -3.019   1.079  0.00  0.00    -0.363 N 
ATOM     14  C   UNL     1      -2.115  -1.730   1.168  0.00  0.00    +0.064 A 
ATOM     15  C   UNL     1      -0.909  -0.922   1.361  0.00  0.00    +0.073 A 
ATOM     16  H   UNL     1      -5.311  -1.722   0.755  0.00  0.00    +0.162 HD
ATOM     17  H   UNL     1      -1.621  -3.705   1.132  0.00  0.00    +0.162 HD
BRANCH   7  19
ATOM     18  C   UNL     1      -0.038   2.583   1.664  0.00  0.00    +0.277 C 
ATOM     19  O   UNL     1       0.117   1.164   1.606  0.00  0.00    -0.495 OA
ENDBRANCH   7  19
ENDBRANCH   6  12
ENDBRANCH   5   6
ENDBRANCH   1   5
BRANCH   2  20
ATOM     20  C   UNL     1      -8.183  -6.367   3.985  0.00  0.00    +0.124 C 
BRANCH  20  21
ATOM     21  C   UNL     1      -9.688  -6.558   3.783  0.00  0.00    +0.152 C 
ATOM     22  C   UNL     1      -9.925  -7.349   2.527  0.00  0.00    +0.231 C 
ATOM     23  O   UNL     1      -9.218  -8.309   2.303  0.00  0.00    -0.274 OA
ATOM     24  N   UNL     1     -10.884  -7.040   1.648  0.00  0.00    -0.313 N 
ATOM     25  C   UNL     1     -11.764  -5.886   1.807  0.00  0.00    +0.119 C 
ATOM     26  C   UNL     1     -11.738  -5.402   3.258  0.00  0.00    +0.104 C 
ATOM     27  N   UNL     1     -10.336  -5.244   3.676  0.00  0.00    -0.285 NA
ATOM     28  H   UNL     1     -10.999  -7.608   0.870  0.00  0.00    +0.149 HD
BRANCH  27  29
ATOM     29  C   UNL     1     -10.247  -4.508   4.944  0.00  0.00    +0.123 C 
BRANCH  29  30
ATOM     30  C   UNL     1     -10.703  -3.088   4.733  0.00  0.00    +0.002 A 
ATOM     31  C   UNL     1      -9.780  -2.100   4.446  0.00  0.00    +0.008 A 
ATOM     32  C   UNL     1     -10.198  -0.797   4.253  0.00  0.00    +0.000 A 
ATOM     33  C   UNL     1     -11.540  -0.480   4.347  0.00  0.00    +0.003 A 
ATOM     34  C   UNL     1     -12.466  -1.465   4.633  0.00  0.00    +0.038 A 
ATOM     35  C   UNL     1     -12.048  -2.772   4.822  0.00  0.00    +0.128 A 
ATOM     36  F   UNL     1     -12.952  -3.737   5.098  0.00  0.00    -0.205 F 
ENDBRANCH  29  30
ENDBRANCH  27  29
ENDBRANCH  20  21
ENDBRANCH   2  20
TORSDOF 8
