REMARK  Name = ZINC14705228
REMARK  7 active torsions:
REMARK  status: ('A' for Active; 'I' for Inactive)
REMARK    1  A    between atoms: C_1  and  N_53
REMARK    2  A    between atoms: C_2  and  C_3
REMARK    3  A    between atoms: C_2  and  N_53
REMARK    4  A    between atoms: N_5  and  C_6
REMARK    5  A    between atoms: C_6  and  C_7
REMARK    6  A    between atoms: C_7  and  C_8
REMARK    7  A    between atoms: C_18  and  N_53
REMARK                            x       y       z     vdW  Elec       q    Type
REMARK                         _______ _______ _______ _____ _____    ______ ____
ROOT
ATOM      1  C   UNL     1       3.212   4.742   1.651  0.00  0.00    +0.196 C 
ATOM      2  O   UNL     1       2.308   5.298   2.238  0.00  0.00    -0.278 OA
ATOM      3  N   UNL     1       4.477   5.189   1.782  0.00  0.00    -0.317 N 
ATOM      4  H   UNL     1       5.200   4.744   1.313  0.00  0.00    +0.149 HD
ENDROOT
BRANCH   1   5
ATOM      5  C   UNL     1       2.922   3.550   0.776  0.00  0.00    +0.019 C 
BRANCH   5   7
ATOM      6  C   UNL     1       0.717   4.351   0.175  0.00  0.00    -0.095 C 
ATOM      7  N   UNL     1       1.473   3.262   0.829  0.00  0.00    +0.385 N 
ATOM      8  H   UNL     1       1.181   3.196   1.811  0.00  0.00    -0.081 HD
BRANCH   7   9
ATOM      9  C   UNL     1       1.188   1.977   0.157  0.00  0.00    -0.068 C 
ATOM     10  C   UNL     1       1.857   1.944  -1.191  0.00  0.00    -0.015 C 
ATOM     11  C   UNL     1       0.954   1.162  -2.167  0.00  0.00    -0.002 C 
ATOM     12  C   UNL     1       1.089  -0.279  -2.014  0.00  0.00    -0.000 C 
ATOM     13  C   UNL     1       0.669  -0.763  -0.611  0.00  0.00    -0.000 C 
ATOM     14  C   UNL     1       1.804  -0.508   0.343  0.00  0.00    -0.002 C 
ATOM     15  C   UNL     1       1.665   0.838   1.079  0.00  0.00    -0.015 C 
ENDBRANCH   7   9
ENDBRANCH   5   7
ENDBRANCH   1   5
BRANCH   3  16
ATOM     16  C   UNL     1       4.760   6.348   2.633  0.00  0.00    +0.109 C 
BRANCH  16  17
ATOM     17  C   UNL     1       6.260   6.646   2.607  0.00  0.00    +0.056 C 
BRANCH  17  18
ATOM     18  C   UNL     1       6.551   7.838   3.482  0.00  0.00    -0.021 A 
ATOM     19  C   UNL     1       6.658   9.115   3.082  0.00  0.00    +0.087 A 
ATOM     20  N   UNL     1       6.926   9.919   4.156  0.00  0.00    -0.360 N 
ATOM     21  H   UNL     1       7.044  10.881   4.116  0.00  0.00    +0.165 HD
ATOM     22  C   UNL     1       7.008   9.159   5.301  0.00  0.00    +0.047 A 
ATOM     23  C   UNL     1       6.777   7.822   4.929  0.00  0.00    +0.003 A 
ATOM     24  C   UNL     1       6.798   6.816   5.897  0.00  0.00    +0.010 A 
ATOM     25  C   UNL     1       7.044   7.136   7.202  0.00  0.00    +0.001 A 
ATOM     26  C   UNL     1       7.274   8.453   7.574  0.00  0.00    +0.002 A 
ATOM     27  C   UNL     1       7.256   9.462   6.636  0.00  0.00    +0.026 A 
ENDBRANCH  17  18
ENDBRANCH  16  17
ENDBRANCH   3  16
TORSDOF 6
