REMARK  Name = ZINC06003433
REMARK  9 active torsions:
REMARK  status: ('A' for Active; 'I' for Inactive)
REMARK    1  A    between atoms: C_1  and  C_2
REMARK    2  A    between atoms: C_2  and  C_3
REMARK    3  A    between atoms: C_3  and  C_5
REMARK    4  A    between atoms: C_3  and  S_6
REMARK    5  A    between atoms: S_6  and  C_7
REMARK    6  A    between atoms: C_14  and  C_26
REMARK    7  A    between atoms: C_19  and  C_23
REMARK    8  A    between atoms: C_19  and  C_24
REMARK    9  A    between atoms: C_29  and  C_31
REMARK                            x       y       z     vdW  Elec       q    Type
REMARK                         _______ _______ _______ _____ _____    ______ ____
ROOT
ATOM      1  C   UNL     1       3.154  -0.528   2.698  0.00  0.00    +0.172 A 
ATOM      2  N   UNL     1       4.469  -0.293   2.969  0.00  0.00    -0.322 N 
ATOM      3  C   UNL     1       5.006  -0.695   4.164  0.00  0.00    +0.112 A 
ATOM      4  C   UNL     1       4.215  -1.327   5.071  0.00  0.00    +0.072 A 
ATOM      5  C   UNL     1       2.856  -1.547   4.754  0.00  0.00    +0.280 A 
ATOM      6  N   UNL     1       2.376  -1.132   3.572  0.00  0.00    -0.185 NA
ATOM      7  O   UNL     1       2.121  -2.107   5.554  0.00  0.00    -0.265 OA
ATOM      8  C   UNL     1       4.767  -1.792   6.386  0.00  0.00    +0.128 C 
ATOM      9  C   UNL     1       6.075  -1.112   6.702  0.00  0.00    +0.027 C 
ATOM     10  C   UNL     1       6.529  -1.139   8.032  0.00  0.00    +0.162 C 
ATOM     11  C   UNL     1       7.818  -0.474   8.430  0.00  0.00    +0.086 C 
ATOM     12  C   UNL     1       8.086   0.701   7.484  0.00  0.00    -0.023 C 
ATOM     13  C   UNL     1       8.105   0.173   6.048  0.00  0.00    +0.058 C 
ATOM     14  C   UNL     1       6.788  -0.495   5.736  0.00  0.00    +0.017 C 
ATOM     15  N   UNL     1       6.332  -0.460   4.447  0.00  0.00    -0.304 N 
ATOM     16  C   UNL     1       6.976   1.744   7.634  0.00  0.00    +0.011 C 
ATOM     17  C   UNL     1       9.439   1.332   7.818  0.00  0.00    +0.011 C 
ATOM     18  O   UNL     1       5.868  -1.710   8.876  0.00  0.00    -0.292 OA
ATOM     19  H   UNL     1       6.949  -0.267   3.724  0.00  0.00    +0.153 HD
ATOM     20  H   UNL     1       5.025   0.158   2.316  0.00  0.00    +0.169 HD
ENDROOT
BRANCH   8  21
ATOM     21  C   UNL     1       4.988  -3.282   6.330  0.00  0.00    +0.117 A 
ATOM     22  C   UNL     1       4.406  -4.194   7.129  0.00  0.00    +0.046 A 
ATOM     23  C   UNL     1       4.895  -5.459   6.730  0.00  0.00    +0.044 A 
ATOM     24  C   UNL     1       5.747  -5.245   5.712  0.00  0.00    +0.102 A 
ATOM     25  O   UNL     1       5.795  -3.924   5.470  0.00  0.00    -0.464 OA
ATOM     26  C   UNL     1       6.513  -6.306   4.965  0.00  0.00    +0.086 C 
ENDBRANCH   8  21
BRANCH   1  27
ATOM     27  S   UNL     1       2.482  -0.007   1.155  0.00  0.00    -0.085 S 
BRANCH  27  28
ATOM     28  C   UNL     1       0.742  -0.511   1.242  0.00  0.00    +0.051 C 
ATOM     29  C   UNL     1       0.655  -2.037   1.299  0.00  0.00    +0.019 C 
BRANCH  28  31
ATOM     30  C   UNL     1      -0.019   1.526   0.010  0.00  0.00    +0.005 C 
ATOM     31  C   UNL     1       0.002  -0.004   0.002  0.00  0.00    +0.011 C 
ENDBRANCH  28  31
ENDBRANCH  27  28
ENDBRANCH   1  27
TORSDOF 4
