REMARK  Name = ZINC12199995
REMARK  6 active torsions:
REMARK  status: ('A' for Active; 'I' for Inactive)
REMARK    1  A    between atoms: C_1  and  C_2
REMARK    2  A    between atoms: N_11  and  N_12
REMARK    3  A    between atoms: C_13  and  C_14
REMARK    4  A    between atoms: C_17  and  O_22
REMARK    5  A    between atoms: C_18  and  O_20
REMARK    6  A    between atoms: O_20  and  C_21
REMARK                            x       y       z     vdW  Elec       q    Type
REMARK                         _______ _______ _______ _____ _____    ______ ____
ROOT
ATOM      1  C   UNL     1     -10.194  -2.190  -1.105  0.00  0.00    +0.008 C 
ATOM      2  C   UNL     1      -9.185  -1.145  -0.624  0.00  0.00    -0.009 C 
ATOM      3  C   UNL     1      -9.306   0.118  -1.481  0.00  0.00    +0.010 C 
ATOM      4  C   UNL     1      -8.485   1.252  -0.865  0.00  0.00    +0.054 C 
ATOM      5  C   UNL     1      -7.062   0.757  -0.631  0.00  0.00    +0.028 A 
ATOM      6  C   UNL     1      -6.799  -0.575  -0.597  0.00  0.00    +0.013 A 
ATOM      7  S   UNL     1      -5.051  -0.619  -0.307  0.00  0.00    -0.053 S 
ATOM      8  C   UNL     1      -4.801   1.101  -0.252  0.00  0.00    +0.192 A 
ATOM      9  N   UNL     1      -6.020   1.563  -0.446  0.00  0.00    -0.336 N 
ATOM     10  N   UNL     1      -3.625   1.804  -0.051  0.00  0.00    -0.124 NA
ATOM     11  C   UNL     1      -7.760  -1.703  -0.765  0.00  0.00    +0.047 C 
ATOM     12  H   UNL     1      -6.161   2.654  -0.450  0.00  0.00    +0.168 HD
ENDROOT
BRANCH  10  13
ATOM     13  N   UNL     1      -3.639   3.205  -0.043  0.00  0.00    -0.155 NA
ATOM     14  C   UNL     1      -2.522   3.865   0.020  0.00  0.00    +0.143 C 
BRANCH  14  15
ATOM     15  C   UNL     1      -1.272   3.245  -0.454  0.00  0.00    -0.002 A 
ATOM     16  C   UNL     1      -1.316   2.091  -1.240  0.00  0.00    +0.013 A 
ATOM     17  C   UNL     1      -0.145   1.509  -1.678  0.00  0.00    +0.050 A 
ATOM     18  C   UNL     1       1.079   2.074  -1.349  0.00  0.00    +0.158 A 
ATOM     19  C   UNL     1       1.131   3.228  -0.571  0.00  0.00    +0.162 A 
ATOM     20  C   UNL     1      -0.039   3.813  -0.123  0.00  0.00    +0.059 A 
BRANCH  19  21
ATOM     21  O   UNL     1       2.333   3.778  -0.251  0.00  0.00    -0.491 OA
ATOM     22  C   UNL     1       2.311   4.961   0.550  0.00  0.00    +0.277 C 
ENDBRANCH  19  21
BRANCH  18  23
ATOM     23  O   UNL     1       2.231   1.499  -1.788  0.00  0.00    -0.503 OA
ATOM     24  H   UNL     1       3.202   1.946  -1.528  0.00  0.00    +0.292 HD
ENDBRANCH  18  23
ENDBRANCH  14  15
ENDBRANCH  10  13
TORSDOF 4
