REMARK  Name = ZINC05897331
REMARK  2 active torsions:
REMARK  status: ('A' for Active; 'I' for Inactive)
REMARK    1  A    between atoms: C_6  and  N_7
REMARK    2  A    between atoms: N_10  and  C_11
REMARK                            x       y       z     vdW  Elec       q    Type
REMARK                         _______ _______ _______ _____ _____    ______ ____
ROOT
ATOM      1  N   UNL     1       1.142   2.033   0.002  0.00  0.00    -0.269 N 
ATOM      2  C   UNL     1      -0.016   1.343   0.008  0.00  0.00    +0.304 C 
ATOM      3  O   UNL     1      -1.077   1.937   0.007  0.00  0.00    -0.252 OA
ATOM      4  N   UNL     1       0.002  -0.004   0.008  0.00  0.00    -0.294 N 
ATOM      5  H   UNL     1       1.987   1.562   0.066  0.00  0.00    +0.156 HD
ATOM      6  H   UNL     1       0.849  -0.478   0.004  0.00  0.00    +0.151 HD
ENDROOT
BRANCH   4   7
ATOM      7  C   UNL     1      -1.256  -0.754   0.014  0.00  0.00    +0.037 C 
ATOM      8  C   UNL     1      -2.069  -0.396  -1.231  0.00  0.00    +0.029 C 
ATOM      9  C   UNL     1      -3.384  -1.179  -1.225  0.00  0.00    -0.008 C 
ATOM     10  C   UNL     1      -3.084  -2.679  -1.226  0.00  0.00    +0.007 C 
ATOM     11  C   UNL     1      -2.270  -3.037   0.020  0.00  0.00    -0.008 C 
ATOM     12  C   UNL     1      -0.956  -2.254   0.013  0.00  0.00    +0.029 C 
ATOM     13  C   UNL     1      -3.072  -2.678   1.273  0.00  0.00    +0.007 C 
ATOM     14  C   UNL     1      -3.372  -1.178   1.274  0.00  0.00    -0.008 C 
ATOM     15  C   UNL     1      -4.185  -0.820   0.028  0.00  0.00    +0.007 C 
ATOM     16  C   UNL     1      -2.058  -0.395   1.267  0.00  0.00    +0.029 C 
ENDBRANCH   4   7
BRANCH   1  22
ATOM     17  C   UNL     1       2.127   4.090  -0.793  0.00  0.00    +0.027 A 
ATOM     18  C   UNL     1       2.108   5.469  -0.895  0.00  0.00    +0.051 A 
ATOM     19  C   UNL     1       1.095   6.197  -0.293  0.00  0.00    +0.166 A 
ATOM     20  C   UNL     1       0.090   5.538   0.412  0.00  0.00    +0.168 A 
ATOM     21  C   UNL     1       0.107   4.157   0.509  0.00  0.00    +0.073 A 
ATOM     22  C   UNL     1       1.124   3.431  -0.096  0.00  0.00    +0.038 A 
ATOM     23  O   UNL     1      -0.779   6.468   0.905  0.00  0.00    -0.453 OA
ATOM     24  C   UNL     1      -0.076   7.723   0.842  0.00  0.00    +0.466 C 
ATOM     25  O   UNL     1       0.854   7.540  -0.242  0.00  0.00    -0.453 OA
ENDBRANCH   1  22
TORSDOF 2
