REMARK  Name = ZINC57837332
REMARK  6 active torsions:
REMARK  status: ('A' for Active; 'I' for Inactive)
REMARK    1  A    between atoms: C_1  and  C_2
REMARK    2  A    between atoms: C_3  and  C_22
REMARK    3  A    between atoms: C_10  and  S_12
REMARK    4  A    between atoms: S_12  and  C_13
REMARK    5  A    between atoms: C_13  and  C_14
REMARK    6  A    between atoms: C_14  and  C_15
REMARK                            x       y       z     vdW  Elec       q    Type
REMARK                         _______ _______ _______ _____ _____    ______ ____
ROOT
ATOM      1  C   UNL     1      -0.018   1.503   0.010  0.00  0.00    +0.045 C 
ATOM      2  C   UNL     1       0.002  -0.004   0.002  0.00  0.00    -0.026 A 
ATOM      3  C   UNL     1       0.006  -0.677  -1.159  0.00  0.00    -0.008 A 
ATOM      4  S   UNL     1       0.031  -2.384  -0.642  0.00  0.00    -0.075 S 
ATOM      5  C   UNL     1       0.036  -2.136   1.113  0.00  0.00    +0.092 A 
ATOM      6  C   UNL     1       0.024  -0.745   1.250  0.00  0.00    +0.075 A 
ATOM      7  C   UNL     1       0.030  -0.246   2.646  0.00  0.00    +0.282 A 
ATOM      8  O   UNL     1       0.016   0.953   2.871  0.00  0.00    -0.265 OA
ATOM      9  N   UNL     1       0.052  -1.123   3.654  0.00  0.00    -0.185 NA
ATOM     10  C   UNL     1       0.068  -2.424   3.457  0.00  0.00    +0.171 A 
ATOM     11  N   UNL     1       0.052  -2.954   2.201  0.00  0.00    -0.328 N 
ATOM     12  C   UNL     1      -0.008  -0.124  -2.561  0.00  0.00    +0.052 C 
ATOM     13  H   UNL     1       0.065  -3.917   2.083  0.00  0.00    +0.168 HD
ENDROOT
BRANCH  10  14
ATOM     14  S   UNL     1       0.096  -3.506   4.848  0.00  0.00    -0.088 S 
BRANCH  14  15
ATOM     15  C   UNL     1       0.095  -2.385   6.275  0.00  0.00    +0.076 C 
BRANCH  15  16
ATOM     16  C   UNL     1       0.119  -3.205   7.567  0.00  0.00    -0.005 C 
BRANCH  16  17
ATOM     17  C   UNL     1       0.118  -2.260   8.770  0.00  0.00    -0.071 C 
ATOM     18  C   UNL     1       0.269  -3.074  10.057  0.00  0.00    -0.016 C 
ATOM     19  C   UNL     1       0.268  -2.124  11.258  0.00  0.00    -0.003 C 
ATOM     20  C   UNL     1      -1.022  -1.298  11.242  0.00  0.00    -0.019 C 
ATOM     21  C   UNL     1      -1.125  -0.550   9.911  0.00  0.00    -0.082 C 
ATOM     22  N   UNL     1      -1.146  -1.514   8.805  0.00  0.00    +0.381 N 
ATOM     23  H   UNL     1      -1.268  -1.021   7.933  0.00  0.00    -0.086 HD
ATOM     24  H   UNL     1      -1.912  -2.158   8.935  0.00  0.00    -0.086 HD
ENDBRANCH  16  17
ENDBRANCH  15  16
ENDBRANCH  14  15
ENDBRANCH  10  14
TORSDOF 4
