REMARK  Name = ZINC09486985
REMARK  7 active torsions:
REMARK  status: ('A' for Active; 'I' for Inactive)
REMARK    1  A    between atoms: C_6  and  C_7
REMARK    2  A    between atoms: C_9  and  C_13
REMARK    3  A    between atoms: C_16  and  S_19
REMARK    4  A    between atoms: N_17  and  N_18
REMARK    5  A    between atoms: S_19  and  C_20
REMARK    6  A    between atoms: C_20  and  C_21
REMARK    7  A    between atoms: N_23  and  C_24
REMARK                            x       y       z     vdW  Elec       q    Type
REMARK                         _______ _______ _______ _____ _____    ______ ____
ROOT
ATOM      1  C   UNL     1      -3.358  -3.782  -0.033  0.00  0.00    +0.202 A 
ATOM      2  N   UNL     1      -2.699  -4.917  -0.031  0.00  0.00    -0.125 NA
ATOM      3  N   UNL     1      -3.522  -5.903  -0.018  0.00  0.00    -0.120 NA
ATOM      4  C   UNL     1      -4.759  -5.458  -0.011  0.00  0.00    +0.209 A 
ATOM      5  N   UNL     1      -4.697  -4.093  -0.014  0.00  0.00    -0.222 N 
ENDROOT
BRANCH   1   8
ATOM      6  C   UNL     1      -1.272  -0.762  -0.073  0.00  0.00    +0.066 A 
ATOM      7  C   UNL     1      -1.397  -2.120  -0.066  0.00  0.00    +0.061 A 
ATOM      8  C   UNL     1      -2.771  -2.424  -0.046  0.00  0.00    +0.132 A 
ATOM      9  N   UNL     1      -3.445  -1.291  -0.042  0.00  0.00    -0.170 NA
ATOM     10  N   UNL     1      -2.529  -0.232  -0.054  0.00  0.00    -0.276 N 
ATOM     11  H   UNL     1      -2.749   0.713  -0.051  0.00  0.00    +0.189 HD
BRANCH   6  17
ATOM     12  C   UNL     1      -0.022   1.393  -0.093  0.00  0.00    +0.011 A 
ATOM     13  C   UNL     1       1.164   2.097  -0.112  0.00  0.00    +0.020 A 
ATOM     14  C   UNL     1       2.373   1.421  -0.130  0.00  0.00    +0.041 A 
ATOM     15  C   UNL     1       2.398   0.037  -0.129  0.00  0.00    +0.020 A 
ATOM     16  C   UNL     1       1.218  -0.677  -0.111  0.00  0.00    +0.011 A 
ATOM     17  C   UNL     1      -0.003  -0.002  -0.093  0.00  0.00    -0.000 A 
ATOM     18 CL   UNL     1       3.862   2.313  -0.153  0.00  0.00    -0.084 Cl
ENDBRANCH   6  17
ENDBRANCH   1   8
BRANCH   5  19
ATOM     19  N   UNL     1      -5.748  -3.220  -0.003  0.00  0.00    -0.295 N 
ATOM     20  H   UNL     1      -6.038  -2.992  -0.942  0.00  0.00    +0.163 HD
ATOM     21  H   UNL     1      -6.518  -3.588   0.535  0.00  0.00    +0.163 HD
ENDBRANCH   5  19
BRANCH   4  22
ATOM     22  S   UNL     1      -6.222  -6.439   0.007  0.00  0.00    -0.075 S 
BRANCH  22  23
ATOM     23  C   UNL     1      -5.607  -8.146   0.013  0.00  0.00    +0.173 C 
BRANCH  23  24
ATOM     24  C   UNL     1      -6.773  -9.100   0.028  0.00  0.00    +0.228 C 
ATOM     25  O   UNL     1      -7.908  -8.671   0.034  0.00  0.00    -0.275 OA
ATOM     26  N   UNL     1      -6.556 -10.430   0.034  0.00  0.00    -0.284 N 
ATOM     27  H   UNL     1      -5.651 -10.774  -0.037  0.00  0.00    +0.155 HD
BRANCH  26  28
ATOM     28  C   UNL     1      -7.635 -11.316   0.143  0.00  0.00    +0.052 A 
ATOM     29  C   UNL     1      -8.853 -11.003  -0.445  0.00  0.00    +0.026 A 
ATOM     30  C   UNL     1      -9.916 -11.878  -0.337  0.00  0.00    +0.022 A 
ATOM     31  C   UNL     1      -9.768 -13.066   0.358  0.00  0.00    +0.042 A 
ATOM     32  C   UNL     1      -8.556 -13.380   0.946  0.00  0.00    +0.041 A 
ATOM     33  C   UNL     1      -7.487 -12.511   0.835  0.00  0.00    +0.064 A 
ATOM     34 CL   UNL     1      -5.963 -12.909   1.566  0.00  0.00    -0.082 Cl
ATOM     35 CL   UNL     1     -11.107 -14.162   0.494  0.00  0.00    -0.083 Cl
ENDBRANCH  26  28
ENDBRANCH  23  24
ENDBRANCH  22  23
ENDBRANCH   4  22
TORSDOF 7
