REMARK  Name = ZINC62358274
REMARK  16 active torsions:
REMARK  status: ('A' for Active; 'I' for Inactive)
REMARK    1  A    between atoms: C_1  and  C_2
REMARK    2  A    between atoms: C_2  and  C_3
REMARK    3  A    between atoms: C_2  and  C_4
REMARK    4  A    between atoms: C_4  and  C_6
REMARK    5  A    between atoms: C_4  and  N_22
REMARK    6  A    between atoms: N_8  and  C_9
REMARK    7  A    between atoms: C_9  and  C_10
REMARK    8  A    between atoms: C_10  and  C_12
REMARK    9  A    between atoms: C_10  and  N_19
REMARK   10  A    between atoms: N_19  and  C_20
REMARK   11  A    between atoms: N_19  and  C_21
REMARK   12  A    between atoms: C_23  and  O_25
REMARK   13  A    between atoms: O_25  and  C_26
REMARK   14  A    between atoms: C_26  and  C_27
REMARK   15  A    between atoms: C_26  and  C_28
REMARK   16  A    between atoms: C_26  and  C_29
REMARK                            x       y       z     vdW  Elec       q    Type
REMARK                         _______ _______ _______ _____ _____    ______ ____
ROOT
ATOM      1  C   UNL     1      -1.504  -1.628   0.340  0.00  0.00    +0.234 C 
ATOM      2  O   UNL     1      -1.983  -2.211  -0.609  0.00  0.00    -0.274 OA
ATOM      3  N   UNL     1      -1.083  -2.322   1.416  0.00  0.00    -0.315 N 
ATOM      4  H   UNL     1      -0.643  -1.863   2.148  0.00  0.00    +0.149 HD
ENDROOT
BRANCH   1   5
ATOM      5  C   UNL     1      -1.378  -0.126   0.316  0.00  0.00    +0.165 C 
BRANCH   5   6
ATOM      6  N   UNL     1      -2.284   0.424  -0.695  0.00  0.00    -0.270 N 
ATOM      7  C   UNL     1      -2.733   1.689  -0.581  0.00  0.00    +0.401 C 
ATOM      8  O   UNL     1      -2.387   2.374   0.360  0.00  0.00    -0.226 OA
ATOM      9  H   UNL     1      -2.561  -0.123  -1.447  0.00  0.00    +0.153 HD
BRANCH   7  10
ATOM     10  O   UNL     1      -3.566   2.195  -1.511  0.00  0.00    -0.445 OA
BRANCH  10  11
ATOM     11  C   UNL     1      -4.002   3.543  -1.327  0.00  0.00    +0.107 C 
ATOM     12  C   UNL     1      -2.788   4.474  -1.312  0.00  0.00    +0.055 C 
ATOM     13  C   UNL     1      -4.935   3.938  -2.474  0.00  0.00    +0.055 C 
ATOM     14  C   UNL     1      -4.751   3.660   0.002  0.00  0.00    +0.055 C 
ENDBRANCH  10  11
ENDBRANCH   7  10
ENDBRANCH   5   6
BRANCH   5  16
ATOM     15  C   UNL     1       0.201   1.784  -0.003  0.00  0.00    +0.009 C 
ATOM     16  C   UNL     1       0.062   0.260  -0.026  0.00  0.00    +0.012 C 
ATOM     17  C   UNL     1       1.013  -0.354   1.004  0.00  0.00    +0.009 C 
ENDBRANCH   5  16
ENDBRANCH   1   5
BRANCH   3  18
ATOM     18  C   UNL     1      -1.291  -3.771   1.479  0.00  0.00    +0.093 C 
BRANCH  18  19
ATOM     19  C   UNL     1      -0.844  -4.291   2.847  0.00  0.00    -0.021 C 
BRANCH  19  20
ATOM     20  C   UNL     1      -1.743  -3.727   3.917  0.00  0.00    -0.059 A 
ATOM     21  C   UNL     1      -2.981  -4.295   4.150  0.00  0.00    +0.003 A 
ATOM     22  C   UNL     1      -3.806  -3.779   5.130  0.00  0.00    +0.020 A 
ATOM     23  C   UNL     1      -3.393  -2.692   5.880  0.00  0.00    +0.041 A 
ATOM     24  C   UNL     1      -2.153  -2.123   5.647  0.00  0.00    +0.020 A 
ATOM     25  C   UNL     1      -1.327  -2.644   4.669  0.00  0.00    +0.003 A 
ATOM     26 CL   UNL     1      -4.429  -2.041   7.112  0.00  0.00    -0.084 Cl
ENDBRANCH  19  20
BRANCH  19  27
ATOM     27  N   UNL     1      -0.924  -5.757   2.864  0.00  0.00    +0.382 N 
ATOM     28  C   UNL     1       0.017  -6.310   1.880  0.00  0.00    -0.096 C 
ATOM     29  C   UNL     1      -0.578  -6.252   4.203  0.00  0.00    -0.096 C 
ATOM     30  H   UNL     1      -1.862  -6.046   2.631  0.00  0.00    -0.082 HD
ENDBRANCH  19  27
ENDBRANCH  18  19
ENDBRANCH   3  18
TORSDOF 9
