REMARK  Name = ZINC14472838
REMARK  7 active torsions:
REMARK  status: ('A' for Active; 'I' for Inactive)
REMARK    1  A    between atoms: C_1  and  C_2
REMARK    2  A    between atoms: C_5  and  N_9
REMARK    3  A    between atoms: C_6  and  C_8
REMARK    4  A    between atoms: N_9  and  S_10
REMARK    5  A    between atoms: S_10  and  C_13
REMARK    6  A    between atoms: C_26  and  C_29
REMARK    7  A    between atoms: C_31  and  N_36
REMARK                            x       y       z     vdW  Elec       q    Type
REMARK                         _______ _______ _______ _____ _____    ______ ____
ROOT
ATOM      1  C   UNL     1      -3.660   1.861  -2.532  0.00  0.00    +0.109 A 
ATOM      2  C   UNL     1      -4.014   0.811  -3.359  0.00  0.00    +0.030 A 
ATOM      3  C   UNL     1      -3.755   0.889  -4.712  0.00  0.00    +0.025 A 
ATOM      4  C   UNL     1      -3.141   2.018  -5.239  0.00  0.00    +0.031 A 
ATOM      5  C   UNL     1      -2.783   3.073  -4.413  0.00  0.00    -0.018 A 
ATOM      6  C   UNL     1      -3.055   2.986  -3.055  0.00  0.00    +0.034 A 
ATOM      7  C   UNL     1      -2.118   4.308  -4.935  0.00  0.00    +0.049 C 
ATOM      8  C   UNL     1      -3.079   5.471  -4.991  0.00  0.00    -0.023 C 
ATOM      9  C   UNL     1      -2.836   6.224  -6.022  0.00  0.00    -0.030 C 
ATOM     10  C   UNL     1      -1.681   5.657  -6.826  0.00  0.00    +0.033 C 
ATOM     11  C   UNL     1      -1.639   4.163  -6.392  0.00  0.00    +0.029 C 
ATOM     12  C   UNL     1      -2.684   3.401  -7.212  0.00  0.00    +0.106 C 
ATOM     13  N   UNL     1      -2.889   2.084  -6.614  0.00  0.00    -0.336 N 
ATOM     14  H   UNL     1      -2.866   1.279  -7.154  0.00  0.00    +0.147 HD
ENDROOT
BRANCH  12  15
ATOM     15  C   UNL     1      -3.982   4.167  -7.212  0.00  0.00    -0.007 A 
ATOM     16  C   UNL     1      -4.891   3.987  -6.186  0.00  0.00    +0.039 A 
ATOM     17  C   UNL     1      -6.079   4.693  -6.183  0.00  0.00    +0.127 A 
ATOM     18  C   UNL     1      -6.364   5.572  -7.212  0.00  0.00    +0.034 A 
ATOM     19  C   UNL     1      -5.459   5.749  -8.241  0.00  0.00    +0.022 A 
ATOM     20  C   UNL     1      -4.267   5.046  -8.241  0.00  0.00    +0.046 A 
ATOM     21 CL   UNL     1      -3.129   5.267  -9.534  0.00  0.00    -0.083 Cl
BRANCH  17  22
ATOM     22  N   UNL     1      -7.049   4.505  -5.081  0.00  0.00    +0.056 N 
ATOM     23  O   UNL     1      -8.098   5.123  -5.081  0.00  0.00    -0.126 OA
ATOM     24  O   UNL     1      -6.798   3.731  -4.175  0.00  0.00    -0.126 OA
ENDBRANCH  17  22
ENDBRANCH  12  15
BRANCH   1  25
ATOM     25  S   UNL     1      -3.989   1.766  -0.803  0.00  0.00    +0.072 S 
ATOM     26  O   UNL     1      -5.059   0.846  -0.644  0.00  0.00    -0.150 OA
ATOM     27  O   UNL     1      -4.057   3.104  -0.329  0.00  0.00    -0.150 OA
BRANCH  25  28
ATOM     28  N   UNL     1      -2.663   1.078  -0.090  0.00  0.00    -0.216 N 
ATOM     29  H   UNL     1      -2.752   0.243   0.396  0.00  0.00    +0.174 HD
BRANCH  28  34
ATOM     30  C   UNL     1       2.400   3.601  -0.499  0.00  0.00    +0.044 C 
ATOM     31  C   UNL     1       1.055   2.930  -0.387  0.00  0.00    -0.050 A 
ATOM     32  C   UNL     1      -0.091   3.697  -0.278  0.00  0.00    +0.005 A 
ATOM     33  C   UNL     1      -1.325   3.086  -0.175  0.00  0.00    +0.025 A 
ATOM     34  C   UNL     1      -1.415   1.699  -0.187  0.00  0.00    +0.051 A 
ATOM     35  C   UNL     1      -0.262   0.932  -0.292  0.00  0.00    -0.028 A 
ATOM     36  C   UNL     1       0.969   1.550  -0.394  0.00  0.00    +0.008 A 
ATOM     37  C   UNL     1      -0.354  -0.572  -0.301  0.00  0.00    +0.046 C 
ENDBRANCH  28  34
ENDBRANCH  25  28
ENDBRANCH   1  25
TORSDOF 5
