REMARK  Name = ZINC12036151
REMARK  8 active torsions:
REMARK  status: ('A' for Active; 'I' for Inactive)
REMARK    1  A    between atoms: C_1  and  C_2
REMARK    2  A    between atoms: C_2  and  O_3
REMARK    3  A    between atoms: O_3  and  C_4
REMARK    4  A    between atoms: C_9  and  N_59
REMARK    5  A    between atoms: C_12  and  C_13
REMARK    6  A    between atoms: C_12  and  N_59
REMARK    7  A    between atoms: N_21  and  C_24
REMARK    8  A    between atoms: C_24  and  C_25
REMARK                            x       y       z     vdW  Elec       q    Type
REMARK                         _______ _______ _______ _____ _____    ______ ____
ROOT
ATOM      1  C   UNL     1       4.201   2.190  -0.598  0.00  0.00    +0.001 A 
ATOM      2  C   UNL     1       3.253   1.232  -0.440  0.00  0.00    +0.017 A 
ATOM      3  C   UNL     1       1.889   1.646  -0.111  0.00  0.00    -0.001 A 
ATOM      4  C   UNL     1       0.869   0.704   0.062  0.00  0.00    +0.013 A 
ATOM      5  C   UNL     1      -0.396   1.121   0.362  0.00  0.00    +0.039 A 
ATOM      6  C   UNL     1      -0.677   2.476   0.511  0.00  0.00    +0.125 A 
ATOM      7  C   UNL     1       0.315   3.422   0.344  0.00  0.00    +0.064 A 
ATOM      8  C   UNL     1       1.608   3.019   0.032  0.00  0.00    +0.055 A 
ATOM      9  N   UNL     1       2.617   3.942  -0.141  0.00  0.00    -0.303 N 
ATOM     10  C   UNL     1       3.867   3.552  -0.444  0.00  0.00    +0.253 A 
ATOM     11  O   UNL     1       4.734   4.396  -0.589  0.00  0.00    -0.267 OA
ATOM     12  F   UNL     1      -1.933   2.869   0.815  0.00  0.00    -0.205 F 
ENDROOT
BRANCH   1  13
ATOM     13  C   UNL     1       5.615   1.798  -0.937  0.00  0.00    -0.041 C 
BRANCH  13  14
ATOM     14  N   UNL     1       5.798   1.867  -2.400  0.00  0.00    +0.384 N 
ATOM     15  H   UNL     1       5.139   1.225  -2.854  0.00  0.00    -0.085 HD
ATOM     16  H   UNL     1       5.617   2.826  -2.718  0.00  0.00    -0.085 HD
BRANCH  14  22
ATOM     17  C   UNL     1      10.342   2.117  -5.302  0.00  0.00    +0.403 C 
ATOM     18  O   UNL     1      10.333   1.584  -6.394  0.00  0.00    -0.226 OA
ATOM     19  N   UNL     1       9.525   1.671  -4.328  0.00  0.00    -0.268 N 
ATOM     20  C   UNL     1       8.617   0.542  -4.571  0.00  0.00    +0.109 C 
ATOM     21  C   UNL     1       7.192   0.967  -4.201  0.00  0.00    +0.003 C 
ATOM     22  C   UNL     1       7.177   1.487  -2.762  0.00  0.00    -0.068 C 
ATOM     23  C   UNL     1       8.090   2.711  -2.650  0.00  0.00    +0.003 C 
ATOM     24  C   UNL     1       9.524   2.306  -3.003  0.00  0.00    +0.109 C 
BRANCH  17  25
ATOM     25  O   UNL     1      11.169   3.153  -5.066  0.00  0.00    -0.451 OA
BRANCH  25  27
ATOM     26  C   UNL     1      12.884   4.759  -5.707  0.00  0.00    +0.048 C 
ATOM     27  C   UNL     1      12.022   3.579  -6.162  0.00  0.00    +0.230 C 
ENDBRANCH  25  27
ENDBRANCH  17  25
ENDBRANCH  14  22
ENDBRANCH  13  14
ENDBRANCH   1  13
BRANCH   9  28
ATOM     28  C   UNL     1       2.322   5.370   0.007  0.00  0.00    +0.162 C 
BRANCH  28  29
ATOM     29  C   UNL     1       2.926   5.877   1.291  0.00  0.00    -0.009 A 
ATOM     30  C   UNL     1       4.151   6.517   1.273  0.00  0.00    +0.007 A 
ATOM     31  C   UNL     1       4.706   6.982   2.450  0.00  0.00    +0.000 A 
ATOM     32  C   UNL     1       4.035   6.808   3.647  0.00  0.00    +0.001 A 
ATOM     33  C   UNL     1       2.810   6.168   3.666  0.00  0.00    +0.020 A 
ATOM     34  C   UNL     1       2.252   5.707   2.487  0.00  0.00    +0.046 A 
ATOM     35 CL   UNL     1       0.710   4.910   2.510  0.00  0.00    -0.083 Cl
ENDBRANCH  28  29
ENDBRANCH   9  28
TORSDOF 7
