REMARK  Name = ZINC59895791
REMARK  10 active torsions:
REMARK  status: ('A' for Active; 'I' for Inactive)
REMARK    1  A    between atoms: C_1  and  C_2
REMARK    2  A    between atoms: C_2  and  C_3
REMARK    3  A    between atoms: C_2  and  C_4
REMARK    4  A    between atoms: C_2  and  O_5
REMARK    5  A    between atoms: O_5  and  C_6
REMARK    6  A    between atoms: N_8  and  C_9
REMARK    7  A    between atoms: C_15  and  C_17
REMARK    8  A    between atoms: C_17  and  C_18
REMARK    9  A    between atoms: C_21  and  S_23
REMARK   10  A    between atoms: S_23  and  N_26
REMARK                            x       y       z     vdW  Elec       q    Type
REMARK                         _______ _______ _______ _____ _____    ______ ____
ROOT
ATOM      1  C   UNL     1       4.035  -0.071  -2.601  0.00  0.00    +0.079 C 
ATOM      2  C   UNL     1       4.077   1.309  -3.261  0.00  0.00    +0.041 C 
ATOM      3  C   UNL     1       5.535   1.753  -3.414  0.00  0.00    +0.109 C 
ATOM      4  N   UNL     1       6.273   0.712  -4.143  0.00  0.00    -0.301 N 
ATOM      5  C   UNL     1       6.225  -0.669  -3.644  0.00  0.00    +0.109 C 
ATOM      6  C   UNL     1       4.759  -1.086  -3.490  0.00  0.00    +0.041 C 
ATOM      7  C   UNL     1       6.981   1.019  -5.248  0.00  0.00    +0.220 C 
ATOM      8  O   UNL     1       7.012   2.163  -5.650  0.00  0.00    -0.275 OA
ENDROOT
BRANCH   1  11
ATOM      9  C   UNL     1       1.952  -0.085  -1.337  0.00  0.00    +0.401 C 
ATOM     10  O   UNL     1       2.488   0.619  -0.503  0.00  0.00    -0.226 OA
ATOM     11  N   UNL     1       2.641  -0.485  -2.424  0.00  0.00    -0.278 N 
ATOM     12  H   UNL     1       2.213  -1.047  -3.089  0.00  0.00    +0.152 HD
BRANCH   9  13
ATOM     13  O   UNL     1       0.671  -0.465  -1.174  0.00  0.00    -0.445 OA
BRANCH  13  15
ATOM     14  C   UNL     1      -0.019   1.526   0.010  0.00  0.00    +0.055 C 
ATOM     15  C   UNL     1       0.002  -0.004   0.002  0.00  0.00    +0.107 C 
ATOM     16  C   UNL     1       0.742  -0.511   1.242  0.00  0.00    +0.055 C 
ATOM     17  C   UNL     1      -1.433  -0.534   0.013  0.00  0.00    +0.055 C 
ENDBRANCH  13  15
ENDBRANCH   9  13
ENDBRANCH   1  11
BRANCH   7  18
ATOM     18  C   UNL     1       7.732  -0.060  -5.985  0.00  0.00    +0.138 C 
BRANCH  18  19
ATOM     19  C   UNL     1       8.434   0.541  -7.176  0.00  0.00    +0.000 A 
ATOM     20  C   UNL     1       9.683   1.061  -7.256  0.00  0.00    +0.013 A 
ATOM     21  C   UNL     1      10.124   1.562  -8.467  0.00  0.00    +0.036 A 
ATOM     22  C   UNL     1       9.294   1.518  -9.538  0.00  0.00    +0.143 A 
ATOM     23  S   UNL     1       7.841   0.745  -8.847  0.00  0.00    -0.073 S 
BRANCH  22  24
ATOM     24  S   UNL     1       9.578   2.074 -11.186  0.00  0.00    +0.067 S 
ATOM     25  O   UNL     1       8.300   2.327 -11.754  0.00  0.00    -0.152 OA
ATOM     26  O   UNL     1      10.589   3.068 -11.110  0.00  0.00    -0.152 OA
BRANCH  24  27
ATOM     27  N   UNL     1      10.226   0.802 -12.026  0.00  0.00    -0.176 NA
ATOM     28  C   UNL     1      11.659   0.496 -12.147  0.00  0.00    +0.109 C 
ATOM     29  C   UNL     1      11.787  -0.756 -13.039  0.00  0.00    +0.018 C 
ATOM     30  C   UNL     1      10.454  -0.753 -13.835  0.00  0.00    +0.018 C 
ATOM     31  C   UNL     1       9.461  -0.214 -12.772  0.00  0.00    +0.109 C 
ENDBRANCH  24  27
ENDBRANCH  22  24
ENDBRANCH  18  19
ENDBRANCH   7  18
TORSDOF 7
