REMARK  Name = ZINC51318329
REMARK  13 active torsions:
REMARK  status: ('A' for Active; 'I' for Inactive)
REMARK    1  A    between atoms: C_1  and  C_2
REMARK    2  A    between atoms: C_5  and  C_8
REMARK    3  A    between atoms: C_10  and  C_31
REMARK    4  A    between atoms: C_11  and  C_16
REMARK    5  A    between atoms: C_16  and  N_17
REMARK    6  A    between atoms: C_20  and  N_23
REMARK    7  A    between atoms: C_24  and  O_26
REMARK    8  A    between atoms: O_26  and  C_27
REMARK    9  A    between atoms: C_27  and  C_28
REMARK   10  A    between atoms: C_27  and  C_29
REMARK   11  A    between atoms: C_27  and  C_30
REMARK   12  A    between atoms: C_31  and  O_33
REMARK   13  A    between atoms: O_33  and  C_34
REMARK                            x       y       z     vdW  Elec       q    Type
REMARK                         _______ _______ _______ _____ _____    ______ ____
ROOT
ATOM      1  C   UNL     1       0.283  -5.005  -0.001  0.00  0.00    +0.143 C 
ATOM      2  C   UNL     1      -1.165  -5.438   0.115  0.00  0.00    +0.076 C 
ATOM      3  C   UNL     1      -1.690  -5.548   1.354  0.00  0.00    +0.008 C 
ATOM      4  N   UNL     1      -0.942  -5.279   2.464  0.00  0.00    -0.274 N 
ATOM      5  C   UNL     1       0.340  -4.894   2.420  0.00  0.00    +0.304 C 
ATOM      6  O   UNL     1       0.925  -4.677   3.463  0.00  0.00    -0.252 OA
ATOM      7  N   UNL     1       1.002  -4.739   1.257  0.00  0.00    -0.288 N 
ATOM      8  H   UNL     1      -1.362  -5.372   3.333  0.00  0.00    +0.156 HD
ATOM      9  H   UNL     1       1.930  -4.459   1.248  0.00  0.00    +0.151 HD
ENDROOT
BRANCH   1  14
ATOM     10  C   UNL     1       0.452  -0.199  -3.204  0.00  0.00    +0.044 C 
ATOM     11  C   UNL     1       0.408  -1.452  -2.369  0.00  0.00    -0.050 A 
ATOM     12  C   UNL     1       0.639  -2.682  -2.955  0.00  0.00    +0.004 A 
ATOM     13  C   UNL     1       0.599  -3.832  -2.189  0.00  0.00    +0.006 A 
ATOM     14  C   UNL     1       0.328  -3.752  -0.836  0.00  0.00    -0.022 A 
ATOM     15  C   UNL     1       0.097  -2.521  -0.249  0.00  0.00    +0.006 A 
ATOM     16  C   UNL     1       0.142  -1.371  -1.015  0.00  0.00    +0.004 A 
ENDBRANCH   1  14
BRANCH   2  17
ATOM     17  C   UNL     1      -1.939  -5.716  -1.035  0.00  0.00    +0.338 C 
ATOM     18  O   UNL     1      -3.062  -6.169  -0.918  0.00  0.00    -0.245 OA
BRANCH  17  19
ATOM     19  O   UNL     1      -1.433  -5.478  -2.263  0.00  0.00    -0.465 OA
ATOM     20  C   UNL     1      -2.270  -5.782  -3.381  0.00  0.00    +0.280 C 
ENDBRANCH  17  19
ENDBRANCH   2  17
BRANCH   3  21
ATOM     21  C   UNL     1      -3.127  -5.975   1.515  0.00  0.00    -0.026 C 
BRANCH  21  22
ATOM     22  N   UNL     1      -3.206  -7.442   1.505  0.00  0.00    +0.383 N 
ATOM     23  C   UNL     1      -2.509  -7.976   2.681  0.00  0.00    -0.077 C 
ATOM     24  C   UNL     1      -2.518  -9.505   2.633  0.00  0.00    +0.004 C 
ATOM     25  C   UNL     1      -3.967 -10.002   2.627  0.00  0.00    +0.073 C 
ATOM     26  C   UNL     1      -4.704  -9.379   1.438  0.00  0.00    +0.004 C 
ATOM     27  C   UNL     1      -4.614  -7.855   1.530  0.00  0.00    -0.077 C 
ATOM     28  H   UNL     1      -2.768  -7.795   0.667  0.00  0.00    -0.081 HD
BRANCH  25  29
ATOM     29  N   UNL     1      -3.984 -11.461   2.505  0.00  0.00    -0.278 N 
ATOM     30  C   UNL     1      -5.037 -12.164   2.967  0.00  0.00    +0.401 C 
ATOM     31  O   UNL     1      -5.972 -11.587   3.486  0.00  0.00    -0.226 OA
ATOM     32  H   UNL     1      -3.237 -11.922   2.091  0.00  0.00    +0.152 HD
BRANCH  30  33
ATOM     33  O   UNL     1      -5.053 -13.506   2.855  0.00  0.00    -0.445 OA
BRANCH  33  34
ATOM     34  C   UNL     1      -6.200 -14.186   3.367  0.00  0.00    +0.107 C 
ATOM     35  C   UNL     1      -7.452 -13.697   2.634  0.00  0.00    +0.055 C 
ATOM     36  C   UNL     1      -6.039 -15.692   3.151  0.00  0.00    +0.055 C 
ATOM     37  C   UNL     1      -6.340 -13.897   4.863  0.00  0.00    +0.055 C 
ENDBRANCH  33  34
ENDBRANCH  30  33
ENDBRANCH  25  29
ENDBRANCH  21  22
ENDBRANCH   3  21
TORSDOF 8
