REMARK  Name = ZINC08643762
REMARK  12 active torsions:
REMARK  status: ('A' for Active; 'I' for Inactive)
REMARK    1  A    between atoms: C_1  and  N_61
REMARK    2  A    between atoms: C_2  and  N_61
REMARK    3  A    between atoms: C_3  and  C_4
REMARK    4  A    between atoms: C_3  and  N_61
REMARK    5  A    between atoms: C_4  and  N_5
REMARK    6  A    between atoms: C_6  and  C_8
REMARK    7  A    between atoms: C_8  and  C_9
REMARK    8  A    between atoms: C_11  and  O_30
REMARK    9  A    between atoms: C_13  and  O_29
REMARK   10  A    between atoms: C_15  and  C_18
REMARK   11  A    between atoms: C_18  and  N_19
REMARK   12  A    between atoms: N_22  and  C_23
REMARK                            x       y       z     vdW  Elec       q    Type
REMARK                         _______ _______ _______ _____ _____    ______ ____
ROOT
ATOM      1  C   UNL     1       3.239  -1.043   1.352  0.00  0.00    +0.158 C 
ATOM      2  C   UNL     1       2.895  -2.330   0.578  0.00  0.00    +0.175 C 
ATOM      3  C   UNL     1       1.503  -2.043  -0.036  0.00  0.00    +0.176 C 
ATOM      4  C   UNL     1       1.451  -0.494  -0.015  0.00  0.00    +0.167 C 
ATOM      5  O   UNL     1       2.118  -0.153   1.220  0.00  0.00    -0.366 OA
ENDROOT
BRANCH   3   6
ATOM      6  O   UNL     1       1.425  -2.537  -1.375  0.00  0.00    -0.387 OA
ATOM      7  H   UNL     1       1.454  -3.502  -1.441  0.00  0.00    +0.210 HD
ENDBRANCH   3   6
BRANCH   2   8
ATOM      8  O   UNL     1       3.857  -2.566  -0.453  0.00  0.00    -0.387 OA
ATOM      9  H   UNL     1       3.690  -3.364  -0.972  0.00  0.00    +0.210 HD
ENDBRANCH   2   8
BRANCH   1  10
ATOM     10  C   UNL     1       3.471  -1.371   2.828  0.00  0.00    +0.130 C 
BRANCH  10  12
ATOM     11  N   UNL     1       4.173  -0.175   4.877  0.00  0.00    -0.317 N 
ATOM     12  C   UNL     1       3.909  -0.126   3.557  0.00  0.00    +0.216 C 
ATOM     13  O   UNL     1       4.023   0.921   2.954  0.00  0.00    -0.276 OA
ATOM     14  H   UNL     1       4.081  -1.012   5.359  0.00  0.00    +0.149 HD
BRANCH  11  15
ATOM     15  C   UNL     1       4.598   1.035   5.585  0.00  0.00    +0.085 C 
BRANCH  15  16
ATOM     16  C   UNL     1       4.831   0.707   7.061  0.00  0.00    -0.061 C 
BRANCH  16  19
ATOM     17  C   UNL     1       5.261   1.706   9.224  0.00  0.00    -0.097 C 
ATOM     18  C   UNL     1       6.574   2.370   7.301  0.00  0.00    -0.097 C 
ATOM     19  N   UNL     1       5.238   1.942   7.765  0.00  0.00    +0.377 N 
ATOM     20  H   UNL     1       4.559   2.683   7.558  0.00  0.00    -0.083 HD
ENDBRANCH  16  19
ENDBRANCH  15  16
ENDBRANCH  11  15
ENDBRANCH  10  12
ENDBRANCH   1  10
BRANCH   4  21
ATOM     21  C   UNL     1       0.002  -0.004   0.002  0.00  0.00    +0.140 C 
BRANCH  21  22
ATOM     22  N   UNL     1      -0.018   1.461   0.010  0.00  0.00    -0.297 N 
ATOM     23  C   UNL     1      -1.194   2.119   0.019  0.00  0.00    +0.300 C 
ATOM     24  O   UNL     1      -2.239   1.496   0.021  0.00  0.00    -0.253 OA
ATOM     25  N   UNL     1      -1.212   3.466   0.027  0.00  0.00    -0.297 N 
ATOM     26  H   UNL     1       0.816   1.957   0.005  0.00  0.00    +0.150 HD
ATOM     27  H   UNL     1      -0.379   3.963   0.025  0.00  0.00    +0.151 HD
BRANCH  25  28
ATOM     28  C   UNL     1      -2.491   4.181   0.037  0.00  0.00    +0.074 C 
ATOM     29  C   UNL     1      -3.004   4.329  -1.397  0.00  0.00    +0.022 C 
ATOM     30  C   UNL     1      -4.339   5.075  -1.387  0.00  0.00    +0.002 C 
ATOM     31  C   UNL     1      -4.143   6.462  -0.771  0.00  0.00    +0.000 C 
ATOM     32  C   UNL     1      -3.630   6.315   0.663  0.00  0.00    +0.002 C 
ATOM     33  C   UNL     1      -2.295   5.568   0.653  0.00  0.00    +0.022 C 
ENDBRANCH  25  28
ENDBRANCH  21  22
ENDBRANCH   4  21
TORSDOF 10
