REMARK  Name = ZINC01214414
REMARK  9 active torsions:
REMARK  status: ('A' for Active; 'I' for Inactive)
REMARK    1  A    between atoms: C_1  and  C_2
REMARK    2  A    between atoms: C_2  and  O_3
REMARK    3  A    between atoms: O_3  and  C_4
REMARK    4  A    between atoms: C_9  and  C_10
REMARK    5  A    between atoms: C_15  and  C_20
REMARK    6  A    between atoms: C_23  and  O_28
REMARK    7  A    between atoms: C_24  and  O_26
REMARK    8  A    between atoms: O_26  and  C_27
REMARK    9  A    between atoms: O_28  and  C_29
REMARK                            x       y       z     vdW  Elec       q    Type
REMARK                         _______ _______ _______ _____ _____    ______ ____
ROOT
ATOM      1  C   UNL     1      -1.472  -1.560  -1.240  0.00  0.00    +0.139 C 
ATOM      2  C   UNL     1      -0.467  -2.670  -1.434  0.00  0.00    +0.037 C 
ATOM      3  C   UNL     1       0.694  -2.808  -0.773  0.00  0.00    +0.017 C 
ATOM      4  C   UNL     1       1.629  -3.963  -1.091  0.00  0.00    +0.059 C 
ATOM      5  C   UNL     1       0.816  -5.191  -1.499  0.00  0.00    +0.032 C 
ATOM      6  C   UNL     1      -0.006  -4.817  -2.738  0.00  0.00    +0.088 C 
ATOM      7  C   UNL     1      -0.847  -3.619  -2.412  0.00  0.00    +0.163 C 
ATOM      8  O   UNL     1      -1.893  -3.458  -3.010  0.00  0.00    -0.292 OA
ATOM      9  N   UNL     1       1.139  -1.964   0.192  0.00  0.00    -0.316 N 
ATOM     10  C   UNL     1       1.135  -0.578   0.097  0.00  0.00    +0.052 A 
ATOM     11  C   UNL     1       2.302   0.167   0.106  0.00  0.00    +0.025 A 
ATOM     12  C   UNL     1       2.225   1.549   0.094  0.00  0.00    +0.002 A 
ATOM     13  C   UNL     1       0.995   2.180   0.073  0.00  0.00    +0.002 A 
ATOM     14  C   UNL     1      -0.173   1.437   0.047  0.00  0.00    +0.025 A 
ATOM     15  C   UNL     1      -0.098   0.054   0.042  0.00  0.00    +0.049 A 
ATOM     16  N   UNL     1      -1.241  -0.738  -0.069  0.00  0.00    -0.331 N 
ATOM     17  H   UNL     1       1.486  -2.358   1.008  0.00  0.00    +0.152 HD
ATOM     18  H   UNL     1      -1.892  -0.739   0.650  0.00  0.00    +0.147 HD
ENDROOT
BRANCH   1  24
ATOM     19  C   UNL     1      -2.493   0.204  -2.701  0.00  0.00    +0.126 A 
ATOM     20  C   UNL     1      -2.465   1.020  -3.823  0.00  0.00    +0.046 A 
ATOM     21  C   UNL     1      -1.396   0.957  -4.695  0.00  0.00    +0.004 A 
ATOM     22  C   UNL     1      -0.353   0.082  -4.450  0.00  0.00    +0.001 A 
ATOM     23  C   UNL     1      -0.375  -0.728  -3.330  0.00  0.00    +0.009 A 
ATOM     24  C   UNL     1      -1.445  -0.672  -2.458  0.00  0.00    +0.019 A 
BRANCH  19  25
ATOM     25  O   UNL     1      -3.543   0.264  -1.841  0.00  0.00    -0.492 OA
BRANCH  25  27
ATOM     26  C   UNL     1      -5.674   1.116  -1.081  0.00  0.00    +0.048 C 
ATOM     27  C   UNL     1      -4.586   1.190  -2.155  0.00  0.00    +0.225 C 
ENDBRANCH  25  27
ENDBRANCH  19  25
ENDBRANCH   1  24
BRANCH   5  28
ATOM     28  C   UNL     1       1.744  -6.332  -1.827  0.00  0.00    -0.040 A 
ATOM     29  C   UNL     1       2.666  -6.199  -2.848  0.00  0.00    +0.008 A 
ATOM     30  C   UNL     1       3.523  -7.241  -3.149  0.00  0.00    +0.049 A 
ATOM     31  C   UNL     1       3.452  -8.426  -2.433  0.00  0.00    +0.161 A 
ATOM     32  C   UNL     1       2.520  -8.562  -1.409  0.00  0.00    +0.162 A 
ATOM     33  C   UNL     1       1.667  -7.511  -1.109  0.00  0.00    +0.053 A 
BRANCH  32  34
ATOM     34  O   UNL     1       2.445  -9.723  -0.705  0.00  0.00    -0.491 OA
ATOM     35  C   UNL     1       1.464  -9.790   0.332  0.00  0.00    +0.277 C 
ENDBRANCH  32  34
BRANCH  31  36
ATOM     36  O   UNL     1       4.291  -9.454  -2.732  0.00  0.00    -0.491 OA
ATOM     37  C   UNL     1       5.222  -9.244  -3.796  0.00  0.00    +0.277 C 
ENDBRANCH  31  36
ENDBRANCH   5  28
TORSDOF 6
