REMARK  Name = ZINC32862954
REMARK  8 active torsions:
REMARK  status: ('A' for Active; 'I' for Inactive)
REMARK    1  A    between atoms: C_1  and  C_2
REMARK    2  A    between atoms: C_2  and  C_4
REMARK    3  A    between atoms: C_2  and  N_14
REMARK    4  A    between atoms: C_7  and  S_10
REMARK    5  A    between atoms: S_10  and  N_13
REMARK    6  A    between atoms: N_17  and  C_18
REMARK    7  A    between atoms: C_18  and  C_20
REMARK    8  A    between atoms: C_18  and  C_21
REMARK                            x       y       z     vdW  Elec       q    Type
REMARK                         _______ _______ _______ _____ _____    ______ ____
ROOT
ATOM      1  N   UNL     1      -2.871   4.240   5.851  0.00  0.00    -0.293 N 
ATOM      2  C   UNL     1      -2.927   4.124   7.192  0.00  0.00    +0.301 C 
ATOM      3  O   UNL     1      -3.849   3.528   7.714  0.00  0.00    -0.253 OA
ATOM      4  N   UNL     1      -1.959   4.669   7.957  0.00  0.00    -0.293 N 
ATOM      5  H   UNL     1      -2.036   4.780   5.380  0.00  0.00    +0.151 HD
ATOM      6  H   UNL     1      -1.124   5.208   7.485  0.00  0.00    +0.151 HD
ENDROOT
BRANCH   1   8
ATOM      7  C   UNL     1      -5.096   4.625   4.910  0.00  0.00    +0.033 C 
ATOM      8  C   UNL     1      -3.923   3.648   5.020  0.00  0.00    +0.102 C 
BRANCH   8   9
ATOM      9  C   UNL     1      -3.376   3.362   3.646  0.00  0.00    -0.027 A 
ATOM     10  C   UNL     1      -3.728   2.197   2.990  0.00  0.00    +0.007 A 
ATOM     11  C   UNL     1      -3.227   1.935   1.729  0.00  0.00    +0.029 A 
ATOM     12  C   UNL     1      -2.373   2.838   1.123  0.00  0.00    +0.105 A 
ATOM     13  C   UNL     1      -2.017   4.000   1.781  0.00  0.00    +0.029 A 
ATOM     14  C   UNL     1      -2.522   4.265   3.040  0.00  0.00    +0.007 A 
BRANCH  12  15
ATOM     15  S   UNL     1      -1.734   2.503  -0.484  0.00  0.00    +0.056 S 
ATOM     16  O   UNL     1      -1.782   1.093  -0.655  0.00  0.00    -0.153 OA
ATOM     17  O   UNL     1      -0.527   3.244  -0.604  0.00  0.00    -0.153 OA
BRANCH  15  18
ATOM     18  N   UNL     1      -2.796   3.149  -1.578  0.00  0.00    -0.204 NA
ATOM     19  H   UNL     1      -2.432   2.961  -2.599  0.00  0.00    +0.144 HD
ATOM     20  H   UNL     1      -2.879   4.233  -1.413  0.00  0.00    +0.144 HD
ENDBRANCH  15  18
ENDBRANCH  12  15
ENDBRANCH   8   9
ENDBRANCH   1   8
BRANCH   4  21
ATOM     21  C   UNL     1      -2.019   4.543   9.415  0.00  0.00    +0.103 C 
ATOM     22  C   UNL     1      -1.348   3.236   9.842  0.00  0.00    +0.033 C 
BRANCH  21  23
ATOM     23  C   UNL     1      -1.302   5.706  10.050  0.00  0.00    -0.009 A 
ATOM     24  C   UNL     1      -0.281   6.343   9.369  0.00  0.00    +0.008 A 
ATOM     25  C   UNL     1       0.377   7.410   9.951  0.00  0.00    +0.020 A 
ATOM     26  C   UNL     1       0.015   7.841  11.215  0.00  0.00    +0.042 A 
ATOM     27  C   UNL     1      -1.006   7.204  11.896  0.00  0.00    +0.040 A 
ATOM     28  C   UNL     1      -1.669   6.140  11.311  0.00  0.00    +0.047 A 
ATOM     29 CL   UNL     1      -2.956   5.344  12.162  0.00  0.00    -0.083 Cl
ATOM     30 CL   UNL     1       0.842   9.181  11.945  0.00  0.00    -0.083 Cl
ENDBRANCH  21  23
ENDBRANCH   4  21
TORSDOF 6
