REMARK  Name = ZINC09698149
REMARK  7 active torsions:
REMARK  status: ('A' for Active; 'I' for Inactive)
REMARK    1  A    between atoms: C_1  and  C_2
REMARK    2  A    between atoms: C_2  and  C_3
REMARK    3  A    between atoms: C_3  and  S_4
REMARK    4  A    between atoms: S_4  and  C_5
REMARK    5  A    between atoms: C_17  and  C_20
REMARK    6  A    between atoms: C_17  and  C_21
REMARK    7  A    between atoms: C_21  and  C_22
REMARK                            x       y       z     vdW  Elec       q    Type
REMARK                         _______ _______ _______ _____ _____    ______ ____
ROOT
ATOM      1  C   UNL     1       1.641  -2.747   2.702  0.00  0.00    +0.170 A 
ATOM      2  N   UNL     1       1.838  -4.068   2.987  0.00  0.00    -0.301 N 
ATOM      3  H   UNL     1       1.502  -4.755   2.390  0.00  0.00    +0.171 HD
ATOM      4  C   UNL     1       2.509  -4.408   4.114  0.00  0.00    +0.266 A 
ATOM      5  O   UNL     1       2.703  -5.579   4.399  0.00  0.00    -0.267 OA
ATOM      6  C   UNL     1       2.972  -3.385   4.938  0.00  0.00    +0.103 A 
ATOM      7  C   UNL     1       2.758  -2.033   4.626  0.00  0.00    +0.092 A 
ATOM      8  N   UNL     1       2.077  -1.784   3.467  0.00  0.00    -0.222 NA
ATOM      9  C   UNL     1       3.276  -1.087   5.538  0.00  0.00    +0.015 A 
ATOM     10  C   UNL     1       3.931  -1.557   6.633  0.00  0.00    +0.001 A 
ATOM     11  S   UNL     1       3.871  -3.319   6.467  0.00  0.00    -0.086 S 
ATOM     12  C   UNL     1       4.550  -0.731   7.716  0.00  0.00    +0.077 C 
ATOM     13  C   UNL     1       4.018   0.705   7.566  0.00  0.00    +0.071 C 
ATOM     14  O   UNL     1       4.077   1.077   6.187  0.00  0.00    -0.369 OA
ATOM     15  C   UNL     1       3.129   0.420   5.343  0.00  0.00    +0.198 C 
ATOM     16  C   UNL     1       2.568   0.767   8.052  0.00  0.00    +0.042 C 
ENDROOT
BRANCH  13  17
ATOM     17  C   UNL     1       4.880   1.661   8.393  0.00  0.00    +0.032 C 
ATOM     18  C   UNL     1       4.276   3.065   8.344  0.00  0.00    +0.007 C 
ENDBRANCH  13  17
BRANCH   1  19
ATOM     19  S   UNL     1       0.767  -2.325   1.232  0.00  0.00    -0.088 S 
BRANCH  19  20
ATOM     20  C   UNL     1       0.742  -0.511   1.242  0.00  0.00    +0.077 C 
BRANCH  20  22
ATOM     21  C   UNL     1      -0.019   1.526   0.010  0.00  0.00    +0.004 C 
ATOM     22  C   UNL     1       0.002  -0.004   0.002  0.00  0.00    +0.008 C 
ENDBRANCH  20  22
ENDBRANCH  19  20
ENDBRANCH   1  19
TORSDOF 4
