REMARK  Name = ZINC45830152
REMARK  10 active torsions:
REMARK  status: ('A' for Active; 'I' for Inactive)
REMARK    1  A    between atoms: C_1  and  C_2
REMARK    2  A    between atoms: C_2  and  C_4
REMARK    3  A    between atoms: C_2  and  S_20
REMARK    4  A    between atoms: N_6  and  C_7
REMARK    5  A    between atoms: C_12  and  C_13
REMARK    6  A    between atoms: C_13  and  C_14
REMARK    7  A    between atoms: S_20  and  C_21
REMARK    8  A    between atoms: C_24  and  C_32
REMARK    9  A    between atoms: N_25  and  C_26
REMARK   10  A    between atoms: C_32  and  N_33
REMARK                            x       y       z     vdW  Elec       q    Type
REMARK                         _______ _______ _______ _____ _____    ______ ____
ROOT
ATOM      1  C   UNL     1       0.091   2.397   0.618  0.00  0.00    +0.029 C 
ATOM      2  C   UNL     1       0.358   0.898   0.465  0.00  0.00    +0.137 C 
ENDROOT
BRANCH   2   3
ATOM      3  C   UNL     1       1.249   0.666  -0.728  0.00  0.00    +0.230 C 
ATOM      4  O   UNL     1       0.762   0.395  -1.805  0.00  0.00    -0.274 OA
ATOM      5  N   UNL     1       2.588   0.760  -0.598  0.00  0.00    -0.284 N 
ATOM      6  H   UNL     1       2.974   1.050   0.243  0.00  0.00    +0.155 HD
BRANCH   5   7
ATOM      7  C   UNL     1       3.420   0.439  -1.676  0.00  0.00    +0.037 A 
ATOM      8  C   UNL     1       3.007   0.704  -2.976  0.00  0.00    +0.023 A 
ATOM      9  C   UNL     1       3.831   0.386  -4.038  0.00  0.00    +0.002 A 
ATOM     10  C   UNL     1       5.064  -0.196  -3.809  0.00  0.00    +0.000 A 
ATOM     11  C   UNL     1       5.477  -0.462  -2.516  0.00  0.00    +0.006 A 
ATOM     12  C   UNL     1       4.661  -0.140  -1.449  0.00  0.00    -0.022 A 
BRANCH  12  13
ATOM     13  C   UNL     1       5.115  -0.423  -0.040  0.00  0.00    +0.072 C 
BRANCH  13  14
ATOM     14  C   UNL     1       4.573  -1.758   0.403  0.00  0.00    -0.043 A 
ATOM     15  C   UNL     1       3.341  -1.831   1.026  0.00  0.00    +0.004 A 
ATOM     16  C   UNL     1       2.843  -3.054   1.433  0.00  0.00    +0.000 A 
ATOM     17  C   UNL     1       3.578  -4.205   1.217  0.00  0.00    +0.000 A 
ATOM     18  C   UNL     1       4.809  -4.133   0.593  0.00  0.00    +0.000 A 
ATOM     19  C   UNL     1       5.305  -2.909   0.182  0.00  0.00    +0.004 A 
ENDBRANCH  13  14
ENDBRANCH  12  13
ENDBRANCH   5   7
ENDBRANCH   2   3
BRANCH   2  20
ATOM     20  S   UNL     1      -1.214   0.026   0.225  0.00  0.00    -0.073 S 
BRANCH  20  21
ATOM     21  C   UNL     1      -2.072   0.268   1.744  0.00  0.00    +0.197 A 
ATOM     22  N   UNL     1      -1.641   0.939   2.786  0.00  0.00    -0.122 NA
ATOM     23  N   UNL     1      -2.523   0.912   3.720  0.00  0.00    -0.135 NA
ATOM     24  C   UNL     1      -3.564   0.228   3.335  0.00  0.00    +0.122 A 
ATOM     25  N   UNL     1      -3.317  -0.203   2.059  0.00  0.00    -0.276 N 
BRANCH  25  26
ATOM     26  C   UNL     1      -4.164  -0.971   1.246  0.00  0.00    +0.050 A 
ATOM     27  C   UNL     1      -5.379  -0.450   0.820  0.00  0.00    +0.026 A 
ATOM     28  C   UNL     1      -6.210  -1.208   0.019  0.00  0.00    +0.002 A 
ATOM     29  C   UNL     1      -5.834  -2.484  -0.359  0.00  0.00    +0.000 A 
ATOM     30  C   UNL     1      -4.625  -3.005   0.063  0.00  0.00    +0.002 A 
ATOM     31  C   UNL     1      -3.787  -2.249   0.860  0.00  0.00    +0.026 A 
ENDBRANCH  25  26
BRANCH  24  32
ATOM     32  C   UNL     1      -4.809  -0.034   4.143  0.00  0.00    -0.001 C 
BRANCH  32  33
ATOM     33  N   UNL     1      -4.599  -1.210   4.998  0.00  0.00    +0.384 N 
ATOM     34  C   UNL     1      -3.593  -0.906   6.048  0.00  0.00    -0.078 C 
ATOM     35  C   UNL     1      -3.895  -1.959   7.144  0.00  0.00    -0.020 C 
ATOM     36  C   UNL     1      -5.438  -2.056   7.114  0.00  0.00    -0.020 C 
ATOM     37  C   UNL     1      -5.846  -1.545   5.720  0.00  0.00    -0.078 C 
ATOM     38  H   UNL     1      -4.297  -1.996   4.442  0.00  0.00    -0.081 HD
ENDBRANCH  32  33
ENDBRANCH  24  32
ENDBRANCH  20  21
ENDBRANCH   2  20
TORSDOF 9
