REMARK  Name = ZINC67324329
REMARK  8 active torsions:
REMARK  status: ('A' for Active; 'I' for Inactive)
REMARK    1  A    between atoms: C_1  and  O_2
REMARK    2  A    between atoms: O_2  and  C_3
REMARK    3  A    between atoms: N_5  and  C_6
REMARK    4  A    between atoms: C_8  and  N_13
REMARK    5  A    between atoms: N_16  and  C_17
REMARK    6  A    between atoms: C_17  and  C_18
REMARK    7  A    between atoms: C_18  and  C_20
REMARK    8  A    between atoms: C_18  and  O_28
REMARK                            x       y       z     vdW  Elec       q    Type
REMARK                         _______ _______ _______ _____ _____    ______ ____
ROOT
ATOM      1  N   UNL     1      -6.010  -1.900   0.265  0.00  0.00    -0.269 N 
ATOM      2  C   UNL     1      -7.164  -2.564   0.474  0.00  0.00    +0.304 C 
ATOM      3  O   UNL     1      -7.163  -3.778   0.543  0.00  0.00    -0.253 OA
ATOM      4  N   UNL     1      -8.319  -1.883   0.607  0.00  0.00    -0.296 N 
ATOM      5  H   UNL     1      -6.020  -0.939   0.136  0.00  0.00    +0.156 HD
ATOM      6  H   UNL     1      -8.320  -0.914   0.552  0.00  0.00    +0.150 HD
ENDROOT
BRANCH   1   9
ATOM      7  C   UNL     1      -2.574  -2.871  -0.635  0.00  0.00    +0.073 A 
ATOM      8  C   UNL     1      -3.776  -2.178  -0.607  0.00  0.00    +0.049 A 
ATOM      9  C   UNL     1      -4.796  -2.598   0.234  0.00  0.00    +0.037 A 
ATOM     10  C   UNL     1      -4.613  -3.710   1.045  0.00  0.00    +0.026 A 
ATOM     11  C   UNL     1      -3.416  -4.399   1.017  0.00  0.00    +0.042 A 
ATOM     12  C   UNL     1      -2.398  -3.987   0.175  0.00  0.00    +0.145 A 
ATOM     13  F   UNL     1      -1.231  -4.666   0.145  0.00  0.00    -0.204 F 
BRANCH   7  16
ATOM     14  C   UNL     1      -1.387  -1.140  -1.758  0.00  0.00    +0.404 C 
ATOM     15  O   UNL     1      -2.192  -0.332  -1.339  0.00  0.00    -0.226 OA
ATOM     16  N   UNL     1      -1.542  -2.451  -1.483  0.00  0.00    -0.248 N 
ATOM     17  H   UNL     1      -0.938  -3.103  -1.873  0.00  0.00    +0.158 HD
BRANCH  14  19
ATOM     18  C   UNL     1      -0.239   0.676  -2.751  0.00  0.00    +0.282 C 
ATOM     19  O   UNL     1      -0.341  -0.727  -2.498  0.00  0.00    -0.453 OA
ENDBRANCH  14  19
ENDBRANCH   7  16
ENDBRANCH   1   9
BRANCH   4  20
ATOM     20  C   UNL     1      -9.574  -2.604   0.834  0.00  0.00    +0.141 C 
BRANCH  20  21
ATOM     21  C   UNL     1     -10.725  -1.603   0.948  0.00  0.00    +0.162 C 
BRANCH  21  22
ATOM     22  C   UNL     1     -12.015  -2.346   1.182  0.00  0.00    -0.015 A 
ATOM     23  C   UNL     1     -12.382  -2.705   2.466  0.00  0.00    +0.009 A 
ATOM     24  C   UNL     1     -13.565  -3.386   2.683  0.00  0.00    +0.041 A 
ATOM     25  C   UNL     1     -14.384  -3.709   1.614  0.00  0.00    +0.158 A 
ATOM     26  C   UNL     1     -14.016  -3.348   0.327  0.00  0.00    +0.159 A 
ATOM     27  C   UNL     1     -12.833  -2.662   0.114  0.00  0.00    +0.047 A 
ATOM     28  F   UNL     1     -14.813  -3.663  -0.717  0.00  0.00    -0.202 F 
ATOM     29  F   UNL     1     -15.540  -4.375   1.826  0.00  0.00    -0.202 F 
ENDBRANCH  21  22
BRANCH  21  30
ATOM     30  O   UNL     1     -10.479  -0.718   2.043  0.00  0.00    -0.386 OA
ATOM     31  H   UNL     1     -10.402  -1.163   2.898  0.00  0.00    +0.210 HD
ENDBRANCH  21  30
ENDBRANCH  20  21
ENDBRANCH   4  20
TORSDOF 7
