REMARK  Name = ZINC16846871
REMARK  7 active torsions:
REMARK  status: ('A' for Active; 'I' for Inactive)
REMARK    1  A    between atoms: C_1  and  C_2
REMARK    2  A    between atoms: C_2  and  C_3
REMARK    3  A    between atoms: C_3  and  C_32
REMARK    4  A    between atoms: C_13  and  S_18
REMARK    5  A    between atoms: S_18  and  C_19
REMARK    6  A    between atoms: C_19  and  C_20
REMARK    7  A    between atoms: N_22  and  C_23
REMARK                            x       y       z     vdW  Elec       q    Type
REMARK                         _______ _______ _______ _____ _____    ______ ____
ROOT
ATOM      1  C   UNL     1       0.750  10.558  -0.344  0.00  0.00    +0.071 C 
ATOM      2  C   UNL     1       0.812   9.088   0.082  0.00  0.00    +0.071 C 
ATOM      3  C   UNL     1       2.275   8.653   0.065  0.00  0.00    -0.019 A 
ATOM      4  C   UNL     1       3.250   9.592   0.067  0.00  0.00    +0.021 A 
ATOM      5  S   UNL     1       4.764   8.677   0.043  0.00  0.00    -0.071 S 
ATOM      6  C   UNL     1       4.083   7.037   0.033  0.00  0.00    +0.116 A 
ATOM      7  C   UNL     1       2.698   7.258   0.039  0.00  0.00    +0.056 A 
ATOM      8  C   UNL     1       1.867   6.034   0.039  0.00  0.00    +0.174 A 
ATOM      9  N   UNL     1       0.576   5.811   0.056  0.00  0.00    -0.128 NA
ATOM     10  N   UNL     1       0.356   4.542   0.046  0.00  0.00    -0.122 NA
ATOM     11  C   UNL     1       1.491   3.882   0.021  0.00  0.00    +0.199 A 
ATOM     12  N   UNL     1       2.498   4.810   0.023  0.00  0.00    -0.241 N 
ATOM     13  C   UNL     1       3.864   4.732   0.010  0.00  0.00    +0.202 A 
ATOM     14  N   UNL     1       4.607   5.813   0.015  0.00  0.00    -0.208 NA
ATOM     15  N   UNL     1       4.470   3.497  -0.009  0.00  0.00    -0.328 N 
ATOM     16  C   UNL     1       3.051  11.076   0.084  0.00  0.00    +0.203 C 
ATOM     17  O   UNL     1       1.678  11.333   0.419  0.00  0.00    -0.368 OA
ATOM     18  C   UNL     1       1.101  10.671  -1.829  0.00  0.00    +0.042 C 
ATOM     19  H   UNL     1       3.929   2.692  -0.013  0.00  0.00    +0.145 HD
ATOM     20  H   UNL     1       5.438   3.432  -0.018  0.00  0.00    +0.145 HD
ENDROOT
BRANCH   1  22
ATOM     21  C   UNL     1      -0.764  12.521  -0.656  0.00  0.00    +0.007 C 
ATOM     22  C   UNL     1      -0.665  11.093  -0.116  0.00  0.00    +0.032 C 
ENDBRANCH   1  22
BRANCH  11  23
ATOM     23  S   UNL     1       1.683   2.131  -0.001  0.00  0.00    -0.076 S 
BRANCH  23  24
ATOM     24  C   UNL     1      -0.018   1.503   0.017  0.00  0.00    +0.173 C 
BRANCH  24  25
ATOM     25  C   UNL     1       0.002  -0.004   0.000  0.00  0.00    +0.227 C 
ATOM     26  O   UNL     1       1.060  -0.596  -0.022  0.00  0.00    -0.275 OA
ATOM     27  N   UNL     1      -1.156  -0.694   0.009  0.00  0.00    -0.285 N 
ATOM     28  H   UNL     1      -2.000  -0.224   0.095  0.00  0.00    +0.155 HD
BRANCH  27  29
ATOM     29  C   UNL     1      -1.140  -2.089  -0.104  0.00  0.00    +0.033 A 
ATOM     30  C   UNL     1      -2.156  -2.742  -0.789  0.00  0.00    +0.025 A 
ATOM     31  C   UNL     1      -2.135  -4.119  -0.904  0.00  0.00    +0.022 A 
ATOM     32  C   UNL     1      -1.110  -4.847  -0.327  0.00  0.00    +0.041 A 
ATOM     33  C   UNL     1      -0.099  -4.199   0.361  0.00  0.00    +0.022 A 
ATOM     34  C   UNL     1      -0.112  -2.822   0.474  0.00  0.00    +0.025 A 
ATOM     35 CL   UNL     1      -1.091  -6.577  -0.468  0.00  0.00    -0.084 Cl
ENDBRANCH  27  29
ENDBRANCH  24  25
ENDBRANCH  23  24
ENDBRANCH  11  23
TORSDOF 5
