REMARK  Name = ZINC23478736
REMARK  2 active torsions:
REMARK  status: ('A' for Active; 'I' for Inactive)
REMARK    1  A    between atoms: C_10  and  C_11
REMARK    2  A    between atoms: C_21  and  C_23
REMARK                            x       y       z     vdW  Elec       q    Type
REMARK                         _______ _______ _______ _____ _____    ______ ____
ROOT
ATOM      1  C   UNL     1      -2.033   4.621   3.499  0.00  0.00    +0.074 C 
ATOM      2  C   UNL     1      -1.224   5.803   2.948  0.00  0.00    +0.114 C 
ATOM      3  N   UNL     1      -1.197   5.727   1.480  0.00  0.00    -0.296 N 
ATOM      4  C   UNL     1      -0.516   4.582   0.850  0.00  0.00    +0.146 C 
ATOM      5  C   UNL     1      -0.937   3.342   1.602  0.00  0.00    +0.014 A 
ATOM      6  C   UNL     1      -1.607   3.365   2.782  0.00  0.00    +0.042 A 
ATOM      7  N   UNL     1      -1.806   2.091   3.164  0.00  0.00    -0.281 N 
ATOM      8  H   UNL     1      -2.331   1.875   4.106  0.00  0.00    +0.189 HD
ATOM      9  N   UNL     1      -1.250   1.256   2.183  0.00  0.00    -0.178 NA
ATOM     10  C   UNL     1      -0.724   2.012   1.250  0.00  0.00    +0.074 A 
ATOM     11  C   UNL     1      -1.781   6.681   0.729  0.00  0.00    +0.221 C 
ATOM     12  O   UNL     1      -1.750   6.604  -0.481  0.00  0.00    -0.275 OA
ENDROOT
BRANCH  10  13
ATOM     13  C   UNL     1      -0.019   1.526   0.010  0.00  0.00    +0.016 C 
ATOM     14  C   UNL     1       1.417   2.055  -0.000  0.00  0.00    +0.016 C 
ATOM     15  C   UNL     1       2.133   1.562  -1.259  0.00  0.00    -0.010 C 
ATOM     16  C   UNL     1       2.154   0.032  -1.268  0.00  0.00    +0.007 C 
ATOM     17  C   UNL     1       0.718  -0.497  -1.257  0.00  0.00    -0.010 C 
ATOM     18  C   UNL     1       0.002  -0.004   0.002  0.00  0.00    +0.016 C 
ATOM     19  C   UNL     1      -0.022   0.009  -2.496  0.00  0.00    +0.007 C 
ATOM     20  C   UNL     1      -0.043   1.539  -2.488  0.00  0.00    -0.010 C 
ATOM     21  C   UNL     1       1.393   2.069  -2.499  0.00  0.00    +0.007 C 
ATOM     22  C   UNL     1      -0.759   2.033  -1.229  0.00  0.00    +0.016 C 
ENDBRANCH  10  13
BRANCH  11  23
ATOM     23  C   UNL     1      -2.473   7.845   1.392  0.00  0.00    +0.103 C 
ATOM     24  C   UNL     1      -2.980   8.851   0.331  0.00  0.00    +0.043 C 
ATOM     25  C   UNL     1      -2.654  10.213   0.993  0.00  0.00    +0.160 C 
ATOM     26  O   UNL     1      -1.396   9.972   1.658  0.00  0.00    -0.379 OA
ATOM     27  C   UNL     1      -1.471   8.658   2.235  0.00  0.00    +0.172 C 
ENDBRANCH  11  23
TORSDOF 2
