REMARK  Name = ZINC55462710
REMARK  5 active torsions:
REMARK  status: ('A' for Active; 'I' for Inactive)
REMARK    1  A    between atoms: N_9  and  C_10
REMARK    2  A    between atoms: C_10  and  C_11
REMARK    3  A    between atoms: C_11  and  N_12
REMARK    4  A    between atoms: N_18  and  C_19
REMARK    5  A    between atoms: C_19  and  C_21
REMARK                            x       y       z     vdW  Elec       q    Type
REMARK                         _______ _______ _______ _____ _____    ______ ____
ROOT
ATOM      1  C   UNL     1      -0.015   1.377   0.027  0.00  0.00    +0.002 A 
ATOM      2  C   UNL     1       1.172   2.091   0.030  0.00  0.00    +0.002 A 
ATOM      3  C   UNL     1       2.383   1.429   0.016  0.00  0.00    +0.028 A 
ATOM      4  C   UNL     1       2.412   0.042  -0.002  0.00  0.00    +0.068 A 
ATOM      5  C   UNL     1       1.216  -0.678  -0.005  0.00  0.00    +0.066 A 
ATOM      6  C   UNL     1       0.003  -0.003   0.009  0.00  0.00    +0.028 A 
ATOM      7  N   UNL     1       1.550  -2.029  -0.024  0.00  0.00    -0.326 N 
ATOM      8  C   UNL     1       2.906  -2.132  -0.032  0.00  0.00    +0.201 A 
ATOM      9  N   UNL     1       3.449  -0.885  -0.019  0.00  0.00    -0.314 N 
ATOM     10  N   UNL     1       3.591  -3.270  -0.049  0.00  0.00    -0.142 NA
ATOM     11  H   UNL     1       0.923  -2.769  -0.029  0.00  0.00    +0.169 HD
ENDROOT
BRANCH  10  12
ATOM     12  C   UNL     1       2.948  -4.439   0.053  0.00  0.00    +0.270 C 
ATOM     13  O   UNL     1       1.730  -4.465   0.065  0.00  0.00    -0.268 OA
BRANCH  12  14
ATOM     14  C   UNL     1       3.717  -5.700   0.151  0.00  0.00    +0.039 A 
ATOM     15  C   UNL     1       5.112  -5.672   0.144  0.00  0.00    +0.014 A 
ATOM     16  C   UNL     1       5.824  -6.850   0.236  0.00  0.00    +0.021 A 
ATOM     17  C   UNL     1       5.156  -8.059   0.335  0.00  0.00    +0.041 A 
ATOM     18  C   UNL     1       3.771  -8.093   0.343  0.00  0.00    +0.021 A 
ATOM     19  C   UNL     1       3.050  -6.921   0.258  0.00  0.00    +0.014 A 
ATOM     20 CL   UNL     1       6.058  -9.538   0.449  0.00  0.00    -0.084 Cl
ENDBRANCH  12  14
ENDBRANCH  10  12
BRANCH   9  21
ATOM     21  C   UNL     1       4.880  -0.573  -0.023  0.00  0.00    +0.106 C 
BRANCH  21  22
ATOM     22  C   UNL     1       5.386  -0.481   1.418  0.00  0.00    -0.057 C 
BRANCH  22  23
ATOM     23  N   UNL     1       6.821  -0.168   1.415  0.00  0.00    +0.381 N 
ATOM     24  C   UNL     1       7.562  -1.278   0.804  0.00  0.00    -0.079 C 
ATOM     25  C   UNL     1       9.048  -0.922   0.724  0.00  0.00    -0.019 C 
ATOM     26  C   UNL     1       9.582  -0.665   2.135  0.00  0.00    -0.004 C 
ATOM     27  C   UNL     1       8.755   0.444   2.790  0.00  0.00    -0.019 C 
ATOM     28  C   UNL     1       7.279   0.038   2.794  0.00  0.00    -0.079 C 
ATOM     29  H   UNL     1       6.979   0.674   0.880  0.00  0.00    -0.082 HD
ENDBRANCH  22  23
ENDBRANCH  21  22
ENDBRANCH   9  21
TORSDOF 5
