REMARK  Name = ZINC65357286
REMARK  8 active torsions:
REMARK  status: ('A' for Active; 'I' for Inactive)
REMARK    1  A    between atoms: C_1  and  C_2
REMARK    2  A    between atoms: C_5  and  N_9
REMARK    3  A    between atoms: N_12  and  C_13
REMARK    4  A    between atoms: C_13  and  C_14
REMARK    5  A    between atoms: C_13  and  C_15
REMARK    6  A    between atoms: C_16  and  C_22
REMARK    7  A    between atoms: N_18  and  C_21
REMARK    8  A    between atoms: C_19  and  C_20
REMARK                            x       y       z     vdW  Elec       q    Type
REMARK                         _______ _______ _______ _____ _____    ______ ____
ROOT
ATOM      1  N   UNL     1       0.059  -4.171  -0.023  0.00  0.00    -0.268 N 
ATOM      2  C   UNL     1      -0.039  -4.839  -1.189  0.00  0.00    +0.304 C 
ATOM      3  O   UNL     1      -0.053  -4.229  -2.240  0.00  0.00    -0.252 OA
ATOM      4  N   UNL     1      -0.122  -6.184  -1.190  0.00  0.00    -0.292 N 
ATOM      5  H   UNL     1       0.153  -4.660   0.810  0.00  0.00    +0.156 HD
ATOM      6  H   UNL     1      -0.111  -6.671  -0.351  0.00  0.00    +0.151 HD
ENDROOT
BRANCH   1  11
ATOM      7  C   UNL     1      -0.072   1.502   0.016  0.00  0.00    +0.044 C 
ATOM      8  C   UNL     1      -0.037  -0.005   0.006  0.00  0.00    -0.049 A 
ATOM      9  C   UNL     1      -0.627  -0.702  -1.032  0.00  0.00    +0.005 A 
ATOM     10  C   UNL     1      -0.597  -2.083  -1.045  0.00  0.00    +0.025 A 
ATOM     11  C   UNL     1       0.027  -2.771  -0.013  0.00  0.00    +0.049 A 
ATOM     12  C   UNL     1       0.619  -2.069   1.029  0.00  0.00    +0.039 A 
ATOM     13  C   UNL     1       0.590  -0.687   1.032  0.00  0.00    +0.020 A 
ATOM     14 BR   UNL     1       1.471  -3.001   2.436  0.00  0.00    -0.048 Br
ENDBRANCH   1  11
BRANCH   4  15
ATOM     15  C   UNL     1      -0.229  -6.911  -2.457  0.00  0.00    +0.105 C 
ATOM     16  C   UNL     1       1.169  -7.144  -3.032  0.00  0.00    +0.033 C 
BRANCH  15  17
ATOM     17  C   UNL     1      -0.902  -8.238  -2.220  0.00  0.00    +0.016 A 
ATOM     18  C   UNL     1      -0.625  -9.126  -1.176  0.00  0.00    +0.065 A 
ATOM     19  N   UNL     1      -1.410 -10.165  -1.304  0.00  0.00    -0.176 NA
ATOM     20  N   UNL     1      -2.212  -9.971  -2.436  0.00  0.00    -0.271 N 
ATOM     21  C   UNL     1      -1.885  -8.779  -2.977  0.00  0.00    +0.041 A 
ATOM     22  C   UNL     1      -2.501  -8.162  -4.206  0.00  0.00    +0.065 C 
ATOM     23  C   UNL     1      -3.231 -10.896  -2.939  0.00  0.00    +0.172 C 
ATOM     24  C   UNL     1       0.400  -8.922  -0.090  0.00  0.00    +0.068 C 
ENDBRANCH  15  17
ENDBRANCH   4  15
TORSDOF 3
