REMARK  Name = ZINC28962205
REMARK  4 active torsions:
REMARK  status: ('A' for Active; 'I' for Inactive)
REMARK    1  A    between atoms: C_1  and  C_2
REMARK    2  A    between atoms: N_6  and  C_10
REMARK    3  A    between atoms: C_14  and  C_16
REMARK    4  A    between atoms: C_16  and  N_17
REMARK                            x       y       z     vdW  Elec       q    Type
REMARK                         _______ _______ _______ _____ _____    ______ ____
ROOT
ATOM      1  C   UNL     1       0.002  -0.004   0.002  0.00  0.00    +0.043 A 
ATOM      2  C   UNL     1       1.215  -0.678   0.040  0.00  0.00    +0.024 A 
ATOM      3  C   UNL     1       2.399   0.032   0.032  0.00  0.00    +0.002 A 
ATOM      4  C   UNL     1       2.377   1.415  -0.013  0.00  0.00    +0.005 A 
ATOM      5  C   UNL     1       1.171   2.089  -0.051  0.00  0.00    -0.028 A 
ATOM      6  C   UNL     1      -0.017   1.383  -0.043  0.00  0.00    +0.029 A 
ENDROOT
BRANCH   1  11
ATOM      7  C   UNL     1      -3.356  -2.802   1.559  0.00  0.00    +0.038 C 
ATOM      8  C   UNL     1      -3.218  -1.620   0.597  0.00  0.00    +0.156 C 
ATOM      9  C   UNL     1      -2.084  -0.712   1.028  0.00  0.00    +0.245 C 
ATOM     10  O   UNL     1      -1.990  -0.102   2.071  0.00  0.00    -0.273 OA
ATOM     11  N   UNL     1      -1.201  -0.723   0.009  0.00  0.00    -0.220 N 
ATOM     12  C   UNL     1      -1.619  -1.500  -0.997  0.00  0.00    +0.144 C 
ATOM     13  S   UNL     1      -0.740  -1.732  -2.447  0.00  0.00    -0.018 S 
ATOM     14  N   UNL     1      -2.804  -2.081  -0.740  0.00  0.00    -0.315 N 
ATOM     15  H   UNL     1      -3.446  -2.771  -1.307  0.00  0.00    +0.148 HD
ENDBRANCH   1  11
BRANCH   5  16
ATOM     16  C   UNL     1       1.152   3.595  -0.101  0.00  0.00    +0.143 C 
BRANCH  16  17
ATOM     17  N   UNL     1       1.127   4.128   1.264  0.00  0.00    -0.297 N 
ATOM     18  C   UNL     1      -0.099   4.419   2.017  0.00  0.00    +0.108 C 
ATOM     19  C   UNL     1       0.344   4.526   3.495  0.00  0.00    +0.028 C 
ATOM     20  C   UNL     1       1.827   4.939   3.348  0.00  0.00    +0.097 C 
ATOM     21  C   UNL     1       2.224   4.420   1.984  0.00  0.00    +0.216 C 
ATOM     22  O   UNL     1       3.365   4.285   1.597  0.00  0.00    -0.276 OA
ENDBRANCH  16  17
ENDBRANCH   5  16
TORSDOF 3
