REMARK  Name = ZINC65074640
REMARK  4 active torsions:
REMARK  status: ('A' for Active; 'I' for Inactive)
REMARK    1  A    between atoms: C_6  and  C_7
REMARK    2  A    between atoms: C_7  and  N_8
REMARK    3  A    between atoms: N_17  and  S_20
REMARK    4  A    between atoms: S_20  and  C_23
REMARK                            x       y       z     vdW  Elec       q    Type
REMARK                         _______ _______ _______ _____ _____    ______ ____
ROOT
ATOM      1  N   UNL     1      -1.726  -1.017  -1.368  0.00  0.00    -0.329 N 
ATOM      2  C   UNL     1      -2.886  -1.705  -1.610  0.00  0.00    +0.089 C 
ATOM      3  N   UNL     1      -3.567  -2.115  -0.608  0.00  0.00    -0.374 N 
ATOM      4  C   UNL     1      -4.812  -2.867  -0.726  0.00  0.00    +0.129 C 
ATOM      5  C   UNL     1      -5.382  -2.720  -2.139  0.00  0.00    +0.102 C 
ATOM      6  N   UNL     1      -4.307  -2.995  -3.107  0.00  0.00    -0.303 NA
ATOM      7  C   UNL     1      -3.292  -1.931  -3.039  0.00  0.00    +0.075 C 
ATOM      8  C   UNL     1      -3.873  -0.637  -3.616  0.00  0.00    +0.047 C 
ATOM      9  C   UNL     1      -4.321  -0.883  -5.060  0.00  0.00    +0.111 C 
ATOM     10  N   UNL     1      -3.188  -1.426  -5.822  0.00  0.00    -0.176 NA
ATOM     11  C   UNL     1      -2.497  -2.616  -5.306  0.00  0.00    +0.111 C 
ATOM     12  C   UNL     1      -2.069  -2.350  -3.859  0.00  0.00    +0.047 C 
ATOM     13  H   UNL     1      -1.192  -0.691  -2.108  0.00  0.00    +0.147 HD
ATOM     14  H   UNL     1      -3.896  -3.902  -2.943  0.00  0.00    +0.123 HD
ATOM     15  H   UNL     1      -3.236  -1.916   0.282  0.00  0.00    +0.161 HD
ENDROOT
BRANCH  10  16
ATOM     16  S   UNL     1      -2.700  -0.712  -7.233  0.00  0.00    +0.061 S 
ATOM     17  O   UNL     1      -2.026  -1.713  -7.984  0.00  0.00    -0.153 OA
ATOM     18  O   UNL     1      -3.824  -0.006  -7.741  0.00  0.00    -0.153 OA
BRANCH  16  19
ATOM     19  C   UNL     1      -1.492   0.500  -6.813  0.00  0.00    +0.106 A 
ATOM     20  C   UNL     1      -1.883   1.795  -6.527  0.00  0.00    +0.031 A 
ATOM     21  C   UNL     1      -0.937   2.747  -6.197  0.00  0.00    +0.040 A 
ATOM     22  C   UNL     1       0.404   2.403  -6.153  0.00  0.00    +0.124 A 
ATOM     23  C   UNL     1       0.794   1.106  -6.441  0.00  0.00    +0.040 A 
ATOM     24  C   UNL     1      -0.154   0.155  -6.765  0.00  0.00    +0.031 A 
ATOM     25  F   UNL     1       1.329   3.332  -5.831  0.00  0.00    -0.205 F 
ENDBRANCH  16  19
ENDBRANCH  10  16
BRANCH   1  26
ATOM     26  C   UNL     1      -1.293  -0.775   0.011  0.00  0.00    +0.138 C 
BRANCH  26  32
ATOM     27  C   UNL     1      -0.017   1.378   0.010  0.00  0.00    +0.006 A 
ATOM     28  C   UNL     1       1.171   2.086   0.002  0.00  0.00    +0.020 A 
ATOM     29  C   UNL     1       2.378   1.410  -0.013  0.00  0.00    +0.041 A 
ATOM     30  C   UNL     1       2.396   0.027  -0.021  0.00  0.00    +0.020 A 
ATOM     31  C   UNL     1       1.208  -0.679  -0.013  0.00  0.00    +0.006 A 
ATOM     32  C   UNL     1       0.002  -0.004   0.002  0.00  0.00    -0.030 A 
ATOM     33 CL   UNL     1       3.870   2.298  -0.023  0.00  0.00    -0.084 Cl
ENDBRANCH  26  32
ENDBRANCH   1  26
TORSDOF 4
