REMARK  Name = ZINC20907588
REMARK  9 active torsions:
REMARK  status: ('A' for Active; 'I' for Inactive)
REMARK    1  A    between atoms: C_9  and  O_34
REMARK    2  A    between atoms: C_10  and  C_11
REMARK    3  A    between atoms: N_12  and  N_13
REMARK    4  A    between atoms: C_16  and  S_19
REMARK    5  A    between atoms: S_19  and  C_20
REMARK    6  A    between atoms: C_20  and  C_21
REMARK    7  A    between atoms: C_21  and  C_22
REMARK    8  A    between atoms: N_24  and  C_25
REMARK    9  A    between atoms: C_29  and  N_31
REMARK                            x       y       z     vdW  Elec       q    Type
REMARK                         _______ _______ _______ _____ _____    ______ ____
ROOT
ATOM      1  N   UNL     1       6.885  12.488   0.855  0.00  0.00    -0.205 N 
ATOM      2  C   UNL     1       6.013  11.416   0.738  0.00  0.00    +0.232 A 
ATOM      3  N   UNL     1       4.648  11.491   0.698  0.00  0.00    -0.186 NA
ATOM      4  C   UNL     1       4.160  10.221   0.578  0.00  0.00    +0.210 A 
ATOM      5  N   UNL     1       5.178   9.395   0.550  0.00  0.00    -0.144 NA
ATOM      6  N   UNL     1       6.353  10.153   0.646  0.00  0.00    -0.245 N 
ATOM      7  H   UNL     1       6.491  13.513   0.924  0.00  0.00    +0.177 HD
ATOM      8  H   UNL     1       7.415   9.867   0.655  0.00  0.00    +0.192 HD
ENDROOT
BRANCH   1  10
ATOM      9  C   UNL     1       9.086  13.272   0.993  0.00  0.00    +0.142 C 
ATOM     10  N   UNL     1       8.268  12.267   0.883  0.00  0.00    -0.187 NA
BRANCH   9  20
ATOM     11  C   UNL     1      13.289  16.234   1.376  0.00  0.00    +0.001 A 
ATOM     12  C   UNL     1      11.921  16.494   1.351  0.00  0.00    +0.001 A 
ATOM     13  C   UNL     1      11.018  15.479   1.238  0.00  0.00    +0.009 A 
ATOM     14  C   UNL     1      11.470  14.158   1.145  0.00  0.00    -0.006 A 
ATOM     15  C   UNL     1      12.860  13.890   1.170  0.00  0.00    -0.017 A 
ATOM     16  C   UNL     1      13.763  14.961   1.288  0.00  0.00    +0.008 A 
ATOM     17  C   UNL     1      13.312  12.562   1.078  0.00  0.00    +0.012 A 
ATOM     18  C   UNL     1      12.430  11.533   0.965  0.00  0.00    +0.046 A 
ATOM     19  C   UNL     1      11.053  11.746   0.941  0.00  0.00    +0.126 A 
ATOM     20  C   UNL     1      10.537  13.040   1.022  0.00  0.00    +0.044 A 
BRANCH  19  21
ATOM     21  O   UNL     1      10.208  10.688   0.833  0.00  0.00    -0.506 OA
ATOM     22  H   UNL     1       9.121  10.852   0.813  0.00  0.00    +0.292 HD
ENDBRANCH  19  21
ENDBRANCH   9  20
ENDBRANCH   1  10
BRANCH   4  23
ATOM     23  S   UNL     1       2.459   9.770   0.484  0.00  0.00    -0.084 S 
BRANCH  23  24
ATOM     24  C   UNL     1       2.491   7.962   0.338  0.00  0.00    +0.086 C 
BRANCH  24  25
ATOM     25  C   UNL     1       1.059   7.432   0.247  0.00  0.00    +0.107 C 
BRANCH  25  26
ATOM     26  C   UNL     1       1.085   5.931   0.125  0.00  0.00    +0.218 C 
ATOM     27  O   UNL     1       2.146   5.342   0.112  0.00  0.00    -0.275 OA
ATOM     28  N   UNL     1      -0.069   5.242   0.030  0.00  0.00    -0.285 N 
ATOM     29  H   UNL     1      -1.026   5.779  -0.046  0.00  0.00    +0.155 HD
BRANCH  28  30
ATOM     30  C   UNL     1      -0.051   3.842   0.028  0.00  0.00    +0.036 A 
ATOM     31  C   UNL     1       0.907   3.158   0.766  0.00  0.00    +0.023 A 
ATOM     32  C   UNL     1       0.922   1.777   0.762  0.00  0.00    +0.004 A 
ATOM     33  C   UNL     1      -0.015   1.076   0.025  0.00  0.00    +0.033 A 
ATOM     34  C   UNL     1      -0.966   1.754  -0.715  0.00  0.00    +0.128 A 
ATOM     35  C   UNL     1      -0.990   3.135  -0.711  0.00  0.00    +0.056 A 
BRANCH  34  36
ATOM     36  N   UNL     1      -1.963   0.999  -1.506  0.00  0.00    +0.056 N 
ATOM     37  O   UNL     1      -1.945  -0.218  -1.506  0.00  0.00    -0.126 OA
ATOM     38  O   UNL     1      -2.801   1.596  -2.158  0.00  0.00    -0.126 OA
ENDBRANCH  34  36
ENDBRANCH  28  30
ENDBRANCH  25  26
ENDBRANCH  24  25
ENDBRANCH  23  24
ENDBRANCH   4  23
TORSDOF 9
