REMARK  Name = ZINC43262309
REMARK  12 active torsions:
REMARK  status: ('A' for Active; 'I' for Inactive)
REMARK    1  A    between atoms: C_1  and  C_2
REMARK    2  A    between atoms: C_2  and  N_3
REMARK    3  A    between atoms: N_3  and  C_4
REMARK    4  A    between atoms: N_3  and  C_11
REMARK    5  A    between atoms: C_4  and  C_5
REMARK    6  A    between atoms: N_7  and  C_8
REMARK    7  A    between atoms: C_8  and  C_9
REMARK    8  A    between atoms: C_8  and  C_10
REMARK    9  A    between atoms: C_11  and  C_13
REMARK   10  A    between atoms: C_11  and  C_19
REMARK   11  A    between atoms: C_19  and  C_21
REMARK   12  A    between atoms: C_19  and  N_22
REMARK                            x       y       z     vdW  Elec       q    Type
REMARK                         _______ _______ _______ _____ _____    ______ ____
ROOT
ATOM      1  C   UNL     1       0.149  -0.007  -2.607  0.00  0.00    +0.079 C 
ENDROOT
BRANCH   1   2
ATOM      2  C   UNL     1      -1.187  -0.674  -2.807  0.00  0.00    +0.006 A 
ATOM      3  C   UNL     1      -2.293  -0.199  -3.429  0.00  0.00    +0.014 A 
ATOM      4  C   UNL     1      -3.421  -0.996  -3.494  0.00  0.00    +0.023 A 
ATOM      5  C   UNL     1      -3.386  -2.230  -2.933  0.00  0.00    +0.055 A 
ATOM      6  S   UNL     1      -1.721  -2.298  -2.293  0.00  0.00    -0.085 S 
ATOM      7 BR   UNL     1      -4.747  -3.542  -2.855  0.00  0.00    -0.043 Br
ENDBRANCH   1   2
BRANCH   1   8
ATOM      8  C   UNL     1       1.209  -0.729  -3.441  0.00  0.00    -0.056 C 
ATOM      9  C   UNL     1       0.933  -0.496  -4.928  0.00  0.00    -0.012 C 
BRANCH   8  10
ATOM     10  N   UNL     1       2.539  -0.205  -3.102  0.00  0.00    +0.381 N 
ATOM     11  H   UNL     1       2.757  -0.434  -2.144  0.00  0.00    -0.090 HD
ATOM     12  H   UNL     1       3.229  -0.617  -3.712  0.00  0.00    -0.090 HD
ATOM     13  H   UNL     1       2.545   0.798  -3.217  0.00  0.00    -0.090 HD
ENDBRANCH   8  10
ENDBRANCH   1   8
BRANCH   1  14
ATOM     14  N   UNL     1       0.519  -0.068  -1.186  0.00  0.00    -0.288 NA
BRANCH  14  16
ATOM     15  C   UNL     1      -0.163   2.212  -0.610  0.00  0.00    +0.020 C 
ATOM     16  C   UNL     1      -0.409   0.722  -0.366  0.00  0.00    +0.082 C 
ENDBRANCH  14  16
BRANCH  14  17
ATOM     17  C   UNL     1       0.581  -1.459  -0.718  0.00  0.00    +0.181 C 
BRANCH  17  18
ATOM     18  C   UNL     1       1.442  -1.535   0.517  0.00  0.00    +0.227 C 
ATOM     19  O   UNL     1       1.952  -0.530   0.963  0.00  0.00    -0.274 OA
ATOM     20  N   UNL     1       1.643  -2.721   1.126  0.00  0.00    -0.312 N 
ATOM     21  H   UNL     1       1.235  -3.525   0.769  0.00  0.00    +0.149 HD
BRANCH  20  22
ATOM     22  C   UNL     1       2.479  -2.795   2.327  0.00  0.00    +0.067 C 
ATOM     23  C   UNL     1       2.074  -4.015   3.156  0.00  0.00    +0.027 C 
ATOM     24  C   UNL     1       3.949  -2.921   1.918  0.00  0.00    +0.027 C 
ENDBRANCH  20  22
ENDBRANCH  17  18
ENDBRANCH  14  17
ENDBRANCH   1  14
TORSDOF 8
