REMARK  Name = ZINC03434962
REMARK  8 active torsions:
REMARK  status: ('A' for Active; 'I' for Inactive)
REMARK    1  A    between atoms: C_5  and  N_7
REMARK    2  A    between atoms: C_8  and  C_10
REMARK    3  A    between atoms: C_10  and  O_11
REMARK    4  A    between atoms: O_11  and  C_12
REMARK    5  A    between atoms: C_12  and  C_14
REMARK    6  A    between atoms: C_17  and  N_20
REMARK    7  A    between atoms: N_20  and  S_21
REMARK    8  A    between atoms: S_21  and  C_24
REMARK                            x       y       z     vdW  Elec       q    Type
REMARK                         _______ _______ _______ _____ _____    ______ ____
ROOT
ATOM      1  C   UNL     1      -1.626   2.426  -0.672  0.00  0.00    +0.059 A 
ATOM      2  C   UNL     1      -1.423   3.803  -0.812  0.00  0.00    +0.017 A 
ATOM      3  C   UNL     1      -2.452   4.675  -0.566  0.00  0.00    +0.025 A 
ATOM      4  C   UNL     1      -3.695   4.192  -0.166  0.00  0.00    +0.048 A 
ATOM      5  C   UNL     1      -3.899   2.822  -0.020  0.00  0.00    +0.025 A 
ATOM      6  C   UNL     1      -2.876   1.945  -0.270  0.00  0.00    +0.017 A 
ENDROOT
BRANCH   1   7
ATOM      7  C   UNL     1      -0.524   1.486  -0.943  0.00  0.00    +0.340 C 
ATOM      8  O   UNL     1      -0.701   0.290  -0.816  0.00  0.00    -0.245 OA
BRANCH   7   9
ATOM      9  O   UNL     1       0.678   1.952  -1.335  0.00  0.00    -0.452 OA
BRANCH   9  10
ATOM     10  C   UNL     1       1.715   0.967  -1.589  0.00  0.00    +0.328 C 
BRANCH  10  12
ATOM     11  N   UNL     1       4.082   0.951  -2.306  0.00  0.00    -0.280 N 
ATOM     12  C   UNL     1       2.979   1.669  -2.015  0.00  0.00    +0.255 C 
ATOM     13  O   UNL     1       3.004   2.878  -2.097  0.00  0.00    -0.272 OA
ATOM     14  H   UNL     1       4.085  -0.010  -2.174  0.00  0.00    +0.155 HD
BRANCH  11  19
ATOM     15  C   UNL     1       6.664   3.510  -2.866  0.00  0.00    +0.002 A 
ATOM     16  C   UNL     1       7.486   2.862  -3.770  0.00  0.00    +0.003 A 
ATOM     17  C   UNL     1       7.181   1.581  -4.190  0.00  0.00    +0.040 A 
ATOM     18  C   UNL     1       6.053   0.943  -3.707  0.00  0.00    +0.144 A 
ATOM     19  C   UNL     1       5.226   1.593  -2.798  0.00  0.00    +0.069 A 
ATOM     20  C   UNL     1       5.532   2.882  -2.384  0.00  0.00    +0.026 A 
ATOM     21  F   UNL     1       5.756  -0.309  -4.117  0.00  0.00    -0.204 F 
ENDBRANCH  11  19
ENDBRANCH  10  12
ENDBRANCH   9  10
ENDBRANCH   7   9
ENDBRANCH   1   7
BRANCH   4  22
ATOM     22  N   UNL     1      -4.735   5.079   0.089  0.00  0.00    -0.216 N 
ATOM     23  H   UNL     1      -5.197   5.509  -0.648  0.00  0.00    +0.174 HD
BRANCH  22  24
ATOM     24  S   UNL     1      -5.185   5.402   1.649  0.00  0.00    +0.079 S 
ATOM     25  O   UNL     1      -6.228   6.364   1.580  0.00  0.00    -0.149 OA
ATOM     26  O   UNL     1      -5.348   4.146   2.293  0.00  0.00    -0.149 OA
BRANCH  24  27
ATOM     27  C   UNL     1      -3.820   6.195   2.432  0.00  0.00    +0.147 A 
ATOM     28  C   UNL     1      -3.575   7.519   2.585  0.00  0.00    +0.038 A 
ATOM     29  C   UNL     1      -2.425   7.918   3.241  0.00  0.00    +0.025 A 
ATOM     30  C   UNL     1      -1.576   6.971   3.711  0.00  0.00    +0.057 A 
ATOM     31  S   UNL     1      -2.403   5.463   3.235  0.00  0.00    -0.061 S 
ATOM     32 BR   UNL     1       0.057   7.191   4.639  0.00  0.00    -0.043 Br
ENDBRANCH  24  27
ENDBRANCH  22  24
ENDBRANCH   4  22
TORSDOF 8
