REMARK  Name = ZINC63205762
REMARK  9 active torsions:
REMARK  status: ('A' for Active; 'I' for Inactive)
REMARK    1  A    between atoms: C_1  and  C_2
REMARK    2  A    between atoms: C_2  and  S_3
REMARK    3  A    between atoms: S_3  and  C_4
REMARK    4  A    between atoms: C_11  and  C_13
REMARK    5  A    between atoms: C_13  and  C_14
REMARK    6  A    between atoms: C_14  and  C_15
REMARK    7  A    between atoms: C_23  and  C_25
REMARK    8  A    between atoms: C_28  and  O_31
REMARK    9  A    between atoms: O_31  and  C_32
REMARK                            x       y       z     vdW  Elec       q    Type
REMARK                         _______ _______ _______ _____ _____    ______ ____
ROOT
ATOM      1  C   UNL     1      -2.759  -6.755   5.469  0.00  0.00    -0.034 C 
ATOM      2  C   UNL     1      -4.056  -6.970   5.154  0.00  0.00    -0.000 A 
ATOM      3  C   UNL     1      -4.865  -6.624   3.978  0.00  0.00    +0.010 A 
ATOM      4  C   UNL     1      -6.169  -6.981   3.951  0.00  0.00    +0.001 A 
ATOM      5  C   UNL     1      -6.767  -7.671   5.015  0.00  0.00    +0.002 A 
ATOM      6  C   UNL     1      -6.089  -8.023   6.128  0.00  0.00    +0.026 A 
ATOM      7  C   UNL     1      -4.711  -7.699   6.264  0.00  0.00    +0.043 A 
ATOM      8  N   UNL     1      -3.852  -7.925   7.227  0.00  0.00    -0.374 N 
ATOM      9  C   UNL     1      -2.552  -7.371   6.835  0.00  0.00    +0.137 C 
ATOM     10  H   UNL     1      -4.043  -8.386   8.059  0.00  0.00    +0.161 HD
ENDROOT
BRANCH   9  11
ATOM     11  C   UNL     1      -1.518  -8.465   6.760  0.00  0.00    -0.021 A 
ATOM     12  C   UNL     1      -1.871  -9.717   6.290  0.00  0.00    +0.009 A 
ATOM     13  C   UNL     1      -0.925 -10.721   6.221  0.00  0.00    +0.046 A 
ATOM     14  C   UNL     1       0.379 -10.474   6.623  0.00  0.00    +0.120 A 
ATOM     15  C   UNL     1       0.731  -9.217   7.093  0.00  0.00    +0.046 A 
ATOM     16  C   UNL     1      -0.217  -8.214   7.155  0.00  0.00    +0.009 A 
BRANCH  14  17
ATOM     17  O   UNL     1       1.311 -11.461   6.556  0.00  0.00    -0.495 OA
ATOM     18  C   UNL     1       2.634 -11.134   6.986  0.00  0.00    +0.277 C 
ENDBRANCH  14  17
ENDBRANCH   9  11
BRANCH   1  19
ATOM     19  C   UNL     1      -1.727  -6.050   4.627  0.00  0.00    +0.043 C 
BRANCH  19  20
ATOM     20  C   UNL     1      -2.368  -5.585   3.318  0.00  0.00    +0.100 C 
BRANCH  20  27
ATOM     21  C   UNL     1       0.791  -2.397  -1.350  0.00  0.00    +0.211 C 
ATOM     22  N   UNL     1       1.388  -2.858  -0.076  0.00  0.00    -0.244 N 
ATOM     23  N   UNL     1       0.526  -3.518   0.771  0.00  0.00    -0.162 NA
ATOM     24  C   UNL     1      -0.723  -3.730   0.493  0.00  0.00    +0.180 C 
ATOM     25  S   UNL     1      -0.935  -2.993  -1.121  0.00  0.00    -0.054 S 
ATOM     26  N   UNL     1      -1.676  -4.381   1.271  0.00  0.00    -0.264 N 
ATOM     27  C   UNL     1      -1.336  -4.880   2.476  0.00  0.00    +0.219 C 
ATOM     28  O   UNL     1      -0.199  -4.762   2.882  0.00  0.00    -0.275 OA
ATOM     29  H   UNL     1       2.320  -2.707   0.145  0.00  0.00    +0.170 HD
ATOM     30  H   UNL     1      -2.585  -4.475   0.946  0.00  0.00    +0.157 HD
BRANCH  21  31
ATOM     31  S   UNL     1       0.851  -0.589  -1.490  0.00  0.00    -0.126 S 
BRANCH  31  33
ATOM     32  C   UNL     1      -0.019   1.526   0.010  0.00  0.00    +0.015 C 
ATOM     33  C   UNL     1       0.002  -0.004   0.002  0.00  0.00    +0.068 C 
ENDBRANCH  31  33
ENDBRANCH  21  31
ENDBRANCH  20  27
ENDBRANCH  19  20
ENDBRANCH   1  19
TORSDOF 7
