REMARK  Name = ZINC36146552
REMARK  11 active torsions:
REMARK  status: ('A' for Active; 'I' for Inactive)
REMARK    1  A    between atoms: C_4  and  O_7
REMARK    2  A    between atoms: O_7  and  C_8
REMARK    3  A    between atoms: C_8  and  C_9
REMARK    4  A    between atoms: C_9  and  C_11
REMARK    5  A    between atoms: C_9  and  O_35
REMARK    6  A    between atoms: C_11  and  N_12
REMARK    7  A    between atoms: N_12  and  C_13
REMARK    8  A    between atoms: N_12  and  C_21
REMARK    9  A    between atoms: C_13  and  C_14
REMARK   10  A    between atoms: C_21  and  C_22
REMARK   11  A    between atoms: C_25  and  C_28
REMARK                            x       y       z     vdW  Elec       q    Type
REMARK                         _______ _______ _______ _____ _____    ______ ____
ROOT
ATOM      1  N   UNL     1       6.357  -4.872   0.024  0.00  0.00    +0.387 N 
ATOM      2  H   UNL     1       7.049  -4.678  -0.684  0.00  0.00    -0.081 HD
ENDROOT
BRANCH   1   3
ATOM      3  C   UNL     1       5.072  -4.280  -0.371  0.00  0.00    -0.043 C 
BRANCH   3   4
ATOM      4  C   UNL     1       5.262  -2.787  -0.647  0.00  0.00    +0.135 C 
BRANCH   4   5
ATOM      5  O   UNL     1       6.121  -2.616  -1.776  0.00  0.00    -0.390 OA
ATOM      6  H   UNL     1       5.785  -3.016  -2.590  0.00  0.00    +0.210 HD
ENDBRANCH   4   5
BRANCH   4   7
ATOM      7  C   UNL     1       3.904  -2.145  -0.937  0.00  0.00    +0.258 C 
BRANCH   7   8
ATOM      8  O   UNL     1       4.065  -0.732  -1.079  0.00  0.00    -0.489 OA
BRANCH   8  12
ATOM      9  C   UNL     1       0.669   1.469  -1.877  0.00  0.00    +0.000 A 
ATOM     10  C   UNL     1       1.891   2.105  -1.759  0.00  0.00    +0.004 A 
ATOM     11  C   UNL     1       3.030   1.370  -1.492  0.00  0.00    +0.045 A 
ATOM     12  C   UNL     1       2.946  -0.007  -1.342  0.00  0.00    +0.121 A 
ATOM     13  C   UNL     1       1.719  -0.642  -1.460  0.00  0.00    +0.045 A 
ATOM     14  C   UNL     1       0.583   0.098  -1.728  0.00  0.00    +0.004 A 
ENDBRANCH   8  12
ENDBRANCH   7   8
ENDBRANCH   4   7
ENDBRANCH   3   4
ENDBRANCH   1   3
BRANCH   1  15
ATOM     15  C   UNL     1       6.790  -4.293   1.303  0.00  0.00    -0.043 C 
BRANCH  15  16
ATOM     16  C   UNL     1       5.736  -4.543   2.350  0.00  0.00    -0.063 A 
ATOM     17  C   UNL     1       4.695  -3.647   2.510  0.00  0.00    +0.002 A 
ATOM     18  C   UNL     1       3.728  -3.875   3.470  0.00  0.00    +0.002 A 
ATOM     19  C   UNL     1       3.800  -4.999   4.272  0.00  0.00    +0.020 A 
ATOM     20  C   UNL     1       4.841  -5.896   4.112  0.00  0.00    +0.041 A 
ATOM     21  C   UNL     1       5.806  -5.670   3.146  0.00  0.00    +0.021 A 
ATOM     22 CL   UNL     1       4.934  -7.308   5.118  0.00  0.00    -0.084 Cl
ENDBRANCH  15  16
ENDBRANCH   1  15
BRANCH   1  23
ATOM     23  C   UNL     1       6.202  -6.325   0.172  0.00  0.00    -0.030 C 
BRANCH  23  24
ATOM     24  C   UNL     1       7.577  -6.969   0.360  0.00  0.00    +0.194 C 
ATOM     25  C   UNL     1       7.454  -8.502   0.523  0.00  0.00    +0.104 C 
ATOM     26  C   UNL     1       8.516  -8.811   1.561  0.00  0.00    +0.091 C 
ATOM     27  N   UNL     1       8.862  -7.704   2.127  0.00  0.00    -0.089 NA
ATOM     28  O   UNL     1       8.158  -6.585   1.623  0.00  0.00    -0.392 OA
BRANCH  26  29
ATOM     29  C   UNL     1       9.061 -10.148   1.870  0.00  0.00    -0.000 A 
ATOM     30  C   UNL     1       8.602 -11.269   1.176  0.00  0.00    +0.011 A 
ATOM     31  C   UNL     1       9.115 -12.515   1.469  0.00  0.00    +0.020 A 
ATOM     32  C   UNL     1      10.084 -12.655   2.449  0.00  0.00    +0.041 A 
ATOM     33  C   UNL     1      10.542 -11.547   3.141  0.00  0.00    +0.020 A 
ATOM     34  C   UNL     1      10.041 -10.295   2.853  0.00  0.00    +0.011 A 
ATOM     35 CL   UNL     1      10.724 -14.227   2.813  0.00  0.00    -0.084 Cl
ENDBRANCH  26  29
ENDBRANCH  23  24
ENDBRANCH   1  23
TORSDOF 11
