REMARK  Name = ZINC12749932
REMARK  8 active torsions:
REMARK  status: ('A' for Active; 'I' for Inactive)
REMARK    1  A    between atoms: C_1  and  C_2
REMARK    2  A    between atoms: C_2  and  C_4
REMARK    3  A    between atoms: C_2  and  N_54
REMARK    4  A    between atoms: N_6  and  C_7
REMARK    5  A    between atoms: C_10  and  N_13
REMARK    6  A    between atoms: C_18  and  C_21
REMARK    7  A    between atoms: N_23  and  C_24
REMARK    8  A    between atoms: C_29  and  O_30
REMARK                            x       y       z     vdW  Elec       q    Type
REMARK                         _______ _______ _______ _____ _____    ______ ____
ROOT
ATOM      1  C   UNL     1      -5.824   0.993   0.674  0.00  0.00    -0.077 C 
ATOM      2  C   UNL     1      -4.682   1.925   1.085  0.00  0.00    -0.006 C 
ATOM      3  C   UNL     1      -3.394   1.111   1.237  0.00  0.00    +0.072 C 
ATOM      4  C   UNL     1      -3.092   0.397  -0.084  0.00  0.00    -0.006 C 
ATOM      5  C   UNL     1      -4.280  -0.491  -0.461  0.00  0.00    -0.077 C 
ATOM      6  N   UNL     1      -5.482   0.356  -0.616  0.00  0.00    +0.387 N 
ATOM      7  H   UNL     1      -5.286   1.089  -1.308  0.00  0.00    -0.081 HD
ENDROOT
BRANCH   3   8
ATOM      8  C   UNL     1      -2.253   2.033   1.583  0.00  0.00    +0.220 C 
ATOM      9  O   UNL     1      -2.450   3.224   1.698  0.00  0.00    -0.275 OA
ATOM     10  N   UNL     1      -1.015   1.534   1.766  0.00  0.00    -0.282 N 
ATOM     11  H   UNL     1      -0.842   0.593   1.602  0.00  0.00    +0.155 HD
BRANCH  10  12
ATOM     12  C   UNL     1       0.024   2.374   2.188  0.00  0.00    +0.075 A 
ATOM     13  C   UNL     1      -0.266   3.574   2.821  0.00  0.00    +0.027 A 
ATOM     14  C   UNL     1       0.761   4.401   3.236  0.00  0.00    +0.002 A 
ATOM     15  C   UNL     1       2.077   4.035   3.023  0.00  0.00    +0.004 A 
ATOM     16  C   UNL     1       2.373   2.841   2.393  0.00  0.00    +0.047 A 
ATOM     17  C   UNL     1       1.350   2.003   1.978  0.00  0.00    +0.138 A 
BRANCH  17  18
ATOM     18  O   UNL     1       1.640   0.826   1.363  0.00  0.00    -0.505 OA
ATOM     19  H   UNL     1       1.713   0.892   0.401  0.00  0.00    +0.292 HD
ENDBRANCH  17  18
ENDBRANCH  10  12
ENDBRANCH   3   8
BRANCH   6  21
ATOM     20  C   UNL     1      -6.177  -1.263  -2.318  0.00  0.00    -0.004 C 
ATOM     21  C   UNL     1      -6.617  -0.462  -1.091  0.00  0.00    +0.016 C 
BRANCH  21  22
ATOM     22  C   UNL     1      -7.750   0.456  -1.471  0.00  0.00    +0.203 C 
ATOM     23  O   UNL     1      -7.522   1.607  -1.778  0.00  0.00    -0.277 OA
ATOM     24  N   UNL     1      -9.018  -0.002  -1.469  0.00  0.00    -0.287 N 
ATOM     25  H   UNL     1      -9.209  -0.899  -1.152  0.00  0.00    +0.155 HD
BRANCH  24  26
ATOM     26  C   UNL     1     -10.058   0.816  -1.925  0.00  0.00    +0.033 A 
ATOM     27  C   UNL     1     -10.011   2.187  -1.708  0.00  0.00    +0.025 A 
ATOM     28  C   UNL     1     -11.036   2.992  -2.164  0.00  0.00    +0.034 A 
ATOM     29  C   UNL     1     -12.114   2.433  -2.825  0.00  0.00    +0.126 A 
ATOM     30  C   UNL     1     -12.167   1.068  -3.037  0.00  0.00    +0.034 A 
ATOM     31  C   UNL     1     -11.142   0.258  -2.589  0.00  0.00    +0.025 A 
BRANCH  29  32
ATOM     32  N   UNL     1     -13.214   3.299  -3.307  0.00  0.00    +0.056 N 
ATOM     33  O   UNL     1     -14.165   2.808  -3.889  0.00  0.00    -0.126 OA
ATOM     34  O   UNL     1     -13.169   4.501  -3.121  0.00  0.00    -0.126 OA
ENDBRANCH  29  32
ENDBRANCH  24  26
ENDBRANCH  21  22
ENDBRANCH   6  21
TORSDOF 7
