REMARK  Name = ZINC35498239
REMARK  4 active torsions:
REMARK  status: ('A' for Active; 'I' for Inactive)
REMARK    1  A    between atoms: C_4  and  C_7
REMARK    2  A    between atoms: C_7  and  N_8
REMARK    3  A    between atoms: C_11  and  N_14
REMARK    4  A    between atoms: N_30  and  C_31
REMARK                            x       y       z     vdW  Elec       q    Type
REMARK                         _______ _______ _______ _____ _____    ______ ____
ROOT
ATOM      1  N   UNL     1       5.449  -2.776   4.914  0.00  0.00    -0.296 N 
ATOM      2  C   UNL     1       5.533  -1.660   5.681  0.00  0.00    +0.203 A 
ATOM      3  N   UNL     1       5.912  -1.724   6.930  0.00  0.00    -0.230 NA
ATOM      4  C   UNL     1       6.229  -2.889   7.489  0.00  0.00    +0.116 A 
ATOM      5  C   UNL     1       6.173  -4.096   6.775  0.00  0.00    +0.076 A 
ATOM      6  C   UNL     1       5.748  -3.991   5.410  0.00  0.00    +0.263 A 
ATOM      7  O   UNL     1       5.663  -4.985   4.709  0.00  0.00    -0.267 OA
ATOM      8  C   UNL     1       6.549  -5.299   7.518  0.00  0.00    -0.020 A 
ATOM      9  C   UNL     1       6.913  -5.130   8.807  0.00  0.00    +0.013 A 
ATOM     10  S   UNL     1       6.772  -3.389   9.102  0.00  0.00    -0.072 S 
ATOM     11  C   UNL     1       7.346  -6.194   9.770  0.00  0.00    +0.152 C 
ATOM     12  N   UNL     1       7.083  -7.497   9.128  0.00  0.00    -0.280 N 
ATOM     13  C   UNL     1       7.415  -7.628   7.701  0.00  0.00    +0.114 C 
ATOM     14  C   UNL     1       6.532  -6.686   6.882  0.00  0.00    +0.056 C 
ATOM     15  C   UNL     1       6.559  -8.527   9.822  0.00  0.00    +0.303 C 
ATOM     16  O   UNL     1       6.351  -9.589   9.269  0.00  0.00    -0.253 OA
ATOM     17  N   UNL     1       6.264  -8.378  11.129  0.00  0.00    -0.296 N 
ATOM     18  H   UNL     1       6.429  -7.530  11.569  0.00  0.00    +0.151 HD
ENDROOT
BRANCH   1  22
ATOM     19  N   UNL     1       4.153  -0.953   1.342  0.00  0.00    +0.382 N 
ATOM     20  C   UNL     1       3.203  -1.854   2.005  0.00  0.00    -0.076 C 
ATOM     21  C   UNL     1       3.614  -2.050   3.466  0.00  0.00    +0.006 C 
ATOM     22  C   UNL     1       5.019  -2.657   3.518  0.00  0.00    +0.088 C 
ATOM     23  C   UNL     1       5.987  -1.746   2.760  0.00  0.00    +0.006 C 
ATOM     24  C   UNL     1       5.489  -1.562   1.325  0.00  0.00    -0.076 C 
ATOM     25  H   UNL     1       4.190  -0.078   1.843  0.00  0.00    -0.081 HD
BRANCH  19  26
ATOM     26  C   UNL     1       3.711  -0.707  -0.038  0.00  0.00    -0.043 C 
BRANCH  26  30
ATOM     27  C   UNL     1      -0.017   1.378   0.010  0.00  0.00    +0.000 A 
ATOM     28  C   UNL     1       1.171   2.086   0.002  0.00  0.00    +0.000 A 
ATOM     29  C   UNL     1       2.377   1.411  -0.013  0.00  0.00    +0.002 A 
ATOM     30  C   UNL     1       2.396   0.029  -0.020  0.00  0.00    -0.064 A 
ATOM     31  C   UNL     1       1.208  -0.679  -0.012  0.00  0.00    +0.002 A 
ATOM     32  C   UNL     1       0.002  -0.004   0.002  0.00  0.00    +0.000 A 
ENDBRANCH  26  30
ENDBRANCH  19  26
ENDBRANCH   1  22
BRANCH  17  33
ATOM     33  C   UNL     1       5.694  -9.497  11.883  0.00  0.00    +0.074 C 
ATOM     34  C   UNL     1       4.176  -9.519  11.693  0.00  0.00    +0.022 C 
ATOM     35  C   UNL     1       3.580 -10.688  12.481  0.00  0.00    +0.002 C 
ATOM     36  C   UNL     1       3.906 -10.520  13.966  0.00  0.00    +0.000 C 
ATOM     37  C   UNL     1       5.425 -10.498  14.156  0.00  0.00    +0.002 C 
ATOM     38  C   UNL     1       6.020  -9.330  13.368  0.00  0.00    +0.022 C 
ENDBRANCH  17  33
TORSDOF 4
