REMARK  Name = ZINC03529312
REMARK  5 active torsions:
REMARK  status: ('A' for Active; 'I' for Inactive)
REMARK    1  A    between atoms: C_1  and  C_2
REMARK    2  A    between atoms: N_13  and  C_24
REMARK    3  A    between atoms: C_14  and  S_16
REMARK    4  A    between atoms: S_16  and  C_17
REMARK    5  A    between atoms: C_17  and  C_18
REMARK                            x       y       z     vdW  Elec       q    Type
REMARK                         _______ _______ _______ _____ _____    ______ ____
ROOT
ATOM      1  C   UNL     1      -9.980   7.958   0.013  0.00  0.00    +0.008 C 
ATOM      2  C   UNL     1      -9.051   6.780  -0.289  0.00  0.00    -0.009 C 
ATOM      3  C   UNL     1      -9.474   5.566   0.542  0.00  0.00    +0.008 C 
ATOM      4  C   UNL     1      -8.719   4.324   0.068  0.00  0.00    +0.037 C 
ATOM      5  C   UNL     1      -7.224   4.628   0.062  0.00  0.00    -0.023 A 
ATOM      6  C   UNL     1      -6.780   5.902   0.067  0.00  0.00    -0.004 A 
ATOM      7  S   UNL     1      -5.012   5.773   0.058  0.00  0.00    -0.073 S 
ATOM      8  C   UNL     1      -4.873   4.004   0.047  0.00  0.00    +0.117 A 
ATOM      9  C   UNL     1      -6.210   3.572   0.050  0.00  0.00    +0.076 A 
ATOM     10  C   UNL     1      -6.408   2.155   0.043  0.00  0.00    +0.268 A 
ATOM     11  O   UNL     1      -7.534   1.688   0.045  0.00  0.00    -0.267 OA
ATOM     12  N   UNL     1      -5.334   1.344   0.029  0.00  0.00    -0.253 N 
ATOM     13  C   UNL     1      -4.064   1.851   0.031  0.00  0.00    +0.178 A 
ATOM     14  N   UNL     1      -3.855   3.152   0.037  0.00  0.00    -0.215 NA
ATOM     15  C   UNL     1      -7.607   7.151   0.079  0.00  0.00    +0.046 C 
ENDROOT
BRANCH  12  16
ATOM     16  C   UNL     1      -5.520  -0.045   0.017  0.00  0.00    +0.087 A 
ATOM     17  C   UNL     1      -5.605  -0.746   1.211  0.00  0.00    +0.029 A 
ATOM     18  C   UNL     1      -5.793  -2.115   1.196  0.00  0.00    +0.002 A 
ATOM     19  C   UNL     1      -5.888  -2.789  -0.008  0.00  0.00    +0.003 A 
ATOM     20  C   UNL     1      -5.799  -2.096  -1.201  0.00  0.00    +0.040 A 
ATOM     21  C   UNL     1      -5.615  -0.725  -1.193  0.00  0.00    +0.147 A 
ATOM     22  F   UNL     1      -5.528  -0.047  -2.358  0.00  0.00    -0.203 F 
ENDBRANCH  12  16
BRANCH  13  23
ATOM     23  S   UNL     1      -2.689   0.749   0.019  0.00  0.00    -0.078 S 
BRANCH  23  24
ATOM     24  C   UNL     1      -1.330   1.944   0.019  0.00  0.00    +0.173 C 
BRANCH  24  25
ATOM     25  C   UNL     1      -0.014   1.208   0.009  0.00  0.00    +0.231 C 
ATOM     26  O   UNL     1       0.002  -0.004   0.002  0.00  0.00    -0.274 OA
ATOM     27  N   UNL     1       1.143   1.898   0.001  0.00  0.00    -0.240 N 
ATOM     28  C   UNL     1       2.320   1.240  -0.013  0.00  0.00    +0.303 C 
ATOM     29  O   UNL     1       2.336   0.025  -0.020  0.00  0.00    -0.253 OA
ATOM     30  N   UNL     1       3.478   1.930  -0.021  0.00  0.00    -0.313 N 
ATOM     31  H   UNL     1       1.130   2.868   0.007  0.00  0.00    +0.159 HD
ATOM     32  H   UNL     1       3.465   2.900  -0.015  0.00  0.00    +0.146 HD
ATOM     33  H   UNL     1       4.324   1.456  -0.031  0.00  0.00    +0.146 HD
ENDBRANCH  24  25
ENDBRANCH  23  24
ENDBRANCH  13  23
TORSDOF 4
