REMARK  Name = ZINC39673282
REMARK  8 active torsions:
REMARK  status: ('A' for Active; 'I' for Inactive)
REMARK    1  A    between atoms: C_1  and  C_2
REMARK    2  A    between atoms: C_2  and  C_3
REMARK    3  A    between atoms: C_6  and  C_9
REMARK    4  A    between atoms: C_13  and  C_22
REMARK    5  A    between atoms: N_24  and  C_25
REMARK    6  A    between atoms: C_25  and  C_26
REMARK    7  A    between atoms: C_29  and  O_32
REMARK    8  A    between atoms: O_32  and  C_33
REMARK                            x       y       z     vdW  Elec       q    Type
REMARK                         _______ _______ _______ _____ _____    ______ ____
ROOT
ATOM      1  C   UNL     1       2.695  -1.860  -4.730  0.00  0.00    +0.247 C 
ATOM      2  O   UNL     1       2.051  -2.164  -5.715  0.00  0.00    -0.270 OA
ATOM      3  N   UNL     1       4.038  -1.976  -4.741  0.00  0.00    -0.296 N 
ATOM      4  C   UNL     1       4.975  -1.780  -3.610  0.00  0.00    +0.121 C 
ATOM      5  C   UNL     1       6.036  -2.890  -3.785  0.00  0.00    +0.100 C 
ATOM      6  C   UNL     1       5.990  -3.243  -5.282  0.00  0.00    -0.004 C 
ATOM      7  C   UNL     1       4.910  -2.333  -5.885  0.00  0.00    +0.115 C 
ATOM      8  C   UNL     1       5.602  -4.707  -5.467  0.00  0.00    -0.010 C 
ATOM      9  C   UNL     1       5.619  -5.049  -6.960  0.00  0.00    -0.082 C 
ATOM     10  N   UNL     1       6.960  -4.804  -7.505  0.00  0.00    +0.379 N 
ATOM     11  C   UNL     1       7.288  -3.376  -7.406  0.00  0.00    -0.082 C 
ATOM     12  C   UNL     1       7.341  -2.963  -5.932  0.00  0.00    -0.010 C 
ATOM     13  H   UNL     1       7.637  -5.340  -6.982  0.00  0.00    -0.086 HD
ATOM     14  H   UNL     1       6.985  -5.087  -8.473  0.00  0.00    -0.086 HD
ENDROOT
BRANCH   1  18
ATOM     15  C   UNL     1       0.713  -0.437  -1.253  0.00  0.00    -0.048 A 
ATOM     16  C   UNL     1       0.034  -1.239  -2.154  0.00  0.00    +0.004 A 
ATOM     17  C   UNL     1       0.672  -1.704  -3.285  0.00  0.00    +0.013 A 
ATOM     18  C   UNL     1       2.005  -1.365  -3.520  0.00  0.00    +0.037 A 
ATOM     19  C   UNL     1       2.684  -0.556  -2.608  0.00  0.00    +0.013 A 
ATOM     20  C   UNL     1       2.033  -0.092  -1.483  0.00  0.00    +0.004 A 
BRANCH  15  22
ATOM     21  C   UNL     1      -0.660   1.408  -0.327  0.00  0.00    +0.009 C 
ATOM     22  C   UNL     1       0.010   0.068  -0.019  0.00  0.00    +0.032 C 
ENDBRANCH  15  22
ENDBRANCH   1  18
BRANCH   5  23
ATOM     23  C   UNL     1       7.401  -2.375  -3.407  0.00  0.00    +0.218 C 
ATOM     24  O   UNL     1       7.641  -1.188  -3.470  0.00  0.00    -0.275 OA
ATOM     25  N   UNL     1       8.355  -3.234  -2.998  0.00  0.00    -0.311 N 
ATOM     26  H   UNL     1       8.164  -4.184  -2.947  0.00  0.00    +0.149 HD
BRANCH  25  27
ATOM     27  C   UNL     1       9.682  -2.734  -2.630  0.00  0.00    +0.139 C 
BRANCH  27  28
ATOM     28  C   UNL     1      10.556  -3.889  -2.212  0.00  0.00    -0.030 A 
ATOM     29  C   UNL     1      10.587  -4.287  -0.888  0.00  0.00    +0.009 A 
ATOM     30  C   UNL     1      11.387  -5.345  -0.502  0.00  0.00    +0.046 A 
ATOM     31  C   UNL     1      12.160  -6.008  -1.444  0.00  0.00    +0.127 A 
ATOM     32  C   UNL     1      12.127  -5.607  -2.772  0.00  0.00    +0.046 A 
ATOM     33  C   UNL     1      11.321  -4.552  -3.154  0.00  0.00    +0.009 A 
BRANCH  31  34
ATOM     34  O   UNL     1      12.949  -7.048  -1.067  0.00  0.00    -0.434 OA
BRANCH  34  35
ATOM     35  C   UNL     1      13.717  -7.684  -2.091  0.00  0.00    +0.541 C 
ATOM     36  F   UNL     1      12.858  -8.198  -3.068  0.00  0.00    -0.166 F 
ATOM     37  F   UNL     1      14.581  -6.750  -2.674  0.00  0.00    -0.166 F 
ENDBRANCH  34  35
ENDBRANCH  31  34
ENDBRANCH  27  28
ENDBRANCH  25  27
ENDBRANCH   5  23
TORSDOF 7
