REMARK  Name = ZINC11068499
REMARK  10 active torsions:
REMARK  status: ('A' for Active; 'I' for Inactive)
REMARK    1  A    between atoms: C_1  and  C_2
REMARK    2  A    between atoms: C_15  and  C_17
REMARK    3  A    between atoms: C_17  and  N_61
REMARK    4  A    between atoms: C_18  and  N_61
REMARK    5  A    between atoms: C_19  and  C_20
REMARK    6  A    between atoms: C_19  and  N_61
REMARK    7  A    between atoms: N_22  and  C_23
REMARK    8  A    between atoms: C_28  and  C_29
REMARK    9  A    between atoms: C_29  and  C_30
REMARK   10  A    between atoms: C_29  and  C_31
REMARK                            x       y       z     vdW  Elec       q    Type
REMARK                         _______ _______ _______ _____ _____    ______ ____
ROOT
ATOM      1  C   UNL     1       0.407   3.531  -2.285  0.00  0.00    +0.019 C 
ENDROOT
BRANCH   1  15
ATOM      2  C   UNL     1       0.489   4.070   2.314  0.00  0.00    +0.029 C 
ATOM      3  C   UNL     1       1.628   4.145   1.295  0.00  0.00    +0.087 C 
ATOM      4  C   UNL     1       2.864   3.447   1.863  0.00  0.00    +0.118 C 
ATOM      5  C   UNL     1       3.848   3.157   0.760  0.00  0.00    +0.219 C 
ATOM      6  O   UNL     1       4.844   3.838   0.647  0.00  0.00    -0.275 OA
ATOM      7  N   UNL     1       3.626   2.143  -0.104  0.00  0.00    -0.284 N 
ATOM      8  C   UNL     1       2.435   1.409  -0.048  0.00  0.00    +0.055 A 
ATOM      9  C   UNL     1       2.453   0.025  -0.050  0.00  0.00    +0.025 A 
ATOM     10  C   UNL     1       1.262  -0.679  -0.025  0.00  0.00    +0.002 A 
ATOM     11  C   UNL     1       0.055  -0.004  -0.002  0.00  0.00    +0.002 A 
ATOM     12  C   UNL     1       0.029   1.378   0.006  0.00  0.00    +0.025 A 
ATOM     13  C   UNL     1       1.218   2.090  -0.006  0.00  0.00    +0.058 A 
ATOM     14  N   UNL     1       1.213   3.490   0.053  0.00  0.00    -0.268 N 
ATOM     15  C   UNL     1       0.832   4.220  -1.014  0.00  0.00    +0.204 C 
ATOM     16  O   UNL     1       0.831   5.431  -0.950  0.00  0.00    -0.277 OA
ATOM     17  H   UNL     1       4.297   1.921  -0.768  0.00  0.00    +0.155 HD
ENDBRANCH   1  15
BRANCH   1  19
ATOM     18  C   UNL     1      -1.155   5.283  -2.878  0.00  0.00    -0.095 C 
ATOM     19  N   UNL     1       0.065   4.558  -3.292  0.00  0.00    +0.389 N 
ATOM     20  H   UNL     1       0.841   5.225  -3.365  0.00  0.00    -0.081 HD
BRANCH  19  21
ATOM     21  C   UNL     1      -0.148   3.922  -4.609  0.00  0.00    +0.019 C 
BRANCH  21  22
ATOM     22  C   UNL     1      -0.277   5.000  -5.654  0.00  0.00    +0.201 C 
ATOM     23  O   UNL     1      -0.215   6.168  -5.331  0.00  0.00    -0.278 OA
ATOM     24  N   UNL     1      -0.460   4.668  -6.947  0.00  0.00    -0.287 N 
ATOM     25  H   UNL     1      -0.443   3.736  -7.215  0.00  0.00    +0.155 HD
BRANCH  24  26
ATOM     26  C   UNL     1      -0.674   5.667  -7.903  0.00  0.00    +0.037 A 
ATOM     27  C   UNL     1      -0.037   6.895  -7.781  0.00  0.00    +0.023 A 
ATOM     28  C   UNL     1      -0.247   7.877  -8.729  0.00  0.00    +0.002 A 
ATOM     29  C   UNL     1      -1.099   7.642  -9.793  0.00  0.00    +0.000 A 
ATOM     30  C   UNL     1      -1.738   6.422  -9.914  0.00  0.00    +0.006 A 
ATOM     31  C   UNL     1      -1.529   5.434  -8.972  0.00  0.00    -0.024 A 
BRANCH  31  32
ATOM     32  C   UNL     1      -2.227   4.105  -9.105  0.00  0.00    +0.015 C 
ATOM     33  C   UNL     1      -3.737   4.331  -9.209  0.00  0.00    +0.012 C 
ATOM     34  C   UNL     1      -1.730   3.391 -10.363  0.00  0.00    +0.012 C 
ENDBRANCH  31  32
ENDBRANCH  24  26
ENDBRANCH  21  22
ENDBRANCH  19  21
ENDBRANCH   1  19
TORSDOF 6
