REMARK  Name = ZINC39710311
REMARK  12 active torsions:
REMARK  status: ('A' for Active; 'I' for Inactive)
REMARK    1  A    between atoms: C_1  and  C_2
REMARK    2  A    between atoms: C_9  and  C_14
REMARK    3  A    between atoms: C_14  and  C_16
REMARK    4  A    between atoms: C_14  and  N_26
REMARK    5  A    between atoms: N_21  and  C_22
REMARK    6  A    between atoms: C_22  and  C_23
REMARK    7  A    between atoms: C_22  and  C_24
REMARK    8  A    between atoms: C_22  and  C_25
REMARK    9  A    between atoms: N_26  and  C_27
REMARK   10  A    between atoms: N_26  and  C_34
REMARK   11  A    between atoms: C_27  and  C_28
REMARK   12  A    between atoms: C_34  and  C_35
REMARK                            x       y       z     vdW  Elec       q    Type
REMARK                         _______ _______ _______ _____ _____    ______ ____
ROOT
ATOM      1  C   UNL     1       0.931  -5.540   3.523  0.00  0.00    -0.009 C 
ENDROOT
BRANCH   1  10
ATOM      2  C   UNL     1      -4.293  -8.312   7.528  0.00  0.00    +0.044 C 
ATOM      3  C   UNL     1      -3.630  -7.193   6.766  0.00  0.00    -0.050 A 
ATOM      4  C   UNL     1      -3.946  -5.871   7.082  0.00  0.00    +0.005 A 
ATOM      5  C   UNL     1      -3.389  -4.811   6.440  0.00  0.00    +0.024 A 
ATOM      6  C   UNL     1      -2.453  -5.012   5.410  0.00  0.00    +0.040 A 
ATOM      7  N   UNL     1      -1.913  -3.964   4.787  0.00  0.00    -0.285 N 
ATOM      8  C   UNL     1      -1.028  -4.081   3.811  0.00  0.00    +0.223 C 
ATOM      9  O   UNL     1      -0.569  -3.088   3.280  0.00  0.00    -0.275 OA
ATOM     10  C   UNL     1      -0.588  -5.455   3.359  0.00  0.00    +0.088 C 
ATOM     11  C   UNL     1      -1.199  -6.650   4.064  0.00  0.00    -0.006 C 
ATOM     12  C   UNL     1      -2.100  -6.397   5.055  0.00  0.00    -0.007 A 
ATOM     13  C   UNL     1      -2.734  -7.492   5.791  0.00  0.00    +0.012 A 
ATOM     14  H   UNL     1      -2.182  -3.074   5.062  0.00  0.00    +0.155 HD
ENDBRANCH   1  10
BRANCH   1  15
ATOM     15  C   UNL     1       1.293  -5.387   5.002  0.00  0.00    +0.205 C 
ATOM     16  N   UNL     1       0.521  -6.333   5.819  0.00  0.00    -0.152 NA
ATOM     17  N   UNL     1      -0.177  -5.698   6.613  0.00  0.00    -0.070 NA
ATOM     18  N   UNL     1      -0.019  -4.318   6.489  0.00  0.00    -0.179 N 
ATOM     19  N   UNL     1       0.891  -4.053   5.496  0.00  0.00    -0.183 NA
ATOM     20  H   UNL     1      -0.480  -3.650   7.021  0.00  0.00    +0.191 HD
BRANCH  19  21
ATOM     21  C   UNL     1       2.048  -3.316   6.022  0.00  0.00    +0.035 C 
ATOM     22  C   UNL     1       3.085  -3.136   4.912  0.00  0.00    +0.029 C 
ATOM     23  C   UNL     1       1.593  -1.944   6.523  0.00  0.00    +0.029 C 
ATOM     24  C   UNL     1       2.669  -4.101   7.179  0.00  0.00    +0.029 C 
ENDBRANCH  19  21
ENDBRANCH   1  15
BRANCH   1  25
ATOM     25  N   UNL     1       1.405  -6.842   3.036  0.00  0.00    +0.390 N 
ATOM     26  H   UNL     1       0.779  -7.568   3.351  0.00  0.00    -0.080 HD
BRANCH  25  27
ATOM     27  C   UNL     1       1.441  -6.831   1.567  0.00  0.00    -0.040 C 
BRANCH  27  28
ATOM     28  C   UNL     1       0.035  -6.760   1.030  0.00  0.00    -0.046 A 
ATOM     29  C   UNL     1      -0.850  -7.807   1.238  0.00  0.00    +0.005 A 
ATOM     30  C   UNL     1      -2.134  -7.697   0.726  0.00  0.00    +0.020 A 
ATOM     31  C   UNL     1      -2.486  -6.556   0.031  0.00  0.00    +0.111 A 
ATOM     32  N   UNL     1      -1.618  -5.580  -0.148  0.00  0.00    -0.263 NA
ATOM     33  C   UNL     1      -0.391  -5.647   0.330  0.00  0.00    +0.112 A 
ENDBRANCH  27  28
ENDBRANCH  25  27
BRANCH  25  34
ATOM     34  C   UNL     1       2.754  -7.099   3.557  0.00  0.00    -0.040 C 
BRANCH  34  35
ATOM     35  C   UNL     1       3.208  -8.468   3.122  0.00  0.00    -0.046 A 
ATOM     36  C   UNL     1       2.958  -9.567   3.923  0.00  0.00    +0.003 A 
ATOM     37  C   UNL     1       3.374 -10.823   3.524  0.00  0.00    +0.000 A 
ATOM     38  C   UNL     1       4.042 -10.981   2.324  0.00  0.00    +0.001 A 
ATOM     39  C   UNL     1       4.293  -9.884   1.522  0.00  0.00    +0.020 A 
ATOM     40  C   UNL     1       3.872  -8.627   1.918  0.00  0.00    +0.042 A 
ATOM     41 CL   UNL     1       4.181  -7.249   0.909  0.00  0.00    -0.083 Cl
ENDBRANCH  34  35
ENDBRANCH  25  34
ENDBRANCH   1  25
TORSDOF 8
