REMARK  Name = ZINC12211395
REMARK  13 active torsions:
REMARK  status: ('A' for Active; 'I' for Inactive)
REMARK    1  A    between atoms: C_1  and  C_2
REMARK    2  A    between atoms: C_4  and  C_11
REMARK    3  A    between atoms: C_5  and  C_10
REMARK    4  A    between atoms: C_7  and  O_8
REMARK    5  A    between atoms: O_8  and  C_9
REMARK    6  A    between atoms: C_11  and  N_67
REMARK    7  A    between atoms: C_15  and  C_31
REMARK    8  A    between atoms: C_16  and  O_23
REMARK    9  A    between atoms: O_23  and  C_24
REMARK   10  A    between atoms: C_24  and  C_25
REMARK   11  A    between atoms: C_25  and  C_26
REMARK   12  A    between atoms: C_31  and  O_33
REMARK   13  A    between atoms: O_33  and  C_34
REMARK                            x       y       z     vdW  Elec       q    Type
REMARK                         _______ _______ _______ _____ _____    ______ ____
ROOT
ATOM      1  C   UNL     1       0.544   0.374  -2.065  0.00  0.00    -0.072 C 
ATOM      2  C   UNL     1       2.006   0.476  -1.634  0.00  0.00    +0.036 C 
ATOM      3  C   UNL     1       2.232   1.665  -0.732  0.00  0.00    +0.038 A 
ATOM      4  C   UNL     1       3.491   2.249  -0.774  0.00  0.00    +0.120 A 
ATOM      5  C   UNL     1       3.788   3.385   0.099  0.00  0.00    +0.141 A 
ATOM      6  C   UNL     1       2.792   3.821   0.950  0.00  0.00    +0.116 A 
ATOM      7  C   UNL     1       1.553   3.180   0.925  0.00  0.00    +0.255 A 
ATOM      8  O   UNL     1       0.679   3.555   1.689  0.00  0.00    -0.268 OA
ATOM      9  N   UNL     1       1.287   2.156   0.080  0.00  0.00    -0.313 N 
ATOM     10  C   UNL     1      -0.083   1.633   0.100  0.00  0.00    +0.106 C 
ATOM     11  C   UNL     1      -0.091   0.110   0.250  0.00  0.00    -0.056 C 
ATOM     12  N   UNL     1      -0.151  -0.495  -1.093  0.00  0.00    +0.384 N 
ATOM     13  H   UNL     1       0.316  -1.410  -1.069  0.00  0.00    -0.081 HD
ENDROOT
BRANCH   4  14
ATOM     14  C   UNL     1       4.519   1.728  -1.689  0.00  0.00    +0.344 C 
ATOM     15  O   UNL     1       4.748   2.303  -2.735  0.00  0.00    -0.245 OA
BRANCH  14  16
ATOM     16  O   UNL     1       5.206   0.615  -1.367  0.00  0.00    -0.464 OA
ATOM     17  C   UNL     1       6.205   0.159  -2.317  0.00  0.00    +0.280 C 
ENDBRANCH  14  16
ENDBRANCH   4  14
BRANCH  12  18
ATOM     18  C   UNL     1      -1.560  -0.685  -1.501  0.00  0.00    -0.043 C 
BRANCH  18  22
ATOM     19  C   UNL     1      -4.489  -2.661   2.042  0.00  0.00    +0.047 C 
ATOM     20  C   UNL     1      -3.514  -2.838   0.906  0.00  0.00    -0.009 A 
ATOM     21  C   UNL     1      -3.006  -1.732   0.253  0.00  0.00    +0.009 A 
ATOM     22  C   UNL     1      -2.112  -1.894  -0.789  0.00  0.00    -0.061 A 
ATOM     23  C   UNL     1      -1.727  -3.162  -1.183  0.00  0.00    -0.046 A 
ATOM     24  C   UNL     1      -2.227  -4.271  -0.528  0.00  0.00    +0.049 A 
ATOM     25  C   UNL     1      -3.125  -4.112   0.517  0.00  0.00    +0.123 A 
ATOM     26  C   UNL     1      -0.757  -3.335  -2.323  0.00  0.00    +0.044 C 
BRANCH  25  27
ATOM     27  O   UNL     1      -3.623  -5.201   1.158  0.00  0.00    -0.495 OA
ATOM     28  C   UNL     1      -3.179  -6.481   0.704  0.00  0.00    +0.277 C 
ENDBRANCH  25  27
ENDBRANCH  18  22
ENDBRANCH  12  18
BRANCH   5  29
ATOM     29  O   UNL     1       4.998   3.990   0.072  0.00  0.00    -0.491 OA
BRANCH  29  30
ATOM     30  C   UNL     1       5.194   5.091   0.962  0.00  0.00    +0.234 C 
BRANCH  30  31
ATOM     31  C   UNL     1       6.611   5.640   0.790  0.00  0.00    +0.076 C 
BRANCH  31  32
ATOM     32  C   UNL     1       6.817   6.802   1.728  0.00  0.00    -0.037 A 
ATOM     33  C   UNL     1       6.526   8.091   1.322  0.00  0.00    +0.011 A 
ATOM     34  C   UNL     1       6.717   9.112   2.192  0.00  0.00    +0.045 A 
ATOM     35  S   UNL     1       7.339   8.260   3.632  0.00  0.00    -0.105 S 
ATOM     36  C   UNL     1       7.295   6.599   2.980  0.00  0.00    +0.049 A 
ENDBRANCH  31  32
ENDBRANCH  30  31
ENDBRANCH  29  30
ENDBRANCH   5  29
TORSDOF 9
