REMARK  Name = ZINC15205645
REMARK  14 active torsions:
REMARK  status: ('A' for Active; 'I' for Inactive)
REMARK    1  A    between atoms: C_3  and  O_10
REMARK    2  A    between atoms: C_6  and  N_7
REMARK    3  A    between atoms: O_10  and  C_11
REMARK    4  A    between atoms: C_13  and  O_42
REMARK    5  A    between atoms: C_15  and  O_41
REMARK    6  A    between atoms: C_17  and  O_24
REMARK    7  A    between atoms: C_19  and  C_22
REMARK    8  A    between atoms: C_22  and  O_23
REMARK    9  A    between atoms: O_24  and  C_25
REMARK   10  A    between atoms: C_27  and  O_40
REMARK   11  A    between atoms: C_29  and  O_39
REMARK   12  A    between atoms: C_31  and  O_38
REMARK   13  A    between atoms: C_33  and  C_36
REMARK   14  A    between atoms: C_36  and  O_37
REMARK                            x       y       z     vdW  Elec       q    Type
REMARK                         _______ _______ _______ _____ _____    ______ ____
ROOT
ATOM      1  C   UNL     1      -0.067   7.632   4.577  0.00  0.00    +0.339 C 
ATOM      2  C   UNL     1       0.693   6.343   4.902  0.00  0.00    +0.214 C 
ATOM      3  C   UNL     1       1.225   5.730   3.603  0.00  0.00    +0.180 C 
ATOM      4  C   UNL     1       0.052   5.490   2.647  0.00  0.00    +0.184 C 
ATOM      5  C   UNL     1      -0.683   6.812   2.409  0.00  0.00    +0.179 C 
ATOM      6  O   UNL     1      -1.124   7.341   3.660  0.00  0.00    -0.331 OA
ENDROOT
BRANCH   3   7
ATOM      7  O   UNL     1       2.158   6.629   2.999  0.00  0.00    -0.386 OA
ATOM      8  H   UNL     1       2.927   6.826   3.550  0.00  0.00    +0.210 HD
ENDBRANCH   3   7
BRANCH   2   9
ATOM      9  O   UNL     1       1.786   6.640   5.773  0.00  0.00    -0.383 OA
ATOM     10  H   UNL     1       1.522   7.035   6.615  0.00  0.00    +0.210 HD
ENDBRANCH   2   9
BRANCH   1  11
ATOM     11  O   UNL     1      -0.614   8.178   5.779  0.00  0.00    -0.461 OA
BRANCH  11  14
ATOM     12  C   UNL     1      -2.419  11.197   6.708  0.00  0.00    +0.036 A 
ATOM     13  C   UNL     1      -1.789   9.972   6.809  0.00  0.00    +0.048 A 
ATOM     14  C   UNL     1      -1.235   9.383   5.682  0.00  0.00    +0.124 A 
ATOM     15  C   UNL     1      -1.311  10.029   4.456  0.00  0.00    +0.048 A 
ATOM     16  C   UNL     1      -1.946  11.252   4.360  0.00  0.00    +0.036 A 
ATOM     17  C   UNL     1      -2.498  11.837   5.485  0.00  0.00    +0.126 A 
BRANCH  17  18
ATOM     18  N   UNL     1      -3.173  13.149   5.379  0.00  0.00    +0.056 N 
ATOM     19  O   UNL     1      -3.659  13.666   6.370  0.00  0.00    -0.126 OA
ATOM     20  O   UNL     1      -3.243  13.714   4.302  0.00  0.00    -0.126 OA
ENDBRANCH  17  18
ENDBRANCH  11  14
ENDBRANCH   1  11
BRANCH   5  21
ATOM     21  C   UNL     1      -1.891   6.567   1.503  0.00  0.00    +0.190 C 
BRANCH  21  22
ATOM     22  O   UNL     1      -2.509   7.816   1.187  0.00  0.00    -0.392 OA
ATOM     23  H   UNL     1      -3.284   7.738   0.614  0.00  0.00    +0.210 HD
ENDBRANCH  21  22
ENDBRANCH   5  21
BRANCH   4  24
ATOM     24  O   UNL     1       0.545   4.987   1.403  0.00  0.00    -0.340 OA
BRANCH  24  25
ATOM     25  C   UNL     1       0.628   3.562   1.344  0.00  0.00    +0.282 C 
ATOM     26  C   UNL     1       1.392   3.146   0.084  0.00  0.00    +0.201 C 
ATOM     27  C   UNL     1       1.424   1.617  -0.003  0.00  0.00    +0.179 C 
ATOM     28  C   UNL     1      -0.013   1.086   0.008  0.00  0.00    +0.177 C 
ATOM     29  C   UNL     1      -0.722   1.581   1.271  0.00  0.00    +0.178 C 
ATOM     30  O   UNL     1      -0.689   3.009   1.305  0.00  0.00    -0.341 OA
BRANCH  28  31
ATOM     31  O   UNL     1      -0.706   1.560  -1.148  0.00  0.00    -0.386 OA
ATOM     32  H   UNL     1      -0.309   1.285  -1.985  0.00  0.00    +0.210 HD
ENDBRANCH  28  31
BRANCH  27  33
ATOM     33  O   UNL     1       2.071   1.221  -1.214  0.00  0.00    -0.386 OA
ATOM     34  H   UNL     1       2.986   1.524  -1.288  0.00  0.00    +0.210 HD
ENDBRANCH  27  33
BRANCH  26  35
ATOM     35  O   UNL     1       0.735   3.677  -1.069  0.00  0.00    -0.384 OA
ATOM     36  H   UNL     1       0.678   4.642  -1.080  0.00  0.00    +0.210 HD
ENDBRANCH  26  35
BRANCH  29  37
ATOM     37  C   UNL     1      -2.176   1.104   1.260  0.00  0.00    +0.190 C 
BRANCH  37  38
ATOM     38  O   UNL     1      -2.805   1.466   2.491  0.00  0.00    -0.392 OA
ATOM     39  H   UNL     1      -3.731   1.194   2.554  0.00  0.00    +0.210 HD
ENDBRANCH  37  38
ENDBRANCH  29  37
ENDBRANCH  24  25
ENDBRANCH   4  24
TORSDOF 14
