REMARK  Name = ZINC39851666
REMARK  12 active torsions:
REMARK  status: ('A' for Active; 'I' for Inactive)
REMARK    1  A    between atoms: C_1  and  C_2
REMARK    2  A    between atoms: C_2  and  C_3
REMARK    3  A    between atoms: C_3  and  N_4
REMARK    4  A    between atoms: C_5  and  N_25
REMARK    5  A    between atoms: C_6  and  C_14
REMARK    6  A    between atoms: C_7  and  C_13
REMARK    7  A    between atoms: C_8  and  C_11
REMARK    8  A    between atoms: N_18  and  C_22
REMARK    9  A    between atoms: C_22  and  C_23
REMARK   10  A    between atoms: C_23  and  C_24
REMARK   11  A    between atoms: N_25  and  C_26
REMARK   12  A    between atoms: C_26  and  C_27
REMARK                            x       y       z     vdW  Elec       q    Type
REMARK                         _______ _______ _______ _____ _____    ______ ____
ROOT
ATOM      1  N   UNL     1      -1.543  -1.934  -0.047  0.00  0.00    -0.295 N 
ATOM      2  C   UNL     1      -1.385  -2.605  -1.217  0.00  0.00    +0.109 A 
ATOM      3  C   UNL     1      -1.679  -3.975  -1.300  0.00  0.00    +0.019 A 
ATOM      4  C   UNL     1      -2.141  -4.653  -0.159  0.00  0.00    -0.017 A 
ATOM      5  C   UNL     1      -2.295  -3.943   1.029  0.00  0.00    +0.120 A 
ATOM      6  C   UNL     1      -1.978  -2.561   1.061  0.00  0.00    +0.270 A 
ATOM      7  O   UNL     1      -2.106  -1.935   2.099  0.00  0.00    -0.266 OA
ATOM      8  C   UNL     1      -2.465  -6.123  -0.219  0.00  0.00    +0.046 C 
ENDROOT
BRANCH   3   9
ATOM      9  C   UNL     1      -1.507  -4.692  -2.564  0.00  0.00    +0.032 C 
ATOM     10  C   UNL     1      -0.555  -5.659  -2.675  0.00  0.00    +0.077 C 
ATOM     11  C   UNL     1       0.369  -6.139  -1.698  0.00  0.00    +0.258 C 
ATOM     12  O   UNL     1       0.387  -5.678  -0.571  0.00  0.00    -0.269 OA
ATOM     13  N   UNL     1       1.206  -7.098  -2.054  0.00  0.00    -0.255 N 
ATOM     14  C   UNL     1       1.186  -7.610  -3.305  0.00  0.00    +0.121 C 
ATOM     15  S   UNL     1       2.167  -8.842  -3.976  0.00  0.00    -0.027 S 
ATOM     16  S   UNL     1      -0.128  -6.678  -4.079  0.00  0.00    -0.061 S 
BRANCH  13  17
ATOM     17  C   UNL     1       2.168  -7.615  -1.079  0.00  0.00    +0.115 C 
BRANCH  17  18
ATOM     18  C   UNL     1       1.544  -8.787  -0.318  0.00  0.00    +0.016 C 
ATOM     19  C   UNL     1       2.550  -9.327   0.701  0.00  0.00    +0.005 C 
ENDBRANCH  17  18
ENDBRANCH  13  17
ENDBRANCH   3   9
BRANCH   5  20
ATOM     20  C   UNL     1      -2.763  -4.604   2.210  0.00  0.00    +0.105 C 
ATOM     21  N   UNL     1      -3.135  -5.128   3.147  0.00  0.00    -0.191 NA
ENDBRANCH   5  20
BRANCH   2  22
ATOM     22  N   UNL     1      -0.936  -1.941  -2.321  0.00  0.00    -0.326 N 
ATOM     23  H   UNL     1       0.016  -1.812  -2.456  0.00  0.00    +0.148 HD
BRANCH  22  24
ATOM     24  C   UNL     1      -1.892  -1.424  -3.304  0.00  0.00    +0.138 C 
BRANCH  24  25
ATOM     25  C   UNL     1      -1.143  -0.848  -4.478  0.00  0.00    -0.027 A 
ATOM     26  C   UNL     1      -0.772   0.484  -4.473  0.00  0.00    +0.009 A 
ATOM     27  C   UNL     1      -0.085   1.018  -5.547  0.00  0.00    +0.050 A 
ATOM     28  C   UNL     1       0.234   0.218  -6.632  0.00  0.00    +0.166 A 
ATOM     29  C   UNL     1      -0.140  -1.123  -6.638  0.00  0.00    +0.167 A 
ATOM     30  C   UNL     1      -0.823  -1.653  -5.555  0.00  0.00    +0.054 A 
ATOM     31  O   UNL     1       0.285  -1.690  -7.805  0.00  0.00    -0.453 OA
ATOM     32  C   UNL     1       0.561  -0.587  -8.689  0.00  0.00    +0.466 C 
ATOM     33  O   UNL     1       0.893   0.493  -7.796  0.00  0.00    -0.453 OA
ENDBRANCH  24  25
ENDBRANCH  22  24
ENDBRANCH   2  22
BRANCH   1  34
ATOM     34  C   UNL     1      -1.229  -0.505   0.012  0.00  0.00    +0.126 C 
BRANCH  34  36
ATOM     35  C   UNL     1       0.618   1.167   0.211  0.00  0.00    +0.005 C 
ATOM     36  C   UNL     1       0.268  -0.322   0.273  0.00  0.00    +0.018 C 
ENDBRANCH  34  36
ENDBRANCH   1  34
TORSDOF 9
