REMARK  Name = ZINC16766154
REMARK  10 active torsions:
REMARK  status: ('A' for Active; 'I' for Inactive)
REMARK    1  A    between atoms: C_1  and  C_2
REMARK    2  A    between atoms: C_4  and  N_11
REMARK    3  A    between atoms: C_5  and  O_9
REMARK    4  A    between atoms: O_9  and  C_10
REMARK    5  A    between atoms: C_12  and  C_14
REMARK    6  A    between atoms: C_14  and  C_16
REMARK    7  A    between atoms: C_14  and  O_17
REMARK    8  A    between atoms: O_17  and  C_18
REMARK    9  A    between atoms: C_18  and  C_20
REMARK   10  A    between atoms: C_22  and  N_28
REMARK                            x       y       z     vdW  Elec       q    Type
REMARK                         _______ _______ _______ _____ _____    ______ ____
ROOT
ATOM      1  C   UNL     1       4.842   1.655  -0.048  0.00  0.00    +0.259 C 
ATOM      2  C   UNL     1       5.280   1.369   1.390  0.00  0.00    +0.062 C 
ENDROOT
BRANCH   1   4
ATOM      3  N   UNL     1       7.124   1.881  -0.977  0.00  0.00    -0.280 N 
ATOM      4  C   UNL     1       5.918   2.440  -0.754  0.00  0.00    +0.258 C 
ATOM      5  O   UNL     1       5.698   3.575  -1.122  0.00  0.00    -0.271 OA
ATOM      6  H   UNL     1       7.354   0.888  -0.565  0.00  0.00    +0.155 HD
BRANCH   3  10
ATOM      7  C   UNL     1       8.207   5.237  -4.404  0.00  0.00    +0.045 C 
ATOM      8  C   UNL     1       8.638   4.197  -3.402  0.00  0.00    -0.030 A 
ATOM      9  C   UNL     1       7.689   3.519  -2.660  0.00  0.00    +0.031 A 
ATOM     10  C   UNL     1       8.084   2.566  -1.734  0.00  0.00    +0.076 A 
ATOM     11  C   UNL     1       9.438   2.286  -1.561  0.00  0.00    +0.143 A 
ATOM     12  C   UNL     1      10.384   2.966  -2.312  0.00  0.00    +0.067 A 
ATOM     13  C   UNL     1       9.982   3.920  -3.231  0.00  0.00    +0.047 A 
ATOM     14 CL   UNL     1      11.169   4.770  -4.171  0.00  0.00    -0.083 Cl
BRANCH  11  15
ATOM     15  O   UNL     1       9.831   1.349  -0.658  0.00  0.00    -0.493 OA
ATOM     16  C   UNL     1      11.235   1.115  -0.535  0.00  0.00    +0.277 C 
ENDBRANCH  11  15
ENDBRANCH   3  10
ENDBRANCH   1   4
BRANCH   1  17
ATOM     17  O   UNL     1       3.611   2.424  -0.035  0.00  0.00    -0.448 OA
BRANCH  17  18
ATOM     18  C   UNL     1       2.457   1.730  -0.038  0.00  0.00    +0.360 C 
ATOM     19  O   UNL     1       2.478   0.516  -0.051  0.00  0.00    -0.243 OA
BRANCH  18  20
ATOM     20  C   UNL     1       1.163   2.447  -0.025  0.00  0.00    +0.169 A 
ATOM     21  C   UNL     1      -0.027   1.724  -0.029  0.00  0.00    +0.095 A 
ATOM     22  C   UNL     1      -1.239   2.416  -0.022  0.00  0.00    +0.067 A 
ATOM     23  C   UNL     1      -1.205   3.809  -0.001  0.00  0.00    +0.100 A 
ATOM     24  C   UNL     1       0.020   4.457   0.001  0.00  0.00    +0.150 A 
ATOM     25  N   UNL     1       1.147   3.777  -0.011  0.00  0.00    -0.226 NA
ATOM     26 CL   UNL     1       0.069   6.193   0.019  0.00  0.00    -0.060 Cl
ATOM     27 CL   UNL     1      -2.682   4.722   0.015  0.00  0.00    -0.078 Cl
ATOM     28 CL   UNL     1      -0.003  -0.012  -0.048  0.00  0.00    -0.079 Cl
BRANCH  22  29
ATOM     29  N   UNL     1      -2.452   1.731  -0.030  0.00  0.00    -0.356 N 
ATOM     30  H   UNL     1      -3.399   2.290  -0.025  0.00  0.00    +0.142 HD
ATOM     31  H   UNL     1      -2.462   0.631  -0.043  0.00  0.00    +0.142 HD
ENDBRANCH  22  29
ENDBRANCH  18  20
ENDBRANCH  17  18
ENDBRANCH   1  17
TORSDOF 7
