REMARK  Name = ZINC02379939
REMARK  4 active torsions:
REMARK  status: ('A' for Active; 'I' for Inactive)
REMARK    1  A    between atoms: C_6  and  C_7
REMARK    2  A    between atoms: N_8  and  N_9
REMARK    3  A    between atoms: C_10  and  C_12
REMARK    4  A    between atoms: N_14  and  C_15
REMARK                            x       y       z     vdW  Elec       q    Type
REMARK                         _______ _______ _______ _____ _____    ______ ____
ROOT
ATOM      1  N   UNL     1      -1.203  -0.721  -0.014  0.00  0.00    -0.199 N 
ATOM      2  C   UNL     1      -1.184  -2.068  -0.015  0.00  0.00    +0.318 C 
ATOM      3  O   UNL     1      -0.124  -2.661  -0.032  0.00  0.00    -0.263 OA
ATOM      4  H   UNL     1      -2.050  -0.247   0.000  0.00  0.00    +0.178 HD
ENDROOT
BRANCH   2   5
ATOM      5  C   UNL     1      -2.465  -2.832   0.004  0.00  0.00    +0.305 C 
ATOM      6  O   UNL     1      -3.524  -2.239   0.022  0.00  0.00    -0.265 OA
ATOM      7  N   UNL     1      -2.446  -4.179   0.003  0.00  0.00    -0.276 N 
ATOM      8  H   UNL     1      -1.603  -4.652  -0.077  0.00  0.00    +0.155 HD
BRANCH   7   9
ATOM      9  C   UNL     1      -3.641  -4.895   0.116  0.00  0.00    +0.054 A 
ATOM     10  C   UNL     1      -4.804  -4.403  -0.462  0.00  0.00    +0.044 A 
ATOM     11  C   UNL     1      -5.983  -5.115  -0.352  0.00  0.00    +0.043 A 
ATOM     12  C   UNL     1      -6.008  -6.313   0.342  0.00  0.00    +0.021 A 
ATOM     13  C   UNL     1      -4.853  -6.803   0.922  0.00  0.00    +0.023 A 
ATOM     14  C   UNL     1      -3.669  -6.098   0.812  0.00  0.00    +0.062 A 
ATOM     15 CL   UNL     1      -2.219  -6.715   1.541  0.00  0.00    -0.082 Cl
ATOM     16 CL   UNL     1      -7.437  -4.505  -1.079  0.00  0.00    -0.083 Cl
ENDBRANCH   7   9
ENDBRANCH   2   5
BRANCH   1  18
ATOM     17  C   UNL     1      -0.018   1.296  -0.030  0.00  0.00    +0.138 C 
ATOM     18  N   UNL     1       0.000  -0.003  -0.032  0.00  0.00    -0.187 NA
BRANCH  17  24
ATOM     19  C   UNL     1       2.468   1.371  -0.064  0.00  0.00    +0.013 A 
ATOM     20  C   UNL     1       3.651   2.079  -0.087  0.00  0.00    +0.050 A 
ATOM     21  C   UNL     1       3.635   3.467  -0.086  0.00  0.00    +0.166 A 
ATOM     22  C   UNL     1       2.419   4.152  -0.067  0.00  0.00    +0.167 A 
ATOM     23  C   UNL     1       1.230   3.449  -0.048  0.00  0.00    +0.059 A 
ATOM     24  C   UNL     1       1.247   2.051  -0.050  0.00  0.00    -0.002 A 
ATOM     25  O   UNL     1       2.675   5.493  -0.070  0.00  0.00    -0.453 OA
ATOM     26  C   UNL     1       4.042   5.622  -0.505  0.00  0.00    +0.466 C 
ATOM     27  O   UNL     1       4.648   4.380  -0.102  0.00  0.00    -0.453 OA
ENDBRANCH  17  24
ENDBRANCH   1  18
TORSDOF 4
