REMARK  Name = ZINC45517087
REMARK  10 active torsions:
REMARK  status: ('A' for Active; 'I' for Inactive)
REMARK    1  A    between atoms: C_1  and  C_2
REMARK    2  A    between atoms: C_2  and  N_3
REMARK    3  A    between atoms: N_3  and  C_4
REMARK    4  A    between atoms: C_6  and  C_11
REMARK    5  A    between atoms: C_9  and  C_10
REMARK    6  A    between atoms: C_12  and  C_14
REMARK    7  A    between atoms: C_14  and  N_15
REMARK    8  A    between atoms: C_20  and  C_27
REMARK    9  A    between atoms: C_23  and  C_25
REMARK   10  A    between atoms: C_23  and  C_26
REMARK                            x       y       z     vdW  Elec       q    Type
REMARK                         _______ _______ _______ _____ _____    ______ ____
ROOT
ATOM      1  N   UNL     1      -2.156  -0.832   3.603  0.00  0.00    -0.215 N 
ATOM      2  C   UNL     1      -2.981   0.047   4.213  0.00  0.00    +0.247 C 
ATOM      3  O   UNL     1      -2.993   1.248   4.056  0.00  0.00    -0.273 OA
ATOM      4  C   UNL     1      -3.860  -0.786   5.114  0.00  0.00    +0.113 C 
ATOM      5  C   UNL     1      -3.885  -0.218   6.525  0.00  0.00    +0.038 C 
ATOM      6  C   UNL     1      -4.717   1.064   6.558  0.00  0.00    -0.011 C 
ATOM      7  C   UNL     1      -6.153   0.724   6.162  0.00  0.00    +0.009 C 
ATOM      8  C   UNL     1      -6.212   0.165   4.745  0.00  0.00    -0.032 C 
ATOM      9  C   UNL     1      -5.244  -0.986   4.531  0.00  0.00    +0.041 C 
ATOM     10  C   UNL     1      -5.960   1.282   3.729  0.00  0.00    +0.011 C 
ATOM     11  C   UNL     1      -7.644  -0.363   4.508  0.00  0.00    +0.011 C 
ATOM     12  C   UNL     1      -4.705   1.639   7.978  0.00  0.00    +0.007 C 
ATOM     13  N   UNL     1      -3.164  -2.093   5.139  0.00  0.00    -0.285 N 
ATOM     14  C   UNL     1      -2.230  -2.041   4.172  0.00  0.00    +0.310 C 
ATOM     15  O   UNL     1      -1.532  -2.983   3.851  0.00  0.00    -0.252 OA
ATOM     16  H   UNL     1      -3.355  -2.829   5.737  0.00  0.00    +0.151 HD
ENDROOT
BRANCH   1  17
ATOM     17  C   UNL     1      -1.274  -0.497   2.484  0.00  0.00    +0.214 C 
BRANCH  17  19
ATOM     18  N   UNL     1      -1.372  -0.511   0.012  0.00  0.00    -0.270 N 
ATOM     19  C   UNL     1      -1.993  -0.751   1.184  0.00  0.00    +0.238 C 
ATOM     20  O   UNL     1      -3.131  -1.171   1.193  0.00  0.00    -0.274 OA
BRANCH  18  21
ATOM     21  C   UNL     1      -2.040  -0.747  -1.194  0.00  0.00    +0.039 A 
ATOM     22  C   UNL     1      -1.961  -1.993  -1.802  0.00  0.00    +0.027 A 
ATOM     23  C   UNL     1      -2.621  -2.223  -2.993  0.00  0.00    -0.049 A 
ATOM     24  C   UNL     1      -3.361  -1.213  -3.581  0.00  0.00    +0.004 A 
ATOM     25  C   UNL     1      -3.441   0.029  -2.979  0.00  0.00    +0.005 A 
ATOM     26  C   UNL     1      -2.788   0.263  -1.784  0.00  0.00    -0.029 A 
ATOM     27  C   UNL     1      -2.882   1.616  -1.126  0.00  0.00    +0.045 C 
ATOM     28  C   UNL     1      -2.536  -3.575  -3.652  0.00  0.00    +0.044 C 
ENDBRANCH  18  21
BRANCH  18  30
ATOM     29  C   UNL     1      -0.019   1.526   0.010  0.00  0.00    +0.025 C 
ATOM     30  C   UNL     1       0.002  -0.004   0.002  0.00  0.00    +0.110 C 
ENDBRANCH  18  30
ENDBRANCH  17  19
ENDBRANCH   1  17
TORSDOF 4
