REMARK  Name = ZINC35842644
REMARK  20 active torsions:
REMARK  status: ('A' for Active; 'I' for Inactive)
REMARK    1  A    between atoms: C_1  and  C_2
REMARK    2  A    between atoms: C_2  and  C_3
REMARK    3  A    between atoms: C_2  and  C_4
REMARK    4  A    between atoms: C_4  and  C_6
REMARK    5  A    between atoms: C_4  and  O_38
REMARK    6  A    between atoms: C_6  and  N_7
REMARK    7  A    between atoms: N_7  and  C_8
REMARK    8  A    between atoms: N_7  and  C_35
REMARK    9  A    between atoms: C_8  and  C_9
REMARK   10  A    between atoms: N_11  and  C_12
REMARK   11  A    between atoms: N_11  and  C_24
REMARK   12  A    between atoms: C_12  and  C_13
REMARK   13  A    between atoms: C_13  and  C_14
REMARK   14  A    between atoms: C_24  and  C_25
REMARK   15  A    between atoms: C_28  and  C_31
REMARK   16  A    between atoms: C_31  and  C_32
REMARK   17  A    between atoms: C_31  and  C_33
REMARK   18  A    between atoms: C_31  and  C_34
REMARK   19  A    between atoms: C_35  and  C_36
REMARK   20  A    between atoms: C_35  and  C_37
REMARK                            x       y       z     vdW  Elec       q    Type
REMARK                         _______ _______ _______ _____ _____    ______ ____
ROOT
ATOM      1  C   UNL     1       4.367  -2.036  -3.008  0.00  0.00    +0.199 C 
ATOM      2  O   UNL     1       3.665  -2.529  -3.865  0.00  0.00    -0.278 OA
ATOM      3  N   UNL     1       5.590  -2.547  -2.762  0.00  0.00    -0.298 N 
ENDROOT
BRANCH   1   4
ATOM      4  C   UNL     1       3.872  -0.853  -2.217  0.00  0.00    +0.019 C 
BRANCH   4   5
ATOM      5  N   UNL     1       2.608  -0.373  -2.792  0.00  0.00    +0.389 N 
ATOM      6  H   UNL     1       2.046  -1.162  -3.075  0.00  0.00    -0.081 HD
BRANCH   5   7
ATOM      7  C   UNL     1       2.891   0.471  -3.961  0.00  0.00    -0.074 C 
ATOM      8  C   UNL     1       3.745   1.665  -3.533  0.00  0.00    -0.014 C 
ATOM      9  C   UNL     1       3.647  -0.347  -5.010  0.00  0.00    -0.014 C 
ENDBRANCH   5   7
BRANCH   5  10
ATOM     10  C   UNL     1       1.879   0.411  -1.786  0.00  0.00    -0.046 C 
BRANCH  10  11
ATOM     11  C   UNL     1       0.498   0.781  -2.331  0.00  0.00    +0.101 C 
BRANCH  11  13
ATOM     12  C   UNL     1       0.287   2.724  -0.775  0.00  0.00    +0.010 C 
ATOM     13  C   UNL     1      -0.343   1.400  -1.213  0.00  0.00    +0.010 C 
ATOM     14  C   UNL     1      -1.762   1.655  -1.723  0.00  0.00    +0.010 C 
ENDBRANCH  11  13
BRANCH  11  15
ATOM     15  O   UNL     1       0.642   1.723  -3.396  0.00  0.00    -0.393 OA
ATOM     16  H   UNL     1       1.145   2.514  -3.156  0.00  0.00    +0.210 HD
ENDBRANCH  11  15
ENDBRANCH  10  11
ENDBRANCH   5  10
ENDBRANCH   4   5
ENDBRANCH   1   4
BRANCH   3  17
ATOM     17  C   UNL     1       6.438  -1.952  -1.726  0.00  0.00    +0.113 C 
BRANCH  17  18
ATOM     18  C   UNL     1       6.163  -2.638  -0.386  0.00  0.00    +0.056 C 
BRANCH  18  19
ATOM     19  C   UNL     1       7.035  -2.025   0.679  0.00  0.00    -0.021 A 
ATOM     20  C   UNL     1       8.230  -2.479   1.091  0.00  0.00    +0.087 A 
ATOM     21  N   UNL     1       8.724  -1.665   2.074  0.00  0.00    -0.360 N 
ATOM     22  H   UNL     1       9.573  -1.790   2.526  0.00  0.00    +0.165 HD
ATOM     23  C   UNL     1       7.837  -0.642   2.325  0.00  0.00    +0.047 A 
ATOM     24  C   UNL     1       6.743  -0.819   1.458  0.00  0.00    +0.003 A 
ATOM     25  C   UNL     1       5.679   0.084   1.486  0.00  0.00    +0.010 A 
ATOM     26  C   UNL     1       5.707   1.139   2.354  0.00  0.00    +0.001 A 
ATOM     27  C   UNL     1       6.786   1.321   3.208  0.00  0.00    +0.002 A 
ATOM     28  C   UNL     1       7.842   0.436   3.204  0.00  0.00    +0.026 A 
ENDBRANCH  18  19
ENDBRANCH  17  18
ENDBRANCH   3  17
BRANCH   3  29
ATOM     29  C   UNL     1       6.071  -3.697  -3.531  0.00  0.00    +0.142 C 
BRANCH  29  30
ATOM     30  C   UNL     1       6.797  -3.212  -4.759  0.00  0.00    -0.030 A 
ATOM     31  C   UNL     1       6.102  -3.003  -5.936  0.00  0.00    +0.005 A 
ATOM     32  C   UNL     1       6.768  -2.558  -7.062  0.00  0.00    +0.004 A 
ATOM     33  C   UNL     1       8.129  -2.322  -7.012  0.00  0.00    -0.042 A 
ATOM     34  C   UNL     1       8.824  -2.530  -5.836  0.00  0.00    +0.004 A 
ATOM     35  C   UNL     1       8.157  -2.971  -4.708  0.00  0.00    +0.005 A 
BRANCH  33  36
ATOM     36  C   UNL     1       8.855  -1.838  -8.241  0.00  0.00    -0.013 C 
ATOM     37  C   UNL     1       8.264  -0.500  -8.689  0.00  0.00    +0.015 C 
ATOM     38  C   UNL     1      10.340  -1.657  -7.917  0.00  0.00    +0.015 C 
ATOM     39  C   UNL     1       8.700  -2.866  -9.364  0.00  0.00    +0.015 C 
ENDBRANCH  33  36
ENDBRANCH  29  30
ENDBRANCH   3  29
TORSDOF 13
