REMARK  Name = ZINC21081838
REMARK  7 active torsions:
REMARK  status: ('A' for Active; 'I' for Inactive)
REMARK    1  A    between atoms: C_1  and  C_2
REMARK    2  A    between atoms: C_2  and  C_25
REMARK    3  A    between atoms: N_3  and  N_4
REMARK    4  A    between atoms: C_7  and  S_10
REMARK    5  A    between atoms: S_10  and  C_11
REMARK    6  A    between atoms: C_11  and  C_12
REMARK    7  A    between atoms: C_18  and  N_22
REMARK                            x       y       z     vdW  Elec       q    Type
REMARK                         _______ _______ _______ _____ _____    ______ ____
ROOT
ATOM      1  N   UNL     1      -0.030   0.903  -0.001  0.00  0.00    -0.205 N 
ATOM      2  C   UNL     1      -1.236   1.590   0.011  0.00  0.00    +0.232 A 
ATOM      3  N   UNL     1      -2.482   1.026   0.012  0.00  0.00    -0.186 NA
ATOM      4  C   UNL     1      -3.402   2.035   0.026  0.00  0.00    +0.210 A 
ATOM      5  N   UNL     1      -2.753   3.175   0.033  0.00  0.00    -0.144 NA
ATOM      6  N   UNL     1      -1.381   2.893   0.028  0.00  0.00    -0.245 N 
ATOM      7  H   UNL     1      -0.024  -0.197  -0.005  0.00  0.00    +0.177 HD
ATOM      8  H   UNL     1      -0.495   3.544   0.036  0.00  0.00    +0.192 HD
ENDROOT
BRANCH   1  11
ATOM      9  C   UNL     1       2.316  -0.538  -0.035  0.00  0.00    +0.068 C 
ATOM     10  C   UNL     1       2.307   0.969  -0.022  0.00  0.00    +0.063 C 
ATOM     11  N   UNL     1       1.179   1.611  -0.006  0.00  0.00    -0.184 NA
BRANCH  10  12
ATOM     12  C   UNL     1       3.579   1.713  -0.029  0.00  0.00    -0.002 A 
ATOM     13  C   UNL     1       4.795   1.025  -0.040  0.00  0.00    +0.011 A 
ATOM     14  C   UNL     1       5.982   1.728  -0.052  0.00  0.00    +0.016 A 
ATOM     15  C   UNL     1       5.970   3.113  -0.041  0.00  0.00    +0.018 A 
ATOM     16  C   UNL     1       4.768   3.801  -0.023  0.00  0.00    +0.016 A 
ATOM     17  C   UNL     1       3.575   3.111  -0.017  0.00  0.00    +0.011 A 
ATOM     18 BR   UNL     1       7.601   4.068  -0.049  0.00  0.00    -0.050 Br
ENDBRANCH  10  12
ENDBRANCH   1  11
BRANCH   4  19
ATOM     19  S   UNL     1      -5.153   1.840   0.034  0.00  0.00    -0.077 S 
BRANCH  19  20
ATOM     20  C   UNL     1      -5.784   3.541   0.051  0.00  0.00    +0.151 C 
BRANCH  20  21
ATOM     21  C   UNL     1      -7.291   3.518   0.059  0.00  0.00    +0.119 A 
ATOM     22  N   UNL     1      -8.064   3.501   1.178  0.00  0.00    -0.232 NA
ATOM     23  H   UNL     1      -7.582   3.538  -2.002  0.00  0.00    +0.167 HD
ATOM     24  C   UNL     1      -9.382   3.474   0.766  0.00  0.00    +0.089 A 
ATOM     25  C   UNL     1     -10.601   3.442   1.429  0.00  0.00    +0.032 A 
ATOM     26  C   UNL     1     -11.773   3.420   0.703  0.00  0.00    +0.035 A 
ATOM     27  C   UNL     1     -11.740   3.429  -0.685  0.00  0.00    +0.128 A 
ATOM     28  C   UNL     1     -10.549   3.460  -1.354  0.00  0.00    +0.060 A 
ATOM     29  C   UNL     1      -9.349   3.483  -0.638  0.00  0.00    +0.068 A 
ATOM     30  N   UNL     1      -8.042   3.515  -1.003  0.00  0.00    -0.341 N 
BRANCH  27  31
ATOM     31  N   UNL     1     -13.008   3.404  -1.448  0.00  0.00    +0.056 N 
ATOM     32  O   UNL     1     -12.987   3.412  -2.665  0.00  0.00    -0.126 OA
ATOM     33  O   UNL     1     -14.073   3.376  -0.857  0.00  0.00    -0.126 OA
ENDBRANCH  27  31
ENDBRANCH  20  21
ENDBRANCH  19  20
ENDBRANCH   4  19
TORSDOF 6
