REMARK  Name = ZINC39399964
REMARK  4 active torsions:
REMARK  status: ('A' for Active; 'I' for Inactive)
REMARK    1  A    between atoms: C_3  and  N_8
REMARK    2  A    between atoms: N_11  and  C_12
REMARK    3  A    between atoms: N_17  and  C_18
REMARK    4  A    between atoms: C_24  and  C_26
REMARK                            x       y       z     vdW  Elec       q    Type
REMARK                         _______ _______ _______ _____ _____    ______ ____
ROOT
ATOM      1  C   UNL     1       7.200   1.454   0.254  0.00  0.00    +0.184 C 
ATOM      2  C   UNL     1       8.275   2.140  -0.613  0.00  0.00    +0.092 C 
ATOM      3  C   UNL     1       9.332   2.556   0.386  0.00  0.00    +0.106 C 
ATOM      4  N   UNL     1       8.978   2.208   1.555  0.00  0.00    -0.195 NA
ATOM      5  N   UNL     1       7.747   1.550   1.617  0.00  0.00    -0.232 N 
ENDROOT
BRANCH   5   6
ATOM      6  C   UNL     1       7.106   1.042   2.833  0.00  0.00    +0.098 C 
ATOM      7  C   UNL     1       6.862   2.201   3.802  0.00  0.00    +0.043 C 
ATOM      8  C   UNL     1       6.160   1.672   5.057  0.00  0.00    +0.110 C 
ATOM      9  N   UNL     1       6.960   0.574   5.618  0.00  0.00    -0.297 N 
ATOM     10  C   UNL     1       7.329  -0.549   4.745  0.00  0.00    +0.110 C 
ATOM     11  C   UNL     1       8.017   0.005   3.494  0.00  0.00    +0.043 C 
ATOM     12  C   UNL     1       7.347   0.596   6.909  0.00  0.00    +0.247 C 
ATOM     13  O   UNL     1       8.085  -0.270   7.337  0.00  0.00    -0.270 OA
BRANCH  12  14
ATOM     14  C   UNL     1       6.875   1.672   7.802  0.00  0.00    +0.037 C 
ATOM     15  C   UNL     1       5.569   1.661   8.279  0.00  0.00    +0.019 C 
ATOM     16  C   UNL     1       5.253   2.704   9.166  0.00  0.00    -0.017 C 
ATOM     17  C   UNL     1       4.107   3.354   9.433  0.00  0.00    +0.025 C 
ATOM     18  C   UNL     1       4.418   4.539  10.231  0.00  0.00    +0.106 C 
ATOM     19  N   UNL     1       5.677   4.571  10.556  0.00  0.00    -0.279 NA
ATOM     20  C   UNL     1       6.303   3.364  10.042  0.00  0.00    +0.158 C 
ATOM     21  C   UNL     1       7.532   3.580   9.212  0.00  0.00    +0.005 C 
ATOM     22  C   UNL     1       7.785   2.756   8.196  0.00  0.00    +0.011 C 
ENDBRANCH  12  14
ENDBRANCH   5   6
BRANCH   1  26
ATOM     23  N   UNL     1       3.598   2.139  -0.026  0.00  0.00    -0.269 N 
ATOM     24  C   UNL     1       4.771   1.480   0.062  0.00  0.00    +0.305 C 
ATOM     25  O   UNL     1       4.787   0.265   0.056  0.00  0.00    -0.252 OA
ATOM     26  N   UNL     1       5.925   2.170   0.158  0.00  0.00    -0.279 N 
ATOM     27  H   UNL     1       3.588   3.107  -0.089  0.00  0.00    +0.156 HD
ATOM     28  H   UNL     1       5.911   3.140   0.162  0.00  0.00    +0.152 HD
BRANCH  23  31
ATOM     29  C   UNL     1       0.081   1.254   0.583  0.00  0.00    +0.005 A 
ATOM     30  C   UNL     1       1.268   1.960   0.586  0.00  0.00    +0.023 A 
ATOM     31  C   UNL     1       2.394   1.426  -0.028  0.00  0.00    +0.037 A 
ATOM     32  C   UNL     1       2.322   0.183  -0.644  0.00  0.00    +0.061 A 
ATOM     33  C   UNL     1       1.130  -0.518  -0.644  0.00  0.00    +0.125 A 
ATOM     34  C   UNL     1       0.010   0.018  -0.030  0.00  0.00    +0.038 A 
ATOM     35  F   UNL     1       1.058  -1.727  -1.243  0.00  0.00    -0.205 F 
ENDBRANCH  23  31
ENDBRANCH   1  26
TORSDOF 4
