REMARK  Name = ZINC24300540
REMARK  15 active torsions:
REMARK  status: ('A' for Active; 'I' for Inactive)
REMARK    1  A    between atoms: C_1  and  C_2
REMARK    2  A    between atoms: C_2  and  C_3
REMARK    3  A    between atoms: C_2  and  C_4
REMARK    4  A    between atoms: C_4  and  C_5
REMARK    5  A    between atoms: C_5  and  O_6
REMARK    6  A    between atoms: O_6  and  C_7
REMARK    7  A    between atoms: C_10  and  C_15
REMARK    8  A    between atoms: C_12  and  O_13
REMARK    9  A    between atoms: O_13  and  C_14
REMARK   10  A    between atoms: N_17  and  N_18
REMARK   11  A    between atoms: C_19  and  C_21
REMARK   12  A    between atoms: C_21  and  C_22
REMARK   13  A    between atoms: C_22  and  N_23
REMARK   14  A    between atoms: N_23  and  S_24
REMARK   15  A    between atoms: S_24  and  C_27
REMARK                            x       y       z     vdW  Elec       q    Type
REMARK                         _______ _______ _______ _____ _____    ______ ____
ROOT
ATOM      1  N   UNL     1       4.856   0.923   0.636  0.00  0.00    -0.234 N 
ATOM      2  C   UNL     1       3.697   1.549   0.348  0.00  0.00    +0.230 C 
ATOM      3  O   UNL     1       3.696   2.732   0.083  0.00  0.00    -0.274 OA
ATOM      4  H   UNL     1       4.856  -0.150   0.877  0.00  0.00    +0.173 HD
ENDROOT
BRANCH   1   7
ATOM      5  C   UNL     1       7.218   1.015   0.916  0.00  0.00    +0.260 C 
ATOM      6  O   UNL     1       7.219  -0.172   1.182  0.00  0.00    -0.269 OA
ATOM      7  N   UNL     1       6.059   1.640   0.628  0.00  0.00    -0.230 N 
ATOM      8  H   UNL     1       6.059   2.713   0.388  0.00  0.00    +0.173 HD
BRANCH   5  12
ATOM      9  C   UNL     1      10.866   3.195   0.892  0.00  0.00    +0.162 A 
ATOM     10  C   UNL     1       9.672   3.837   0.595  0.00  0.00    +0.050 A 
ATOM     11  C   UNL     1       8.488   3.132   0.597  0.00  0.00    +0.017 A 
ATOM     12  C   UNL     1       8.486   1.770   0.908  0.00  0.00    +0.042 A 
ATOM     13  C   UNL     1       9.688   1.123   1.206  0.00  0.00    +0.062 A 
ATOM     14  C   UNL     1      10.872   1.835   1.197  0.00  0.00    +0.162 A 
BRANCH  14  15
ATOM     15  O   UNL     1      12.044   1.208   1.487  0.00  0.00    -0.491 OA
ATOM     16  C   UNL     1      11.976  -0.186   1.792  0.00  0.00    +0.277 C 
ENDBRANCH  14  15
BRANCH   9  17
ATOM     17  O   UNL     1      12.031   3.893   0.883  0.00  0.00    -0.488 OA
BRANCH  17  18
ATOM     18  C   UNL     1      11.952   5.283   0.562  0.00  0.00    +0.229 C 
BRANCH  18  19
ATOM     19  C   UNL     1      13.353   5.896   0.602  0.00  0.00    +0.044 C 
BRANCH  19  21
ATOM     20  C   UNL     1      12.476   8.115   1.343  0.00  0.00    +0.007 C 
ATOM     21  C   UNL     1      13.269   7.384   0.258  0.00  0.00    -0.014 C 
ATOM     22  C   UNL     1      14.680   7.970   0.176  0.00  0.00    +0.007 C 
ENDBRANCH  19  21
ENDBRANCH  18  19
ENDBRANCH  17  18
ENDBRANCH   9  17
ENDBRANCH   5  12
ENDBRANCH   1   7
BRANCH   2  23
ATOM     23  C   UNL     1       2.402   0.777   0.357  0.00  0.00    +0.114 C 
BRANCH  23  24
ATOM     24  C   UNL     1       1.248   1.716  -0.001  0.00  0.00    +0.115 C 
BRANCH  24  25
ATOM     25  N   UNL     1      -0.011   0.966   0.007  0.00  0.00    -0.189 NA
ATOM     26  H   UNL     1      -0.005  -0.121  -0.159  0.00  0.00    +0.148 HD
BRANCH  25  27
ATOM     27  S   UNL     1      -1.456   1.774   0.019  0.00  0.00    +0.059 S 
ATOM     28  O   UNL     1      -2.475   0.784  -0.009  0.00  0.00    -0.153 OA
ATOM     29  O   UNL     1      -1.369   2.749   1.049  0.00  0.00    -0.153 OA
BRANCH  27  30
ATOM     30  C   UNL     1      -1.571   2.658  -1.502  0.00  0.00    +0.108 A 
ATOM     31  C   UNL     1      -1.089   3.951  -1.587  0.00  0.00    +0.031 A 
ATOM     32  C   UNL     1      -1.172   4.644  -2.780  0.00  0.00    +0.043 A 
ATOM     33  C   UNL     1      -1.750   4.047  -3.888  0.00  0.00    +0.159 A 
ATOM     34  C   UNL     1      -2.238   2.753  -3.800  0.00  0.00    +0.160 A 
ATOM     35  C   UNL     1      -2.148   2.059  -2.606  0.00  0.00    +0.069 A 
ATOM     36  F   UNL     1      -2.802   2.169  -4.880  0.00  0.00    -0.202 F 
ATOM     37  F   UNL     1      -1.836   4.726  -5.053  0.00  0.00    -0.202 F 
ENDBRANCH  27  30
ENDBRANCH  25  27
ENDBRANCH  24  25
ENDBRANCH  23  24
ENDBRANCH   2  23
TORSDOF 12
