REMARK  Name = ZINC19970209
REMARK  6 active torsions:
REMARK  status: ('A' for Active; 'I' for Inactive)
REMARK    1  A    between atoms: C_1  and  C_2
REMARK    2  A    between atoms: C_2  and  C_3
REMARK    3  A    between atoms: C_6  and  N_19
REMARK    4  A    between atoms: C_8  and  C_9
REMARK    5  A    between atoms: C_9  and  C_11
REMARK    6  A    between atoms: C_9  and  N_18
REMARK                            x       y       z     vdW  Elec       q    Type
REMARK                         _______ _______ _______ _____ _____    ______ ____
ROOT
ATOM      1  C   UNL     1       1.268  -2.024  -0.059  0.00  0.00    -0.013 C 
ENDROOT
BRANCH   1   2
ATOM      2  C   UNL     1       2.602  -1.742   0.583  0.00  0.00    -0.057 A 
ATOM      3  C   UNL     1       3.327  -2.773   1.152  0.00  0.00    +0.002 A 
ATOM      4  C   UNL     1       4.551  -2.516   1.740  0.00  0.00    +0.001 A 
ATOM      5  C   UNL     1       5.050  -1.227   1.760  0.00  0.00    +0.015 A 
ATOM      6  C   UNL     1       4.325  -0.195   1.192  0.00  0.00    +0.018 A 
ATOM      7  C   UNL     1       3.100  -0.454   0.603  0.00  0.00    +0.017 A 
ATOM      8 BR   UNL     1       5.012   1.567   1.213  0.00  0.00    -0.050 Br
ENDBRANCH   1   2
BRANCH   1  14
ATOM      9  C   UNL     1       0.425  -2.473  -2.372  0.00  0.00    -0.046 A 
ATOM     10  C   UNL     1       0.620  -2.892  -3.675  0.00  0.00    +0.006 A 
ATOM     11  C   UNL     1       1.870  -3.318  -4.085  0.00  0.00    +0.033 A 
ATOM     12  C   UNL     1       2.925  -3.326  -3.191  0.00  0.00    +0.126 A 
ATOM     13  C   UNL     1       2.731  -2.902  -1.890  0.00  0.00    +0.035 A 
ATOM     14  C   UNL     1       1.480  -2.481  -1.479  0.00  0.00    -0.052 A 
BRANCH  12  15
ATOM     15  N   UNL     1       4.262  -3.783  -3.629  0.00  0.00    +0.056 N 
ATOM     16  O   UNL     1       4.434  -4.152  -4.777  0.00  0.00    -0.126 OA
ATOM     17  O   UNL     1       5.192  -3.790  -2.842  0.00  0.00    -0.126 OA
ENDBRANCH  12  15
BRANCH   9  19
ATOM     18  C   UNL     1      -1.028  -0.487  -2.068  0.00  0.00    +0.009 C 
ATOM     19  C   UNL     1      -0.937  -2.008  -1.926  0.00  0.00    +0.032 C 
ENDBRANCH   9  19
ENDBRANCH   1  14
BRANCH   1  20
ATOM     20  N   UNL     1       0.574  -3.076   0.696  0.00  0.00    +0.385 N 
ATOM     21  H   UNL     1       0.419  -2.743   1.732  0.00  0.00    -0.089 HD
ATOM     22  H   UNL     1       1.183  -3.992   0.692  0.00  0.00    -0.089 HD
ATOM     23  H   UNL     1      -0.400  -3.282   0.227  0.00  0.00    -0.089 HD
ENDBRANCH   1  20
TORSDOF 5
