REMARK  Name = ZINC35693498
REMARK  11 active torsions:
REMARK  status: ('A' for Active; 'I' for Inactive)
REMARK    1  A    between atoms: C_1  and  C_2
REMARK    2  A    between atoms: C_2  and  N_3
REMARK    3  A    between atoms: N_3  and  C_4
REMARK    4  A    between atoms: C_4  and  C_5
REMARK    5  A    between atoms: C_6  and  C_8
REMARK    6  A    between atoms: C_9  and  C_36
REMARK    7  A    between atoms: C_13  and  C_15
REMARK    8  A    between atoms: C_22  and  C_25
REMARK    9  A    between atoms: C_26  and  N_28
REMARK   10  A    between atoms: N_28  and  C_29
REMARK   11  A    between atoms: C_29  and  C_30
REMARK                            x       y       z     vdW  Elec       q    Type
REMARK                         _______ _______ _______ _____ _____    ______ ____
ROOT
ATOM      1  C   UNL     1      -3.692  -1.333   1.162  0.00  0.00    +0.061 C 
ATOM      2  C   UNL     1      -4.571  -1.765   2.134  0.00  0.00    +0.051 C 
ATOM      3  N   UNL     1      -5.826  -2.050   1.824  0.00  0.00    -0.230 NA
ATOM      4  C   UNL     1      -6.343  -1.956   0.617  0.00  0.00    +0.166 C 
ATOM      5  N   UNL     1      -5.641  -1.546  -0.483  0.00  0.00    -0.267 N 
ATOM      6  C   UNL     1      -4.215  -1.193  -0.251  0.00  0.00    +0.149 C 
ATOM      7  C   UNL     1      -6.325  -1.499  -1.681  0.00  0.00    +0.048 C 
ATOM      8  C   UNL     1      -7.627  -1.858  -1.674  0.00  0.00    +0.072 C 
ATOM      9  S   UNL     1      -7.887  -2.268   0.040  0.00  0.00    -0.060 S 
ATOM     10  C   UNL     1      -4.099  -1.914   3.557  0.00  0.00    +0.066 C 
ENDROOT
BRANCH   6  11
ATOM     11  C   UNL     1      -3.373  -2.067  -1.145  0.00  0.00    -0.004 A 
ATOM     12  C   UNL     1      -3.756  -3.371  -1.396  0.00  0.00    +0.007 A 
ATOM     13  C   UNL     1      -2.985  -4.173  -2.216  0.00  0.00    +0.000 A 
ATOM     14  C   UNL     1      -1.830  -3.671  -2.786  0.00  0.00    +0.001 A 
ATOM     15  C   UNL     1      -1.446  -2.367  -2.536  0.00  0.00    +0.020 A 
ATOM     16  C   UNL     1      -2.221  -1.562  -1.720  0.00  0.00    +0.046 A 
ATOM     17 CL   UNL     1      -1.743   0.078  -1.411  0.00  0.00    -0.083 Cl
ENDBRANCH   6  11
BRANCH   1  19
ATOM     18  N   UNL     1      -2.050   0.172   2.008  0.00  0.00    -0.298 N 
ATOM     19  C   UNL     1      -2.359  -1.026   1.475  0.00  0.00    +0.246 C 
ATOM     20  O   UNL     1      -1.480  -1.845   1.264  0.00  0.00    -0.270 OA
BRANCH  18  22
ATOM     21  C   UNL     1      -0.224   0.089   3.633  0.00  0.00    +0.024 C 
ATOM     22  C   UNL     1      -0.649   0.535   2.232  0.00  0.00    +0.104 C 
ENDBRANCH  18  22
BRANCH  18  23
ATOM     23  C   UNL     1      -3.116   1.112   2.364  0.00  0.00    +0.104 C 
ATOM     24  C   UNL     1      -3.334   2.096   1.213  0.00  0.00    +0.024 C 
ENDBRANCH  18  23
ENDBRANCH   1  19
BRANCH   7  25
ATOM     25  C   UNL     1      -5.660  -1.071  -2.921  0.00  0.00    +0.091 C 
ATOM     26  C   UNL     1      -6.380  -0.896  -4.045  0.00  0.00    +0.239 C 
ATOM     27  O   UNL     1      -7.731  -0.982  -4.005  0.00  0.00    -0.271 OA
BRANCH  26  28
ATOM     28  N   UNL     1      -5.738  -0.629  -5.243  0.00  0.00    -0.308 N 
ATOM     29  H   UNL     1      -4.769  -0.640  -5.288  0.00  0.00    +0.149 HD
BRANCH  28  30
ATOM     30  C   UNL     1      -6.523  -0.331  -6.444  0.00  0.00    +0.140 C 
BRANCH  30  31
ATOM     31  C   UNL     1      -5.601  -0.200  -7.628  0.00  0.00    -0.027 A 
ATOM     32  C   UNL     1      -5.049   1.027  -7.965  0.00  0.00    +0.025 A 
ATOM     33  C   UNL     1      -4.207   1.108  -9.058  0.00  0.00    +0.111 A 
ATOM     34  N   UNL     1      -3.927   0.038  -9.776  0.00  0.00    -0.263 NA
ATOM     35  C   UNL     1      -4.434  -1.144  -9.484  0.00  0.00    +0.111 A 
ATOM     36  C   UNL     1      -5.279  -1.304  -8.402  0.00  0.00    +0.025 A 
ENDBRANCH  30  31
ENDBRANCH  28  30
ENDBRANCH  26  28
ENDBRANCH   7  25
TORSDOF 8
