REMARK  Name = ZINC15084863
REMARK  2 active torsions:
REMARK  status: ('A' for Active; 'I' for Inactive)
REMARK    1  A    between atoms: C_1  and  C_2
REMARK    2  A    between atoms: C_21  and  C_23
REMARK                            x       y       z     vdW  Elec       q    Type
REMARK                         _______ _______ _______ _____ _____    ______ ____
ROOT
ATOM      1  C   UNL     1      -0.018   1.503   0.010  0.00  0.00    +0.068 C 
ATOM      2  C   UNL     1       0.002  -0.004   0.002  0.00  0.00    +0.066 A 
ATOM      3  C   UNL     1       0.008  -0.810  -1.128  0.00  0.00    +0.023 A 
ATOM      4  C   UNL     1       0.033  -2.116  -0.715  0.00  0.00    +0.136 A 
ATOM      5  N   UNL     1       0.033  -2.117   0.636  0.00  0.00    -0.185 N 
ATOM      6  N   UNL     1       0.023  -0.778   1.062  0.00  0.00    -0.167 NA
ATOM      7  C   UNL     1       0.046  -3.238   1.456  0.00  0.00    +0.232 A 
ATOM      8  N   UNL     1       0.040  -3.212   2.820  0.00  0.00    -0.322 N 
ATOM      9  H   UNL     1       0.027  -2.420   3.380  0.00  0.00    +0.169 HD
ATOM     10  C   UNL     1       0.056  -4.524   3.256  0.00  0.00    +0.068 A 
ATOM     11  C   UNL     1       0.060  -5.123   4.508  0.00  0.00    +0.028 A 
ATOM     12  C   UNL     1       0.078  -6.498   4.611  0.00  0.00    +0.002 A 
ATOM     13  C   UNL     1       0.093  -7.288   3.470  0.00  0.00    +0.002 A 
ATOM     14  C   UNL     1       0.090  -6.712   2.221  0.00  0.00    +0.030 A 
ATOM     15  C   UNL     1       0.071  -5.320   2.099  0.00  0.00    +0.091 A 
ATOM     16  N   UNL     1       0.059  -4.476   1.035  0.00  0.00    -0.211 NA
ATOM     17  N   UNL     1       0.064  -3.175  -1.621  0.00  0.00    -0.270 N 
ATOM     18  C   UNL     1       0.274  -2.891  -2.924  0.00  0.00    +0.219 C 
ATOM     19  O   UNL     1       0.119  -3.767  -3.748  0.00  0.00    -0.275 OA
ATOM     20  C   UNL     1       0.695  -1.524  -3.384  0.00  0.00    +0.109 C 
ATOM     21  C   UNL     1      -0.014  -0.425  -2.585  0.00  0.00    +0.063 C 
ATOM     22  H   UNL     1      -0.061  -4.089  -1.323  0.00  0.00    +0.156 HD
ENDROOT
BRANCH  21  23
ATOM     23  C   UNL     1      -1.440  -0.295  -3.055  0.00  0.00    -0.036 A 
ATOM     24  C   UNL     1      -2.292  -1.381  -2.981  0.00  0.00    +0.008 A 
ATOM     25  C   UNL     1      -3.601  -1.266  -3.410  0.00  0.00    +0.050 A 
ATOM     26  C   UNL     1      -4.062  -0.062  -3.916  0.00  0.00    +0.166 A 
ATOM     27  C   UNL     1      -3.203   1.032  -3.990  0.00  0.00    +0.167 A 
ATOM     28  C   UNL     1      -1.894   0.912  -3.553  0.00  0.00    +0.053 A 
ATOM     29  O   UNL     1      -3.888   2.089  -4.518  0.00  0.00    -0.453 OA
ATOM     30  C   UNL     1      -5.052   1.518  -5.144  0.00  0.00    +0.466 C 
ATOM     31  O   UNL     1      -5.284   0.309  -4.397  0.00  0.00    -0.453 OA
ENDBRANCH  21  23
TORSDOF 1
