REMARK  Name = ZINC21259475
REMARK  8 active torsions:
REMARK  status: ('A' for Active; 'I' for Inactive)
REMARK    1  A    between atoms: C_1  and  C_2
REMARK    2  A    between atoms: C_2  and  C_3
REMARK    3  A    between atoms: C_2  and  C_4
REMARK    4  A    between atoms: C_4  and  O_5
REMARK    5  A    between atoms: O_5  and  C_6
REMARK    6  A    between atoms: C_9  and  C_12
REMARK    7  A    between atoms: C_17  and  C_27
REMARK    8  A    between atoms: C_30  and  C_33
REMARK                            x       y       z     vdW  Elec       q    Type
REMARK                         _______ _______ _______ _____ _____    ______ ____
ROOT
ATOM      1  C   UNL     1      -4.929   5.624  -1.455  0.00  0.00    +0.032 C 
ATOM      2  C   UNL     1      -4.237   4.330  -1.033  0.00  0.00    +0.059 C 
ATOM      3  C   UNL     1      -2.772   4.601  -0.732  0.00  0.00    +0.017 C 
ATOM      4  C   UNL     1      -2.102   5.546  -1.410  0.00  0.00    +0.036 C 
ATOM      5  C   UNL     1      -0.643   5.899  -1.233  0.00  0.00    +0.136 C 
ATOM      6  N   UNL     1      -0.025   5.314  -0.063  0.00  0.00    -0.331 N 
ATOM      7  C   UNL     1       0.118   3.933   0.061  0.00  0.00    +0.049 A 
ATOM      8  C   UNL     1       1.367   3.332   0.045  0.00  0.00    +0.025 A 
ATOM      9  C   UNL     1       1.460   1.953   0.109  0.00  0.00    +0.002 A 
ATOM     10  C   UNL     1       0.317   1.176   0.173  0.00  0.00    +0.002 A 
ATOM     11  C   UNL     1      -0.932   1.773   0.187  0.00  0.00    +0.025 A 
ATOM     12  C   UNL     1      -1.025   3.154   0.155  0.00  0.00    +0.052 A 
ATOM     13  N   UNL     1      -2.243   3.820   0.245  0.00  0.00    -0.316 N 
ATOM     14  C   UNL     1      -2.762   6.322  -2.392  0.00  0.00    +0.163 C 
ATOM     15  O   UNL     1      -2.126   7.160  -3.001  0.00  0.00    -0.292 OA
ATOM     16  C   UNL     1      -4.217   6.148  -2.708  0.00  0.00    +0.088 C 
ATOM     17  H   UNL     1       0.341   5.961   0.748  0.00  0.00    +0.147 HD
ATOM     18  H   UNL     1      -2.787   3.679   1.191  0.00  0.00    +0.152 HD
ENDROOT
BRANCH   1  22
ATOM     19  C   UNL     1      -9.037   4.847  -2.343  0.00  0.00    +0.121 A 
ATOM     20  C   UNL     1      -8.700   5.770  -1.363  0.00  0.00    +0.046 A 
ATOM     21  C   UNL     1      -7.371   6.019  -1.078  0.00  0.00    +0.007 A 
ATOM     22  C   UNL     1      -6.378   5.350  -1.768  0.00  0.00    -0.043 A 
ATOM     23  C   UNL     1      -6.710   4.434  -2.749  0.00  0.00    +0.007 A 
ATOM     24  C   UNL     1      -8.037   4.177  -3.034  0.00  0.00    +0.046 A 
BRANCH  19  25
ATOM     25  O   UNL     1     -10.343   4.600  -2.625  0.00  0.00    -0.492 OA
BRANCH  25  26
ATOM     26  C   UNL     1     -10.615   3.638  -3.645  0.00  0.00    +0.232 C 
BRANCH  26  28
ATOM     27  C   UNL     1     -12.419   2.559  -4.996  0.00  0.00    +0.010 C 
ATOM     28  C   UNL     1     -12.128   3.494  -3.821  0.00  0.00    +0.020 C 
ATOM     29  C   UNL     1     -12.737   2.912  -2.543  0.00  0.00    +0.010 C 
ENDBRANCH  26  28
ENDBRANCH  25  26
ENDBRANCH  19  25
ENDBRANCH   1  22
BRANCH   5  30
ATOM     30  C   UNL     1       0.109   5.435  -2.454  0.00  0.00    -0.023 A 
ATOM     31  C   UNL     1       0.699   6.361  -3.295  0.00  0.00    +0.006 A 
ATOM     32  C   UNL     1       1.393   5.935  -4.412  0.00  0.00    +0.013 A 
ATOM     33  C   UNL     1       1.489   4.585  -4.694  0.00  0.00    +0.055 A 
ATOM     34  C   UNL     1       0.894   3.660  -3.856  0.00  0.00    +0.013 A 
ATOM     35  C   UNL     1       0.204   4.085  -2.736  0.00  0.00    +0.006 A 
BRANCH  33  36
ATOM     36  C   UNL     1       2.242   4.122  -5.914  0.00  0.00    +0.417 C 
ATOM     37  F   UNL     1       1.367   4.048  -7.002  0.00  0.00    -0.166 F 
ATOM     38  F   UNL     1       3.268   5.029  -6.201  0.00  0.00    -0.166 F 
ATOM     39  F   UNL     1       2.792   2.858  -5.670  0.00  0.00    -0.166 F 
ENDBRANCH  33  36
ENDBRANCH   5  30
TORSDOF 6
