REMARK  Name = ZINC40067596
REMARK  5 active torsions:
REMARK  status: ('A' for Active; 'I' for Inactive)
REMARK    1  A    between atoms: C_4  and  C_7
REMARK    2  A    between atoms: C_7  and  C_8
REMARK    3  A    between atoms: C_8  and  C_10
REMARK    4  A    between atoms: C_8  and  N_20
REMARK    5  A    between atoms: C_27  and  C_30
REMARK                            x       y       z     vdW  Elec       q    Type
REMARK                         _______ _______ _______ _____ _____    ______ ____
ROOT
ATOM      1  C   UNL     1       4.519  -0.719   2.039  0.00  0.00    +0.142 C 
ENDROOT
BRANCH   1   2
ATOM      2  N   UNL     1       3.566  -1.718   2.528  0.00  0.00    -0.318 N 
ATOM      3  C   UNL     1       2.295  -1.326   2.935  0.00  0.00    +0.140 A 
ATOM      4  C   UNL     1       1.908   0.022   2.805  0.00  0.00    +0.049 A 
ATOM      5  C   UNL     1       0.669   0.417   3.199  0.00  0.00    +0.053 A 
ATOM      6  C   UNL     1      -0.216  -0.538   3.736  0.00  0.00    +0.178 A 
ATOM      7  N   UNL     1      -1.455  -0.480   4.200  0.00  0.00    -0.128 NA
ATOM      8  N   UNL     1      -1.820  -1.654   4.582  0.00  0.00    -0.123 NA
ATOM      9  C   UNL     1      -0.851  -2.514   4.388  0.00  0.00    +0.258 A 
ATOM     10  N   UNL     1       0.191  -1.844   3.850  0.00  0.00    -0.187 N 
ATOM     11  N   UNL     1       1.469  -2.218   3.430  0.00  0.00    -0.148 NA
ATOM     12  H   UNL     1       3.821  -2.653   2.569  0.00  0.00    +0.148 HD
BRANCH   9  13
ATOM     13  C   UNL     1      -0.891  -3.986   4.708  0.00  0.00    +0.454 C 
ATOM     14  F   UNL     1      -2.214  -4.378   4.936  0.00  0.00    -0.163 F 
ATOM     15  F   UNL     1      -0.369  -4.712   3.631  0.00  0.00    -0.163 F 
ATOM     16  F   UNL     1      -0.126  -4.235   5.853  0.00  0.00    -0.163 F 
ENDBRANCH   9  13
ENDBRANCH   1   2
BRANCH   1  17
ATOM     17  C   UNL     1       5.878  -0.987   2.634  0.00  0.00    +0.129 A 
ATOM     18  N   UNL     1       6.528  -0.160   3.497  0.00  0.00    -0.340 N 
ATOM     19  H   UNL     1       6.204   0.691   3.831  0.00  0.00    +0.167 HD
ATOM     20  C   UNL     1       7.733  -0.757   3.808  0.00  0.00    +0.066 A 
ATOM     21  C   UNL     1       8.805  -0.406   4.617  0.00  0.00    +0.028 A 
ATOM     22  C   UNL     1       9.892  -1.249   4.714  0.00  0.00    +0.002 A 
ATOM     23  C   UNL     1       9.921  -2.443   4.008  0.00  0.00    +0.002 A 
ATOM     24  C   UNL     1       8.876  -2.804   3.207  0.00  0.00    +0.030 A 
ATOM     25  C   UNL     1       7.763  -1.966   3.094  0.00  0.00    +0.089 A 
ATOM     26  N   UNL     1       6.597  -2.046   2.403  0.00  0.00    -0.231 NA
ENDBRANCH   1  17
BRANCH   1  27
ATOM     27  C   UNL     1       4.606  -0.800   0.514  0.00  0.00    +0.065 C 
BRANCH  27  31
ATOM     28  C   UNL     1       0.854   0.328  -1.189  0.00  0.00    +0.000 A 
ATOM     29  C   UNL     1       1.794   1.295  -0.886  0.00  0.00    +0.000 A 
ATOM     30  C   UNL     1       3.008   0.930  -0.335  0.00  0.00    +0.004 A 
ATOM     31  C   UNL     1       3.282  -0.402  -0.086  0.00  0.00    -0.045 A 
ATOM     32  C   UNL     1       2.341  -1.369  -0.387  0.00  0.00    +0.004 A 
ATOM     33  C   UNL     1       1.127  -1.004  -0.940  0.00  0.00    +0.000 A 
ENDBRANCH  27  31
ENDBRANCH   1  27
TORSDOF 5
