REMARK  Name = ZINC04740191
REMARK  7 active torsions:
REMARK  status: ('A' for Active; 'I' for Inactive)
REMARK    1  A    between atoms: C_1  and  O_2
REMARK    2  A    between atoms: O_2  and  C_3
REMARK    3  A    between atoms: C_3  and  C_5
REMARK    4  A    between atoms: C_5  and  C_7
REMARK    5  A    between atoms: C_5  and  N_47
REMARK    6  A    between atoms: C_7  and  C_8
REMARK    7  A    between atoms: N_10  and  C_11
REMARK                            x       y       z     vdW  Elec       q    Type
REMARK                         _______ _______ _______ _____ _____    ______ ____
ROOT
ATOM      1  C   UNL     1      -0.011   1.084   0.010  0.00  0.00    +0.052 C 
ENDROOT
BRANCH   1  11
ATOM      2  C   UNL     1      -0.058   1.128  -2.413  0.00  0.00    -0.073 C 
ATOM      3  C   UNL     1      -1.014   1.351  -3.585  0.00  0.00    +0.017 C 
ATOM      4  C   UNL     1      -1.541   2.762  -3.558  0.00  0.00    -0.048 A 
ATOM      5  C   UNL     1      -2.129   3.271  -4.707  0.00  0.00    +0.004 A 
ATOM      6  C   UNL     1      -2.627   4.558  -4.724  0.00  0.00    +0.000 A 
ATOM      7  C   UNL     1      -2.540   5.344  -3.590  0.00  0.00    +0.000 A 
ATOM      8  C   UNL     1      -1.954   4.840  -2.447  0.00  0.00    +0.002 A 
ATOM      9  C   UNL     1      -1.451   3.547  -2.429  0.00  0.00    -0.061 A 
ATOM     10  C   UNL     1      -0.812   3.044  -1.160  0.00  0.00    -0.042 C 
ATOM     11  N   UNL     1      -0.741   1.573  -1.182  0.00  0.00    +0.392 N 
ATOM     12  H   UNL     1      -1.694   1.191  -1.171  0.00  0.00    -0.080 HD
ENDBRANCH   1  11
BRANCH   1  13
ATOM     13  C   UNL     1       1.405   1.599   0.003  0.00  0.00    +0.294 C 
ATOM     14  O   UNL     1       1.786   2.306  -0.899  0.00  0.00    -0.253 OA
BRANCH  13  16
ATOM     15  C   UNL     1       3.592   1.802   0.927  0.00  0.00    +0.280 C 
ATOM     16  O   UNL     1       2.243   1.270   0.999  0.00  0.00    -0.469 OA
ENDBRANCH  13  16
ENDBRANCH   1  13
BRANCH   1  17
ATOM     17  C   UNL     1      -0.726   1.574   1.270  0.00  0.00    +0.092 C 
BRANCH  17  18
ATOM     18  C   UNL     1      -2.101   0.961   1.339  0.00  0.00    +0.216 C 
ATOM     19  O   UNL     1      -2.473   0.206   0.466  0.00  0.00    -0.276 OA
ATOM     20  N   UNL     1      -2.918   1.251   2.371  0.00  0.00    -0.285 N 
ATOM     21  H   UNL     1      -2.597   1.801   3.103  0.00  0.00    +0.155 HD
BRANCH  20  22
ATOM     22  C   UNL     1      -4.228   0.759   2.387  0.00  0.00    +0.036 A 
ATOM     23  C   UNL     1      -5.251   1.524   2.932  0.00  0.00    +0.043 A 
ATOM     24  C   UNL     1      -6.545   1.038   2.941  0.00  0.00    +0.044 A 
ATOM     25  C   UNL     1      -6.820  -0.213   2.417  0.00  0.00    +0.040 A 
ATOM     26  C   UNL     1      -5.801  -0.979   1.878  0.00  0.00    +0.044 A 
ATOM     27  C   UNL     1      -4.506  -0.495   1.862  0.00  0.00    +0.043 A 
ATOM     28 CL   UNL     1      -6.149  -2.547   1.221  0.00  0.00    -0.083 Cl
ATOM     29 CL   UNL     1      -7.826   1.995   3.617  0.00  0.00    -0.083 Cl
ENDBRANCH  20  22
ENDBRANCH  17  18
ENDBRANCH   1  17
TORSDOF 6
