REMARK  Name = ZINC64015093
REMARK  6 active torsions:
REMARK  status: ('A' for Active; 'I' for Inactive)
REMARK    1  A    between atoms: C_5  and  C_7
REMARK    2  A    between atoms: C_7  and  N_8
REMARK    3  A    between atoms: C_14  and  C_16
REMARK    4  A    between atoms: C_16  and  C_17
REMARK    5  A    between atoms: N_19  and  C_20
REMARK    6  A    between atoms: C_20  and  C_21
REMARK                            x       y       z     vdW  Elec       q    Type
REMARK                         _______ _______ _______ _____ _____    ______ ____
ROOT
ATOM      1  C   UNL     1       0.060  -4.575   1.228  0.00  0.00    +0.124 C 
ENDROOT
BRANCH   1   8
ATOM      2  N   UNL     1       1.615  -2.685   1.276  0.00  0.00    -0.285 NA
ATOM      3  C   UNL     1       2.969  -2.236   1.640  0.00  0.00    +0.104 C 
ATOM      4  C   UNL     1       3.177  -2.467   3.138  0.00  0.00    +0.119 C 
ATOM      5  N   UNL     1       2.808  -3.835   3.489  0.00  0.00    -0.313 N 
ATOM      6  C   UNL     1       2.044  -4.606   2.708  0.00  0.00    +0.231 C 
ATOM      7  O   UNL     1       1.760  -5.721   3.090  0.00  0.00    -0.274 OA
ATOM      8  C   UNL     1       1.522  -4.147   1.375  0.00  0.00    +0.152 C 
ATOM      9  H   UNL     1       3.133  -4.202   4.326  0.00  0.00    +0.149 HD
BRANCH   2  10
ATOM     10  C   UNL     1       1.252  -2.224  -0.071  0.00  0.00    +0.123 C 
BRANCH  10  15
ATOM     11  C   UNL     1      -0.228   1.244   0.129  0.00  0.00    +0.000 A 
ATOM     12  C   UNL     1       0.889   2.034  -0.072  0.00  0.00    +0.003 A 
ATOM     13  C   UNL     1       2.124   1.447  -0.273  0.00  0.00    +0.038 A 
ATOM     14  C   UNL     1       2.243   0.068  -0.273  0.00  0.00    +0.128 A 
ATOM     15  C   UNL     1       1.124  -0.723  -0.071  0.00  0.00    +0.002 A 
ATOM     16  C   UNL     1      -0.110  -0.134   0.130  0.00  0.00    +0.008 A 
ATOM     17  F   UNL     1       3.450  -0.507  -0.469  0.00  0.00    -0.205 F 
ENDBRANCH  10  15
ENDBRANCH   2  10
ENDBRANCH   1   8
BRANCH   1  18
ATOM     18  C   UNL     1      -0.774  -3.878   2.272  0.00  0.00    +0.215 C 
ATOM     19  O   UNL     1      -0.240  -3.184   3.111  0.00  0.00    -0.276 OA
ATOM     20  N   UNL     1      -2.114  -4.027   2.273  0.00  0.00    -0.313 N 
ATOM     21  H   UNL     1      -2.541  -4.583   1.602  0.00  0.00    +0.149 HD
BRANCH  20  22
ATOM     22  C   UNL     1      -2.925  -3.350   3.288  0.00  0.00    +0.132 C 
BRANCH  22  23
ATOM     23  C   UNL     1      -4.402  -3.683   3.066  0.00  0.00    +0.120 C 
ATOM     24  C   UNL     1      -5.235  -3.144   4.206  0.00  0.00    +0.009 C 
ATOM     25  C   UNL     1      -5.827  -4.217   4.778  0.00  0.00    -0.003 A 
ATOM     26  C   UNL     1      -6.746  -4.358   5.914  0.00  0.00    +0.029 A 
ATOM     27  C   UNL     1      -7.180  -5.593   6.258  0.00  0.00    +0.042 A 
ATOM     28  C   UNL     1      -6.774  -6.738   5.558  0.00  0.00    +0.022 A 
ATOM     29  C   UNL     1      -5.933  -6.688   4.504  0.00  0.00    +0.027 A 
ATOM     30  C   UNL     1      -5.415  -5.441   4.055  0.00  0.00    +0.043 A 
ATOM     31  N   UNL     1      -4.599  -5.137   3.074  0.00  0.00    -0.376 N 
ATOM     32 CL   UNL     1      -8.265  -5.763   7.602  0.00  0.00    -0.084 Cl
ATOM     33  H   UNL     1      -4.193  -5.767   2.457  0.00  0.00    +0.160 HD
ENDBRANCH  22  23
ENDBRANCH  20  22
ENDBRANCH   1  18
TORSDOF 6
