REMARK  Name = ZINC04730562
REMARK  8 active torsions:
REMARK  status: ('A' for Active; 'I' for Inactive)
REMARK    1  A    between atoms: C_1  and  C_2
REMARK    2  A    between atoms: C_2  and  C_3
REMARK    3  A    between atoms: C_3  and  N_4
REMARK    4  A    between atoms: C_11  and  C_23
REMARK    5  A    between atoms: C_13  and  C_19
REMARK    6  A    between atoms: C_13  and  C_21
REMARK    7  A    between atoms: C_14  and  N_18
REMARK    8  A    between atoms: C_15  and  C_16
REMARK                            x       y       z     vdW  Elec       q    Type
REMARK                         _______ _______ _______ _____ _____    ______ ____
ROOT
ATOM      1  N   UNL     1      -2.548   0.274   2.120  0.00  0.00    -0.298 NA
ATOM      2  C   UNL     1      -2.106   0.497   3.509  0.00  0.00    +0.112 C 
ATOM      3  C   UNL     1      -0.599   0.557   3.503  0.00  0.00    -0.007 C 
ATOM      4  C   UNL     1       0.037   1.060   2.461  0.00  0.00    -0.026 C 
ATOM      5  C   UNL     1      -0.673   1.639   1.272  0.00  0.00    +0.044 C 
ATOM      6  C   UNL     1      -2.168   1.412   1.279  0.00  0.00    +0.093 C 
ATOM      7  C   UNL     1      -0.013   1.086   0.008  0.00  0.00    +0.069 C 
ATOM      8  C   UNL     1       1.440   1.560  -0.038  0.00  0.00    +0.188 C 
ATOM      9  C   UNL     1       2.156   1.289   1.250  0.00  0.00    +0.054 C 
ATOM     10  C   UNL     1       1.521   1.065   2.429  0.00  0.00    +0.074 C 
ENDROOT
BRANCH   7  11
ATOM     11  C   UNL     1      -0.746   1.587  -1.209  0.00  0.00    -0.023 A 
ATOM     12  C   UNL     1      -0.988   2.940  -1.362  0.00  0.00    +0.005 A 
ATOM     13  C   UNL     1      -1.661   3.400  -2.478  0.00  0.00    +0.000 A 
ATOM     14  C   UNL     1      -2.093   2.508  -3.442  0.00  0.00    +0.001 A 
ATOM     15  C   UNL     1      -1.851   1.156  -3.291  0.00  0.00    +0.020 A 
ATOM     16  C   UNL     1      -1.173   0.695  -2.176  0.00  0.00    +0.045 A 
ATOM     17 CL   UNL     1      -0.864  -1.003  -1.988  0.00  0.00    -0.083 Cl
ENDBRANCH   7  11
BRANCH   9  18
ATOM     18  N   UNL     1       3.523   1.265   1.238  0.00  0.00    -0.358 N 
ATOM     19  H   UNL     1       4.078   1.069   2.167  0.00  0.00    +0.142 HD
ATOM     20  H   UNL     1       4.067   1.442   0.298  0.00  0.00    +0.142 HD
ENDBRANCH   9  18
BRANCH  10  21
ATOM     21  C   UNL     1       2.273   0.837   3.626  0.00  0.00    +0.101 C 
ATOM     22  N   UNL     1       2.870   0.655   4.575  0.00  0.00    -0.191 NA
ENDBRANCH  10  21
BRANCH   8  23
ATOM     23  C   UNL     1       2.138   0.861  -1.130  0.00  0.00    +0.091 C 
ATOM     24  N   UNL     1       2.676   0.322  -1.973  0.00  0.00    -0.194 NA
ENDBRANCH   8  23
BRANCH   8  25
ATOM     25  C   UNL     1       1.464   3.007  -0.303  0.00  0.00    +0.091 C 
ATOM     26  N   UNL     1       1.483   4.125  -0.508  0.00  0.00    -0.194 NA
ENDBRANCH   8  25
BRANCH   1  27
ATOM     27  C   UNL     1      -3.996   0.036   2.061  0.00  0.00    +0.084 C 
BRANCH  27  29
ATOM     28  C   UNL     1      -5.835  -1.530   2.702  0.00  0.00    +0.005 C 
ATOM     29  C   UNL     1      -4.326  -1.282   2.764  0.00  0.00    +0.012 C 
ENDBRANCH  27  29
ENDBRANCH   1  27
TORSDOF 7
