REMARK  Name = ZINC57458864
REMARK  6 active torsions:
REMARK  status: ('A' for Active; 'I' for Inactive)
REMARK    1  A    between atoms: C_1  and  C_2
REMARK    2  A    between atoms: C_3  and  C_18
REMARK    3  A    between atoms: C_4  and  C_11
REMARK    4  A    between atoms: N_9  and  C_10
REMARK    5  A    between atoms: N_20  and  C_21
REMARK    6  A    between atoms: C_24  and  N_27
REMARK                            x       y       z     vdW  Elec       q    Type
REMARK                         _______ _______ _______ _____ _____    ______ ____
ROOT
ATOM      1  C   UNL     1      -0.605   1.621   1.516  0.00  0.00    +0.061 C 
ATOM      2  C   UNL     1      -0.376   0.210   1.040  0.00  0.00    +0.019 C 
ATOM      3  C   UNL     1      -1.436  -0.596   0.819  0.00  0.00    +0.056 C 
ATOM      4  C   UNL     1      -1.161  -2.008   0.341  0.00  0.00    +0.142 C 
ATOM      5  N   UNL     1       0.250  -2.386   0.155  0.00  0.00    -0.315 N 
ATOM      6  C   UNL     1       1.200  -1.468   0.417  0.00  0.00    +0.137 C 
ATOM      7  S   UNL     1       2.845  -1.894   0.205  0.00  0.00    -0.018 S 
ATOM      8  N   UNL     1       0.900  -0.231   0.833  0.00  0.00    -0.289 N 
ATOM      9  C   UNL     1       2.003   0.700   1.087  0.00  0.00    +0.137 C 
ATOM     10  H   UNL     1       0.489  -3.276  -0.149  0.00  0.00    +0.149 HD
ENDROOT
BRANCH   4  11
ATOM     11  C   UNL     1      -1.770  -2.962   1.335  0.00  0.00    +0.013 A 
ATOM     12  C   UNL     1      -2.022  -2.545   2.628  0.00  0.00    +0.008 A 
ATOM     13  C   UNL     1      -2.581  -3.420   3.541  0.00  0.00    +0.001 A 
ATOM     14  C   UNL     1      -2.888  -4.714   3.161  0.00  0.00    +0.003 A 
ATOM     15  C   UNL     1      -2.638  -5.133   1.868  0.00  0.00    +0.039 A 
ATOM     16  C   UNL     1      -2.083  -4.255   0.952  0.00  0.00    +0.129 A 
ATOM     17  F   UNL     1      -1.841  -4.662  -0.314  0.00  0.00    -0.205 F 
ENDBRANCH   4  11
BRANCH   3  18
ATOM     18  C   UNL     1      -2.760  -0.139   1.028  0.00  0.00    +0.248 C 
ATOM     19  O   UNL     1      -2.954   0.962   1.511  0.00  0.00    -0.270 OA
ATOM     20  N   UNL     1      -3.804  -0.922   0.692  0.00  0.00    -0.282 N 
ATOM     21  H   UNL     1      -3.650  -1.822   0.366  0.00  0.00    +0.155 HD
BRANCH  20  22
ATOM     22  C   UNL     1      -5.110  -0.435   0.812  0.00  0.00    +0.034 A 
ATOM     23  C   UNL     1      -5.398   0.878   0.466  0.00  0.00    +0.025 A 
ATOM     24  C   UNL     1      -6.689   1.355   0.586  0.00  0.00    +0.034 A 
ATOM     25  C   UNL     1      -7.693   0.526   1.051  0.00  0.00    +0.126 A 
ATOM     26  C   UNL     1      -7.409  -0.782   1.398  0.00  0.00    +0.034 A 
ATOM     27  C   UNL     1      -6.122  -1.267   1.274  0.00  0.00    +0.025 A 
BRANCH  25  28
ATOM     28  N   UNL     1      -9.075   1.041   1.179  0.00  0.00    +0.056 N 
ATOM     29  O   UNL     1      -9.325   2.185   0.877  0.00  0.00    -0.126 OA
ATOM     30  O   UNL     1      -9.954   0.318   1.585  0.00  0.00    -0.126 OA
ENDBRANCH  25  28
ENDBRANCH  20  22
ENDBRANCH   3  18
TORSDOF 4
