REMARK  Name = ZINC40823909
REMARK  7 active torsions:
REMARK  status: ('A' for Active; 'I' for Inactive)
REMARK    1  A    between atoms: C_1  and  C_2
REMARK    2  A    between atoms: C_6  and  C_7
REMARK    3  A    between atoms: N_9  and  N_10
REMARK    4  A    between atoms: C_11  and  C_13
REMARK    5  A    between atoms: C_13  and  C_14
REMARK    6  A    between atoms: N_24  and  N_25
REMARK    7  A    between atoms: N_25  and  C_26
REMARK                            x       y       z     vdW  Elec       q    Type
REMARK                         _______ _______ _______ _____ _____    ______ ____
ROOT
ATOM      1  C   UNL     1      -0.018   1.503   0.010  0.00  0.00    +0.048 C 
ATOM      2  C   UNL     1       0.002  -0.004   0.002  0.00  0.00    +0.009 A 
ATOM      3  C   UNL     1       0.008  -0.838  -1.122  0.00  0.00    +0.042 A 
ATOM      4  C   UNL     1       0.026  -2.137  -0.673  0.00  0.00    +0.115 A 
ATOM      5  O   UNL     1       0.034  -2.112   0.658  0.00  0.00    -0.454 OA
ATOM      6  C   UNL     1       0.024  -0.830   1.091  0.00  0.00    +0.194 A 
ATOM      7  C   UNL     1       0.032  -3.326  -1.600  0.00  0.00    +0.075 C 
ATOM      8  C   UNL     1      -0.492  -2.902  -2.975  0.00  0.00    +0.014 C 
ATOM      9  C   UNL     1       0.279  -1.684  -3.495  0.00  0.00    +0.058 C 
ATOM     10  C   UNL     1       0.001  -0.511  -2.566  0.00  0.00    +0.070 C 
ATOM     11  N   UNL     1      -0.227   0.687  -3.008  0.00  0.00    -0.186 NA
ENDROOT
BRANCH   6  12
ATOM     12  C   UNL     1       0.032  -0.400   2.494  0.00  0.00    +0.296 C 
ATOM     13  O   UNL     1       0.018   0.786   2.766  0.00  0.00    -0.265 OA
ATOM     14  N   UNL     1       0.054  -1.317   3.480  0.00  0.00    -0.228 N 
ATOM     15  H   UNL     1       0.065  -2.263   3.263  0.00  0.00    +0.173 HD
BRANCH  14  16
ATOM     16  N   UNL     1       0.061  -0.906   4.820  0.00  0.00    -0.234 N 
ATOM     17  C   UNL     1       0.084  -1.824   5.806  0.00  0.00    +0.233 C 
ATOM     18  O   UNL     1       0.097  -3.006   5.535  0.00  0.00    -0.274 OA
ATOM     19  H   UNL     1       0.050   0.039   5.037  0.00  0.00    +0.173 HD
BRANCH  17  20
ATOM     20  C   UNL     1       0.091  -1.381   7.247  0.00  0.00    +0.132 C 
BRANCH  20  21
ATOM     21  C   UNL     1       0.117  -2.592   8.144  0.00  0.00    -0.039 A 
ATOM     22  C   UNL     1      -1.068  -3.167   8.563  0.00  0.00    +0.004 A 
ATOM     23  C   UNL     1      -1.045  -4.277   9.386  0.00  0.00    +0.000 A 
ATOM     24  C   UNL     1       0.164  -4.813   9.790  0.00  0.00    +0.000 A 
ATOM     25  C   UNL     1       1.349  -4.238   9.370  0.00  0.00    +0.000 A 
ATOM     26  C   UNL     1       1.325  -3.130   8.544  0.00  0.00    +0.004 A 
ENDBRANCH  20  21
ENDBRANCH  17  20
ENDBRANCH  14  16
ENDBRANCH   6  12
BRANCH  11  27
ATOM     27  N   UNL     1      -0.222   0.939  -4.386  0.00  0.00    -0.238 N 
ATOM     28  H   UNL     1      -0.048   0.217  -5.010  0.00  0.00    +0.174 HD
BRANCH  27  29
ATOM     29  C   UNL     1      -0.467   2.229  -4.861  0.00  0.00    +0.048 A 
ATOM     30  C   UNL     1      -0.710   3.265  -3.967  0.00  0.00    +0.027 A 
ATOM     31  C   UNL     1      -0.952   4.540  -4.440  0.00  0.00    +0.040 A 
ATOM     32  C   UNL     1      -0.952   4.787  -5.803  0.00  0.00    +0.124 A 
ATOM     33  C   UNL     1      -0.710   3.756  -6.695  0.00  0.00    +0.040 A 
ATOM     34  C   UNL     1      -0.462   2.480  -6.228  0.00  0.00    +0.027 A 
ATOM     35  F   UNL     1      -1.190   6.035  -6.262  0.00  0.00    -0.205 F 
ENDBRANCH  27  29
ENDBRANCH  11  27
TORSDOF 6
