REMARK  Name = ZINC51850514
REMARK  2 active torsions:
REMARK  status: ('A' for Active; 'I' for Inactive)
REMARK    1  A    between atoms: C_6  and  S_7
REMARK    2  A    between atoms: S_7  and  C_8
REMARK                            x       y       z     vdW  Elec       q    Type
REMARK                         _______ _______ _______ _____ _____    ______ ____
ROOT
ATOM      1  C   UNL     1      -0.017   1.392   0.010  0.00  0.00    +0.055 A 
ATOM      2  C   UNL     1       1.189   2.065   0.002  0.00  0.00    +0.116 A 
ATOM      3  N   UNL     1       2.318   1.369  -0.013  0.00  0.00    -0.226 NA
ATOM      4  C   UNL     1       2.303   0.050  -0.020  0.00  0.00    +0.224 A 
ATOM      5  N   UNL     1       1.175  -0.632  -0.013  0.00  0.00    -0.211 NA
ATOM      6  C   UNL     1       0.002  -0.004   0.002  0.00  0.00    +0.108 A 
ATOM      7 CL   UNL     1       3.810  -0.811  -0.039  0.00  0.00    -0.041 Cl
ENDROOT
BRANCH   6   8
ATOM      8  S   UNL     1      -1.503  -0.920   0.012  0.00  0.00    -0.041 S 
BRANCH   8   9
ATOM      9  C   UNL     1      -0.979  -2.602  -0.002  0.00  0.00    +0.164 A 
ATOM     10  N   UNL     1       0.244  -3.115  -0.011  0.00  0.00    -0.135 NA
ATOM     11  N   UNL     1       0.443  -4.360  -0.021  0.00  0.00    -0.149 NA
ATOM     12  C   UNL     1      -0.548  -5.229  -0.023  0.00  0.00    +0.182 A 
ATOM     13  S   UNL     1      -1.945  -4.109  -0.001  0.00  0.00    -0.047 S 
ENDBRANCH   8   9
ENDBRANCH   6   8
TORSDOF 2
