REMARK  Name = ZINC37105414
REMARK  4 active torsions:
REMARK  status: ('A' for Active; 'I' for Inactive)
REMARK    1  A    between atoms: C_4  and  C_7
REMARK    2  A    between atoms: C_7  and  C_9
REMARK    3  A    between atoms: C_7  and  N_14
REMARK    4  A    between atoms: N_14  and  C_15
REMARK                            x       y       z     vdW  Elec       q    Type
REMARK                         _______ _______ _______ _____ _____    ______ ____
ROOT
ATOM      1  C   UNL     1       3.711  -0.707  -0.038  0.00  0.00    +0.167 C 
ENDROOT
BRANCH   1   5
ATOM      2  C   UNL     1      -0.017   1.378   0.010  0.00  0.00    +0.000 A 
ATOM      3  C   UNL     1       1.171   2.086   0.002  0.00  0.00    +0.000 A 
ATOM      4  C   UNL     1       2.377   1.411  -0.013  0.00  0.00    +0.006 A 
ATOM      5  C   UNL     1       2.396   0.029  -0.020  0.00  0.00    -0.020 A 
ATOM      6  C   UNL     1       1.208  -0.679  -0.012  0.00  0.00    +0.006 A 
ATOM      7  C   UNL     1       0.002  -0.004   0.002  0.00  0.00    +0.000 A 
ENDBRANCH   1   5
BRANCH   1   8
ATOM      8  C   UNL     1       4.014  -1.161  -1.442  0.00  0.00    +0.129 A 
ATOM      9  C   UNL     1       4.853  -0.554  -2.301  0.00  0.00    +0.047 A 
ATOM     10  C   UNL     1       4.836  -1.311  -3.495  0.00  0.00    +0.041 A 
ATOM     11  C   UNL     1       3.988  -2.336  -3.294  0.00  0.00    +0.195 A 
ATOM     12  O   UNL     1       3.497  -2.243  -2.047  0.00  0.00    -0.466 OA
ENDBRANCH   1   8
BRANCH   1  13
ATOM     13  N   UNL     1       3.630  -1.873   0.845  0.00  0.00    -0.329 N 
ATOM     14  H   UNL     1       2.769  -2.277   1.038  0.00  0.00    +0.147 HD
BRANCH  13  15
ATOM     15  C   UNL     1       4.793  -2.404   1.411  0.00  0.00    +0.047 A 
ATOM     16  C   UNL     1       6.026  -1.823   1.141  0.00  0.00    +0.025 A 
ATOM     17  C   UNL     1       7.173  -2.349   1.702  0.00  0.00    +0.016 A 
ATOM     18  C   UNL     1       7.096  -3.454   2.531  0.00  0.00    +0.015 A 
ATOM     19  C   UNL     1       5.870  -4.036   2.802  0.00  0.00    +0.036 A 
ATOM     20  C   UNL     1       4.718  -3.510   2.249  0.00  0.00    +0.063 A 
ATOM     21 CL   UNL     1       3.179  -4.236   2.594  0.00  0.00    -0.082 Cl
ATOM     22  I   UNL     1       8.840  -4.248   3.378  0.00  0.00    -0.044 I 
ENDBRANCH  13  15
ENDBRANCH   1  13
TORSDOF 4
