REMARK  Name = ZINC22060356
REMARK  7 active torsions:
REMARK  status: ('A' for Active; 'I' for Inactive)
REMARK    1  A    between atoms: C_4  and  N_26
REMARK    2  A    between atoms: C_5  and  N_7
REMARK    3  A    between atoms: C_8  and  C_10
REMARK    4  A    between atoms: C_10  and  S_11
REMARK    5  A    between atoms: S_11  and  C_12
REMARK    6  A    between atoms: C_15  and  C_18
REMARK    7  A    between atoms: N_16  and  N_17
REMARK                            x       y       z     vdW  Elec       q    Type
REMARK                         _______ _______ _______ _____ _____    ______ ____
ROOT
ATOM      1  C   UNL     1      -0.006  -1.931  -3.593  0.00  0.00    +0.173 C 
ENDROOT
BRANCH   1   3
ATOM      2  N   UNL     1      -0.048  -2.814  -5.904  0.00  0.00    -0.283 N 
ATOM      3  C   UNL     1      -0.043  -1.741  -5.088  0.00  0.00    +0.228 C 
ATOM      4  O   UNL     1      -0.069  -0.623  -5.557  0.00  0.00    -0.275 OA
ATOM      5  H   UNL     1       0.049  -3.825  -5.482  0.00  0.00    +0.155 HD
BRANCH   2  10
ATOM      6  C   UNL     1       0.264  -1.369  -9.272  0.00  0.00    +0.002 A 
ATOM      7  C   UNL     1      -0.432  -2.297 -10.025  0.00  0.00    +0.002 A 
ATOM      8  C   UNL     1      -1.004  -3.398  -9.417  0.00  0.00    +0.025 A 
ATOM      9  C   UNL     1      -0.880  -3.576  -8.047  0.00  0.00    +0.057 A 
ATOM     10  C   UNL     1      -0.177  -2.641  -7.287  0.00  0.00    +0.055 A 
ATOM     11  C   UNL     1       0.389  -1.536  -7.906  0.00  0.00    +0.025 A 
BRANCH   9  12
ATOM     12  N   UNL     1      -1.459  -4.691  -7.428  0.00  0.00    -0.270 N 
ATOM     13  C   UNL     1      -2.821  -4.721  -6.883  0.00  0.00    +0.114 C 
ATOM     14  C   UNL     1      -3.164  -6.220  -6.718  0.00  0.00    +0.029 C 
ATOM     15  C   UNL     1      -1.760  -6.847  -6.559  0.00  0.00    +0.098 C 
ATOM     16  C   UNL     1      -0.836  -5.869  -7.251  0.00  0.00    +0.220 C 
ATOM     17  O   UNL     1       0.301  -6.112  -7.597  0.00  0.00    -0.275 OA
ENDBRANCH   9  12
ENDBRANCH   2  10
ENDBRANCH   1   3
BRANCH   1  18
ATOM     18  S   UNL     1      -0.009  -0.314  -2.779  0.00  0.00    -0.075 S 
BRANCH  18  19
ATOM     19  C   UNL     1       0.037  -0.821  -1.092  0.00  0.00    +0.209 A 
ATOM     20  N   UNL     1       0.066  -2.058  -0.651  0.00  0.00    -0.121 NA
ATOM     21  N   UNL     1       0.090  -2.068   0.634  0.00  0.00    -0.127 NA
ATOM     22  C   UNL     1       0.082  -0.837   1.092  0.00  0.00    +0.183 A 
ATOM     23  N   UNL     1       0.052  -0.001  -0.000  0.00  0.00    -0.224 N 
BRANCH  22  24
ATOM     24  C   UNL     1       0.103  -0.428   2.512  0.00  0.00    +0.039 A 
ATOM     25  C   UNL     1       0.099   0.926   2.851  0.00  0.00    +0.014 A 
ATOM     26  C   UNL     1       0.113   1.302   4.178  0.00  0.00    +0.021 A 
ATOM     27  C   UNL     1       0.144   0.340   5.173  0.00  0.00    +0.042 A 
ATOM     28  C   UNL     1       0.154  -1.005   4.845  0.00  0.00    +0.040 A 
ATOM     29  C   UNL     1       0.134  -1.394   3.520  0.00  0.00    +0.053 A 
ATOM     30 CL   UNL     1       0.148  -3.081   3.108  0.00  0.00    -0.083 Cl
ATOM     31 CL   UNL     1       0.168   0.822   6.841  0.00  0.00    -0.083 Cl
ENDBRANCH  22  24
BRANCH  23  32
ATOM     32  N   UNL     1       0.034   1.365   0.007  0.00  0.00    -0.295 N 
ATOM     33  H   UNL     1       0.049   1.911   0.962  0.00  0.00    +0.163 HD
ATOM     34  H   UNL     1       0.004   1.920  -0.943  0.00  0.00    +0.163 HD
ENDBRANCH  23  32
ENDBRANCH  18  19
ENDBRANCH   1  18
TORSDOF 7
