REMARK  Name = ZINC11635349
REMARK  5 active torsions:
REMARK  status: ('A' for Active; 'I' for Inactive)
REMARK    1  A    between atoms: C_1  and  C_2
REMARK    2  A    between atoms: C_7  and  S_8
REMARK    3  A    between atoms: S_8  and  N_11
REMARK    4  A    between atoms: N_11  and  C_12
REMARK    5  A    between atoms: N_11  and  C_18
REMARK                            x       y       z     vdW  Elec       q    Type
REMARK                         _______ _______ _______ _____ _____    ______ ____
ROOT
ATOM      1  S   UNL     1       0.532   2.125  -3.472  0.00  0.00    +0.062 S 
ATOM      2  O   UNL     1       0.610   1.336  -4.651  0.00  0.00    -0.153 OA
ATOM      3  O   UNL     1      -0.215   3.332  -3.412  0.00  0.00    -0.153 OA
ENDROOT
BRANCH   1  10
ATOM      4  C   UNL     1       1.277   3.788  -1.064  0.00  0.00    +0.046 C 
ATOM      5  C   UNL     1       2.430   3.305  -1.905  0.00  0.00    -0.022 A 
ATOM      6  C   UNL     1       3.725   3.632  -1.551  0.00  0.00    +0.033 A 
ATOM      7  C   UNL     1       4.785   3.187  -2.325  0.00  0.00    +0.067 A 
ATOM      8  C   UNL     1       4.541   2.411  -3.460  0.00  0.00    +0.069 A 
ATOM      9  C   UNL     1       3.239   2.083  -3.804  0.00  0.00    +0.056 A 
ATOM     10  C   UNL     1       2.188   2.535  -3.030  0.00  0.00    +0.110 A 
ATOM     11  N   UNL     1       5.781   2.119  -4.023  0.00  0.00    -0.306 N 
ATOM     12  H   UNL     1       5.931   1.593  -4.824  0.00  0.00    +0.170 HD
ATOM     13  C   UNL     1       6.736   2.692  -3.266  0.00  0.00    +0.325 A 
ATOM     14  O   UNL     1       7.932   2.630  -3.481  0.00  0.00    -0.247 OA
ATOM     15  N   UNL     1       6.166   3.343  -2.234  0.00  0.00    -0.306 N 
ATOM     16  H   UNL     1       6.638   3.837  -1.545  0.00  0.00    +0.170 HD
ENDBRANCH   1  10
BRANCH   1  17
ATOM     17  N   UNL     1      -0.063   1.140  -2.281  0.00  0.00    -0.170 NA
BRANCH  17  18
ATOM     18  C   UNL     1      -0.938   1.692  -1.244  0.00  0.00    +0.080 C 
ATOM     19  C   UNL     1      -0.795   0.866   0.036  0.00  0.00    +0.020 C 
ATOM     20  C   UNL     1      -1.709   1.442   1.120  0.00  0.00    +0.002 C 
ATOM     21  C   UNL     1      -3.161   1.393   0.641  0.00  0.00    +0.000 C 
ATOM     22  C   UNL     1      -3.304   2.219  -0.639  0.00  0.00    +0.002 C 
ATOM     23  C   UNL     1      -2.390   1.643  -1.723  0.00  0.00    +0.020 C 
ENDBRANCH  17  18
BRANCH  17  24
ATOM     24  C   UNL     1       0.286  -0.282  -2.265  0.00  0.00    +0.080 C 
ATOM     25  C   UNL     1      -0.989  -1.121  -2.383  0.00  0.00    +0.020 C 
ATOM     26  C   UNL     1      -0.625  -2.607  -2.366  0.00  0.00    +0.002 C 
ATOM     27  C   UNL     1       0.088  -2.943  -1.054  0.00  0.00    +0.000 C 
ATOM     28  C   UNL     1       1.362  -2.104  -0.937  0.00  0.00    +0.002 C 
ATOM     29  C   UNL     1       0.998  -0.618  -0.954  0.00  0.00    +0.020 C 
ENDBRANCH  17  24
ENDBRANCH   1  17
TORSDOF 4
