REMARK  Name = ZINC36159830
REMARK  10 active torsions:
REMARK  status: ('A' for Active; 'I' for Inactive)
REMARK    1  A    between atoms: C_3  and  C_6
REMARK    2  A    between atoms: C_6  and  O_7
REMARK    3  A    between atoms: O_7  and  C_8
REMARK    4  A    between atoms: C_8  and  C_9
REMARK    5  A    between atoms: C_9  and  C_11
REMARK    6  A    between atoms: C_9  and  O_34
REMARK    7  A    between atoms: C_11  and  N_12
REMARK    8  A    between atoms: N_12  and  C_13
REMARK    9  A    between atoms: N_12  and  C_28
REMARK   10  A    between atoms: C_13  and  C_14
REMARK                            x       y       z     vdW  Elec       q    Type
REMARK                         _______ _______ _______ _____ _____    ______ ____
ROOT
ATOM      1  N   UNL     1       7.834   0.807   4.441  0.00  0.00    +0.388 N 
ATOM      2  H   UNL     1       7.424   0.109   5.043  0.00  0.00    -0.081 HD
ENDROOT
BRANCH   1   3
ATOM      3  C   UNL     1       7.344   2.137   4.828  0.00  0.00    -0.068 C 
ATOM      4  C   UNL     1       8.005   3.200   3.948  0.00  0.00    -0.015 C 
ATOM      5  C   UNL     1       7.495   4.585   4.352  0.00  0.00    -0.002 C 
ATOM      6  C   UNL     1       7.842   4.849   5.818  0.00  0.00    -0.000 C 
ATOM      7  C   UNL     1       7.182   3.786   6.698  0.00  0.00    -0.002 C 
ATOM      8  C   UNL     1       7.692   2.401   6.295  0.00  0.00    -0.015 C 
ENDBRANCH   1   3
BRANCH   1   9
ATOM      9  C   UNL     1       7.457   0.534   3.048  0.00  0.00    -0.044 C 
BRANCH   9  10
ATOM     10  C   UNL     1       5.934   0.437   2.941  0.00  0.00    +0.124 C 
BRANCH  10  11
ATOM     11  O   UNL     1       5.473  -0.681   3.701  0.00  0.00    -0.391 OA
ATOM     12  H   UNL     1       5.833  -1.530   3.411  0.00  0.00    +0.210 HD
ENDBRANCH  10  11
BRANCH  10  13
ATOM     13  C   UNL     1       5.536   0.256   1.474  0.00  0.00    +0.189 C 
BRANCH  13  14
ATOM     14  O   UNL     1       4.112   0.282   1.361  0.00  0.00    -0.370 OA
BRANCH  14  15
ATOM     15  C   UNL     1       3.632   0.120   0.024  0.00  0.00    +0.234 C 
BRANCH  15  18
ATOM     16  C   UNL     1       0.021   0.852  -0.064  0.00  0.00    +0.041 A 
ATOM     17  C   UNL     1       1.371   1.268  -0.121  0.00  0.00    +0.047 A 
ATOM     18  C   UNL     1       2.126   0.164   0.022  0.00  0.00    +0.130 A 
ATOM     19  O   UNL     1       1.309  -0.893   0.163  0.00  0.00    -0.465 OA
ATOM     20  C   UNL     1       0.032  -0.482   0.112  0.00  0.00    +0.195 A 
ENDBRANCH  15  18
ENDBRANCH  14  15
ENDBRANCH  13  14
ENDBRANCH  10  13
ENDBRANCH   9  10
ENDBRANCH   1   9
BRANCH   1  21
ATOM     21  C   UNL     1       9.297   0.767   4.569  0.00  0.00    -0.003 C 
BRANCH  21  22
ATOM     22  C   UNL     1       9.668   0.524   6.010  0.00  0.00    +0.094 A 
ATOM     23  N   UNL     1      10.970   0.607   6.385  0.00  0.00    -0.312 N 
ATOM     24  H   UNL     1      11.643   0.822   5.721  0.00  0.00    +0.170 HD
ATOM     25  C   UNL     1      11.346   0.397   7.661  0.00  0.00    +0.260 A 
ATOM     26  O   UNL     1      12.518   0.475   7.984  0.00  0.00    -0.267 OA
ATOM     27  C   UNL     1      10.341   0.081   8.632  0.00  0.00    +0.075 A 
ATOM     28  C   UNL     1      10.519  -0.185  10.068  0.00  0.00    -0.023 A 
ATOM     29  C   UNL     1       9.411  -0.463  10.776  0.00  0.00    -0.004 A 
ATOM     30  S   UNL     1       8.081  -0.386   9.597  0.00  0.00    -0.073 S 
ATOM     31  C   UNL     1       9.026   0.017   8.152  0.00  0.00    +0.116 A 
ATOM     32  N   UNL     1       8.730   0.243   6.874  0.00  0.00    -0.229 NA
ATOM     33  C   UNL     1       9.714  -0.722  12.227  0.00  0.00    +0.043 C 
ATOM     34  C   UNL     1      11.234  -0.993  12.263  0.00  0.00    +0.010 C 
ATOM     35  C   UNL     1      11.719  -0.225  11.018  0.00  0.00    +0.037 C 
ENDBRANCH  21  22
ENDBRANCH   1  21
TORSDOF 10
