REMARK  Name = ZINC27256526
REMARK  7 active torsions:
REMARK  status: ('A' for Active; 'I' for Inactive)
REMARK    1  A    between atoms: C_1  and  C_2
REMARK    2  A    between atoms: C_3  and  C_30
REMARK    3  A    between atoms: C_7  and  N_8
REMARK    4  A    between atoms: C_9  and  C_11
REMARK    5  A    between atoms: C_12  and  C_13
REMARK    6  A    between atoms: N_15  and  C_24
REMARK    7  A    between atoms: C_17  and  C_18
REMARK                            x       y       z     vdW  Elec       q    Type
REMARK                         _______ _______ _______ _____ _____    ______ ____
ROOT
ATOM      1  C   UNL     1       0.500   0.160   4.784  0.00  0.00    +0.068 C 
ATOM      2  C   UNL     1       0.706  -0.498   5.947  0.00  0.00    +0.016 C 
ENDROOT
BRANCH   2   3
ATOM      3  C   UNL     1       0.872   0.255   7.196  0.00  0.00    +0.021 A 
ATOM      4  C   UNL     1       0.839   1.629   7.346  0.00  0.00    +0.123 A 
ATOM      5  N   UNL     1       1.033   1.905   8.648  0.00  0.00    -0.239 N 
ATOM      6  N   UNL     1       1.195   0.715   9.362  0.00  0.00    -0.166 NA
ATOM      7  C   UNL     1       1.101  -0.301   8.534  0.00  0.00    +0.100 A 
BRANCH   7   8
ATOM      8  C   UNL     1       1.208  -1.737   8.885  0.00  0.00    +0.003 A 
ATOM      9  C   UNL     1       0.442  -2.683   8.206  0.00  0.00    +0.010 A 
ATOM     10  C   UNL     1       0.547  -4.019   8.537  0.00  0.00    +0.001 A 
ATOM     11  C   UNL     1       1.410  -4.420   9.540  0.00  0.00    +0.000 A 
ATOM     12  C   UNL     1       2.173  -3.486  10.218  0.00  0.00    +0.001 A 
ATOM     13  C   UNL     1       2.080  -2.148   9.893  0.00  0.00    +0.010 A 
ENDBRANCH   7   8
BRANCH   5  14
ATOM     14  C   UNL     1       1.068   3.191   9.204  0.00  0.00    +0.065 A 
ATOM     15  C   UNL     1       0.889   4.304   8.393  0.00  0.00    +0.028 A 
ATOM     16  C   UNL     1       0.924   5.570   8.944  0.00  0.00    +0.002 A 
ATOM     17  C   UNL     1       1.137   5.729  10.301  0.00  0.00    +0.000 A 
ATOM     18  C   UNL     1       1.316   4.623  11.111  0.00  0.00    +0.002 A 
ATOM     19  C   UNL     1       1.276   3.354  10.567  0.00  0.00    +0.028 A 
ENDBRANCH   5  14
ENDBRANCH   2   3
BRANCH   1  21
ATOM     20  N   UNL     1       0.135   0.088   2.418  0.00  0.00    -0.282 N 
ATOM     21  C   UNL     1       0.340  -0.568   3.578  0.00  0.00    +0.241 C 
ATOM     22  O   UNL     1       0.386  -1.784   3.589  0.00  0.00    -0.270 OA
ATOM     23  H   UNL     1       0.023   1.051   2.418  0.00  0.00    +0.155 HD
BRANCH  20  30
ATOM     24  C   UNL     1      -1.159   1.305   0.198  0.00  0.00    +0.046 C 
ATOM     25  C   UNL     1      -0.537  -0.064   0.107  0.00  0.00    -0.017 A 
ATOM     26  C   UNL     1      -0.580  -0.773  -1.094  0.00  0.00    +0.041 A 
ATOM     27  C   UNL     1      -0.001  -2.041  -1.171  0.00  0.00    +0.013 A 
ATOM     28  C   UNL     1       0.611  -2.589  -0.062  0.00  0.00    +0.003 A 
ATOM     29  C   UNL     1       0.653  -1.887   1.128  0.00  0.00    +0.023 A 
ATOM     30  C   UNL     1       0.085  -0.621   1.213  0.00  0.00    +0.037 A 
BRANCH  26  31
ATOM     31  C   UNL     1      -1.236  -0.184  -2.281  0.00  0.00    +0.242 C 
ATOM     32  O   UNL     1      -1.627   0.967  -2.250  0.00  0.00    -0.270 OA
ATOM     33  N   UNL     1      -1.400  -0.922  -3.396  0.00  0.00    -0.325 N 
ATOM     34  H   UNL     1      -1.088  -1.840  -3.420  0.00  0.00    +0.145 HD
ATOM     35  H   UNL     1      -1.831  -0.535  -4.174  0.00  0.00    +0.145 HD
ENDBRANCH  26  31
ENDBRANCH  20  30
ENDBRANCH   1  21
TORSDOF 6
