REMARK  Name = ZINC20428856
REMARK  9 active torsions:
REMARK  status: ('A' for Active; 'I' for Inactive)
REMARK    1  A    between atoms: C_4  and  S_8
REMARK    2  A    between atoms: C_6  and  N_7
REMARK    3  A    between atoms: S_8  and  C_9
REMARK    4  A    between atoms: C_9  and  C_10
REMARK    5  A    between atoms: C_13  and  C_16
REMARK    6  A    between atoms: N_14  and  N_15
REMARK    7  A    between atoms: C_16  and  S_17
REMARK    8  A    between atoms: S_17  and  C_18
REMARK    9  A    between atoms: C_22  and  N_24
REMARK                            x       y       z     vdW  Elec       q    Type
REMARK                         _______ _______ _______ _____ _____    ______ ____
ROOT
ATOM      1  C   UNL     1      -0.282   1.801  -2.277  0.00  0.00    +0.161 A 
ATOM      2  N   UNL     1      -1.301   2.226  -2.974  0.00  0.00    -0.132 NA
ATOM      3  N   UNL     1      -2.361   2.208  -2.245  0.00  0.00    -0.132 NA
ATOM      4  C   UNL     1      -2.067   1.764  -1.053  0.00  0.00    +0.161 A 
ATOM      5  N   UNL     1      -0.741   1.490  -1.041  0.00  0.00    -0.235 N 
ENDROOT
BRANCH   5   6
ATOM      6  N   UNL     1      -0.012   1.005   0.008  0.00  0.00    -0.295 N 
ATOM      7  H   UNL     1      -0.504   0.791   0.968  0.00  0.00    +0.163 HD
ATOM      8  H   UNL     1       1.068   0.828  -0.108  0.00  0.00    +0.163 HD
ENDBRANCH   5   6
BRANCH   1   9
ATOM      9  C   UNL     1       1.139   1.676  -2.761  0.00  0.00    +0.155 C 
BRANCH   9  10
ATOM     10  S   UNL     1       1.392   0.031  -3.472  0.00  0.00    -0.078 S 
BRANCH  10  14
ATOM     11  C   UNL     1       5.670   0.350  -4.657  0.00  0.00    +0.086 A 
ATOM     12  C   UNL     1       4.952  -0.820  -4.889  0.00  0.00    +0.122 A 
ATOM     13  N   UNL     1       3.674  -0.879  -4.521  0.00  0.00    -0.207 NA
ATOM     14  C   UNL     1       3.086   0.157  -3.941  0.00  0.00    +0.192 A 
ATOM     15  N   UNL     1       3.737   1.288  -3.711  0.00  0.00    -0.207 NA
ATOM     16  C   UNL     1       5.018   1.418  -4.047  0.00  0.00    +0.122 A 
ATOM     17  N   UNL     1       5.560  -1.908  -5.494  0.00  0.00    -0.343 N 
ATOM     18  H   UNL     1       4.986  -2.829  -5.673  0.00  0.00    +0.144 HD
ATOM     19  H   UNL     1       6.616  -1.851  -5.795  0.00  0.00    +0.144 HD
BRANCH  16  20
ATOM     20  N   UNL     1       5.693   2.602  -3.796  0.00  0.00    -0.343 N 
ATOM     21  H   UNL     1       5.171   3.441  -3.313  0.00  0.00    +0.144 HD
ATOM     22  H   UNL     1       6.751   2.703  -4.081  0.00  0.00    +0.144 HD
ENDBRANCH  16  20
ENDBRANCH  10  14
ENDBRANCH   9  10
ENDBRANCH   1   9
BRANCH   4  23
ATOM     23  C   UNL     1      -3.026   1.590   0.096  0.00  0.00    +0.155 C 
BRANCH  23  24
ATOM     24  S   UNL     1      -3.086   3.115   1.069  0.00  0.00    -0.078 S 
BRANCH  24  25
ATOM     25  C   UNL     1      -4.247   2.642   2.308  0.00  0.00    +0.192 A 
ATOM     26  N   UNL     1      -4.772   1.426   2.269  0.00  0.00    -0.207 NA
ATOM     27  C   UNL     1      -5.648   1.033   3.191  0.00  0.00    +0.122 A 
ATOM     28  C   UNL     1      -6.018   1.921   4.197  0.00  0.00    +0.086 A 
ATOM     29  C   UNL     1      -5.449   3.192   4.201  0.00  0.00    +0.122 A 
ATOM     30  N   UNL     1      -4.576   3.514   3.250  0.00  0.00    -0.207 NA
ATOM     31  N   UNL     1      -6.188  -0.243   3.148  0.00  0.00    -0.343 N 
ATOM     32  H   UNL     1      -6.912  -0.560   3.913  0.00  0.00    +0.144 HD
ATOM     33  H   UNL     1      -5.894  -0.938   2.347  0.00  0.00    +0.144 HD
BRANCH  29  34
ATOM     34  N   UNL     1      -5.788   4.109   5.183  0.00  0.00    -0.343 N 
ATOM     35  H   UNL     1      -5.334   5.112   5.180  0.00  0.00    +0.144 HD
ATOM     36  H   UNL     1      -6.511   3.836   5.966  0.00  0.00    +0.144 HD
ENDBRANCH  29  34
ENDBRANCH  24  25
ENDBRANCH  23  24
ENDBRANCH   4  23
TORSDOF 9
