REMARK  Name = ZINC22064961
REMARK  14 active torsions:
REMARK  status: ('A' for Active; 'I' for Inactive)
REMARK    1  A    between atoms: C_3  and  O_10
REMARK    2  A    between atoms: C_6  and  N_7
REMARK    3  A    between atoms: O_10  and  C_11
REMARK    4  A    between atoms: C_13  and  O_26
REMARK    5  A    between atoms: C_15  and  O_25
REMARK    6  A    between atoms: C_17  and  O_24
REMARK    7  A    between atoms: C_19  and  C_22
REMARK    8  A    between atoms: C_22  and  O_23
REMARK    9  A    between atoms: O_26  and  C_27
REMARK   10  A    between atoms: C_29  and  O_42
REMARK   11  A    between atoms: C_31  and  O_41
REMARK   12  A    between atoms: C_33  and  O_40
REMARK   13  A    between atoms: C_35  and  C_38
REMARK   14  A    between atoms: C_38  and  O_39
REMARK                            x       y       z     vdW  Elec       q    Type
REMARK                         _______ _______ _______ _____ _____    ______ ____
ROOT
ATOM      1  C   UNL     1       1.687   2.920   5.385  0.00  0.00    +0.340 C 
ATOM      2  C   UNL     1       1.390   1.503   4.885  0.00  0.00    +0.221 C 
ATOM      3  C   UNL     1       1.861   0.491   5.934  0.00  0.00    +0.180 C 
ATOM      4  C   UNL     1       3.352   0.712   6.207  0.00  0.00    +0.177 C 
ATOM      5  C   UNL     1       3.573   2.159   6.656  0.00  0.00    +0.179 C 
ATOM      6  O   UNL     1       3.085   3.048   5.649  0.00  0.00    -0.331 OA
ENDROOT
BRANCH   4   7
ATOM      7  O   UNL     1       3.786  -0.179   7.237  0.00  0.00    -0.386 OA
ATOM      8  H   UNL     1       4.834  -0.166   7.570  0.00  0.00    +0.210 HD
ENDBRANCH   4   7
BRANCH   3   9
ATOM      9  O   UNL     1       1.656  -0.836   5.445  0.00  0.00    -0.386 OA
ATOM     10  H   UNL     1       1.936  -1.700   6.064  0.00  0.00    +0.210 HD
ENDBRANCH   3   9
BRANCH   1  11
ATOM     11  O   UNL     1       0.951   3.165   6.585  0.00  0.00    -0.461 OA
BRANCH  11  14
ATOM     12  C   UNL     1       0.224   6.052   8.677  0.00  0.00    +0.036 A 
ATOM     13  C   UNL     1       0.239   4.752   8.208  0.00  0.00    +0.048 A 
ATOM     14  C   UNL     1       0.934   4.443   7.048  0.00  0.00    +0.124 A 
ATOM     15  C   UNL     1       1.617   5.439   6.365  0.00  0.00    +0.048 A 
ATOM     16  C   UNL     1       1.594   6.737   6.835  0.00  0.00    +0.036 A 
ATOM     17  C   UNL     1       0.901   7.043   7.991  0.00  0.00    +0.126 A 
BRANCH  17  18
ATOM     18  N   UNL     1       0.883   8.434   8.496  0.00  0.00    +0.056 N 
ATOM     19  O   UNL     1       0.273   8.705   9.515  0.00  0.00    -0.126 OA
ATOM     20  O   UNL     1       1.480   9.309   7.893  0.00  0.00    -0.126 OA
ENDBRANCH  17  18
ENDBRANCH  11  14
ENDBRANCH   1  11
BRANCH   5  21
ATOM     21  C   UNL     1       5.067   2.404   6.873  0.00  0.00    +0.190 C 
BRANCH  21  22
ATOM     22  O   UNL     1       5.263   3.717   7.401  0.00  0.00    -0.392 OA
ATOM     23  H   UNL     1       6.279   4.075   7.623  0.00  0.00    +0.210 HD
ENDBRANCH  21  22
ENDBRANCH   5  21
BRANCH   2  24
ATOM     24  O   UNL     1       2.084   1.275   3.657  0.00  0.00    -0.337 OA
BRANCH  24  25
ATOM     25  C   UNL     1       1.337   1.633   2.493  0.00  0.00    +0.282 C 
ATOM     26  C   UNL     1       2.062   1.123   1.244  0.00  0.00    +0.201 C 
ATOM     27  C   UNL     1       1.286   1.562  -0.002  0.00  0.00    +0.179 C 
ATOM     28  C   UNL     1       1.147   3.087   0.008  0.00  0.00    +0.177 C 
ATOM     29  C   UNL     1       0.457   3.521   1.304  0.00  0.00    +0.178 C 
ATOM     30  O   UNL     1       1.213   3.054   2.423  0.00  0.00    -0.341 OA
BRANCH  28  31
ATOM     31  O   UNL     1       2.442   3.686  -0.067  0.00  0.00    -0.386 OA
ATOM     32  H   UNL     1       2.542   4.781  -0.072  0.00  0.00    +0.210 HD
ENDBRANCH  28  31
BRANCH  27  33
ATOM     33  O   UNL     1      -0.011   0.963   0.007  0.00  0.00    -0.386 OA
ATOM     34  H   UNL     1      -0.715   1.163  -0.814  0.00  0.00    +0.210 HD
ENDBRANCH  27  33
BRANCH  26  35
ATOM     35  O   UNL     1       2.136  -0.303   1.283  0.00  0.00    -0.384 OA
ATOM     36  H   UNL     1       2.625  -0.851   0.465  0.00  0.00    +0.210 HD
ENDBRANCH  26  35
BRANCH  29  37
ATOM     37  C   UNL     1       0.367   5.047   1.348  0.00  0.00    +0.190 C 
BRANCH  37  38
ATOM     38  O   UNL     1      -0.378   5.447   2.500  0.00  0.00    -0.392 OA
ATOM     39  H   UNL     1      -0.549   6.515   2.701  0.00  0.00    +0.210 HD
ENDBRANCH  37  38
ENDBRANCH  29  37
ENDBRANCH  24  25
ENDBRANCH   2  24
TORSDOF 14
