REMARK  Name = ZINC59599386
REMARK  11 active torsions:
REMARK  status: ('A' for Active; 'I' for Inactive)
REMARK    1  A    between atoms: C_1  and  N_2
REMARK    2  A    between atoms: C_3  and  N_37
REMARK    3  A    between atoms: C_4  and  O_11
REMARK    4  A    between atoms: N_7  and  C_10
REMARK    5  A    between atoms: O_11  and  C_12
REMARK    6  A    between atoms: C_15  and  C_18
REMARK    7  A    between atoms: N_22  and  C_36
REMARK    8  A    between atoms: N_24  and  C_25
REMARK    9  A    between atoms: C_28  and  C_31
REMARK   10  A    between atoms: C_31  and  O_33
REMARK   11  A    between atoms: O_33  and  C_34
REMARK                            x       y       z     vdW  Elec       q    Type
REMARK                         _______ _______ _______ _____ _____    ______ ____
ROOT
ATOM      1  C   UNL     1      -3.630  -1.994   0.711  0.00  0.00    +0.129 A 
ATOM      2  C   UNL     1      -3.616  -0.779   0.033  0.00  0.00    +0.047 A 
ATOM      3  C   UNL     1      -4.800  -0.174  -0.324  0.00  0.00    +0.011 A 
ATOM      4  C   UNL     1      -6.020  -0.784  -0.003  0.00  0.00    -0.024 A 
ATOM      5  C   UNL     1      -6.027  -2.007   0.679  0.00  0.00    +0.011 A 
ATOM      6  C   UNL     1      -4.838  -2.606   1.027  0.00  0.00    +0.047 A 
ENDROOT
BRANCH   4   7
ATOM      7  C   UNL     1      -7.285  -0.143  -0.381  0.00  0.00    +0.028 C 
ATOM      8  C   UNL     1      -8.439  -0.859  -0.370  0.00  0.00    +0.078 C 
ATOM      9  C   UNL     1      -9.828  -0.400  -0.560  0.00  0.00    +0.259 C 
ATOM     10  O   UNL     1     -10.088   0.772  -0.762  0.00  0.00    -0.269 OA
ATOM     11  N   UNL     1     -10.776  -1.319  -0.500  0.00  0.00    -0.249 N 
ATOM     12  C   UNL     1     -10.462  -2.639  -0.271  0.00  0.00    +0.168 C 
ATOM     13  N   UNL     1     -11.276  -3.671  -0.183  0.00  0.00    -0.226 NA
ATOM     14  S   UNL     1      -8.682  -2.613  -0.130  0.00  0.00    -0.049 S 
ATOM     15  C   UNL     1     -12.177  -0.928  -0.680  0.00  0.00    +0.140 C 
BRANCH  13  16
ATOM     16  C   UNL     1     -10.774  -4.916   0.051  0.00  0.00    +0.067 A 
ATOM     17  C   UNL     1      -9.646  -5.359  -0.651  0.00  0.00    +0.028 A 
ATOM     18  C   UNL     1      -9.143  -6.606  -0.416  0.00  0.00    +0.017 A 
ATOM     19  C   UNL     1      -9.755  -7.441   0.526  0.00  0.00    +0.059 A 
ATOM     20  C   UNL     1     -10.883  -6.998   1.228  0.00  0.00    +0.017 A 
ATOM     21  C   UNL     1     -11.383  -5.750   0.997  0.00  0.00    +0.028 A 
BRANCH  19  22
ATOM     22  C   UNL     1      -9.213  -8.786   0.779  0.00  0.00    +0.339 C 
ATOM     23  O   UNL     1      -8.235  -9.171   0.170  0.00  0.00    -0.245 OA
BRANCH  22  24
ATOM     24  O   UNL     1      -9.802  -9.591   1.686  0.00  0.00    -0.464 OA
ATOM     25  C   UNL     1      -9.223 -10.883   1.880  0.00  0.00    +0.280 C 
ENDBRANCH  22  24
ENDBRANCH  19  22
ENDBRANCH  13  16
ENDBRANCH   4   7
BRANCH   1  26
ATOM     26  O   UNL     1      -2.460  -2.586   1.060  0.00  0.00    -0.447 OA
BRANCH  26  30
ATOM     27  C   UNL     1       1.607  -2.478  -1.543  0.00  0.00    +0.155 C 
ATOM     28  N   UNL     1       0.704  -1.883  -0.554  0.00  0.00    -0.282 N 
ATOM     29  C   UNL     1      -0.462  -2.529  -0.216  0.00  0.00    +0.149 A 
ATOM     30  C   UNL     1      -1.298  -1.965   0.709  0.00  0.00    +0.230 A 
ATOM     31  C   UNL     1      -0.942  -0.736   1.290  0.00  0.00    +0.301 A 
ATOM     32  O   UNL     1      -1.671  -0.214   2.117  0.00  0.00    -0.263 OA
ATOM     33  N   UNL     1       0.211  -0.138   0.929  0.00  0.00    -0.261 N 
ATOM     34  C   UNL     1       1.023  -0.709   0.022  0.00  0.00    +0.333 A 
ATOM     35  O   UNL     1       2.061  -0.154  -0.285  0.00  0.00    -0.246 OA
ATOM     36  C   UNL     1       0.585   1.143   1.534  0.00  0.00    +0.157 C 
BRANCH  29  37
ATOM     37  N   UNL     1      -0.785  -3.730  -0.802  0.00  0.00    -0.341 N 
ATOM     38  H   UNL     1      -0.230  -4.087  -1.514  0.00  0.00    +0.144 HD
ATOM     39  H   UNL     1      -1.567  -4.221  -0.505  0.00  0.00    +0.144 HD
ENDBRANCH  29  37
ENDBRANCH  26  30
ENDBRANCH   1  26
TORSDOF 7
