REMARK  Name = ZINC12445424
REMARK  4 active torsions:
REMARK  status: ('A' for Active; 'I' for Inactive)
REMARK    1  A    between atoms: C_1  and  C_2
REMARK    2  A    between atoms: C_4  and  O_21
REMARK    3  A    between atoms: C_9  and  O_12
REMARK    4  A    between atoms: O_12  and  C_13
REMARK                            x       y       z     vdW  Elec       q    Type
REMARK                         _______ _______ _______ _____ _____    ______ ____
ROOT
ATOM      1  C   UNL     1      -3.798   5.820   0.159  0.00  0.00    +0.066 C 
ATOM      2  C   UNL     1      -2.458   5.131   0.120  0.00  0.00    +0.043 A 
ATOM      3  C   UNL     1      -1.302   5.903   0.116  0.00  0.00    +0.069 A 
ATOM      4  C   UNL     1      -0.066   5.284   0.081  0.00  0.00    +0.129 A 
ATOM      5  C   UNL     1      -0.033   3.871   0.050  0.00  0.00    +0.064 A 
ATOM      6  C   UNL     1       1.184   3.172   0.013  0.00  0.00    +0.054 A 
ATOM      7  C   UNL     1       1.182   1.809  -0.017  0.00  0.00    +0.024 A 
ATOM      8  C   UNL     1      -0.013   1.095  -0.011  0.00  0.00    +0.050 A 
ATOM      9  C   UNL     1      -1.224   1.748   0.019  0.00  0.00    +0.154 A 
ATOM     10  C   UNL     1      -1.254   3.158   0.056  0.00  0.00    +0.118 A 
ATOM     11  N   UNL     1      -2.415   3.821   0.091  0.00  0.00    -0.248 NA
ATOM     12 CL   UNL     1       2.687   4.040   0.004  0.00  0.00    -0.083 Cl
ENDROOT
BRANCH   4  13
ATOM     13  O   UNL     1       1.079   6.010   0.076  0.00  0.00    -0.506 OA
ATOM     14  H   UNL     1       1.395   6.240  -0.809  0.00  0.00    +0.292 HD
ENDBRANCH   4  13
BRANCH   9  15
ATOM     15  O   UNL     1      -2.383   1.039   0.019  0.00  0.00    -0.454 OA
BRANCH  15  16
ATOM     16  C   UNL     1      -3.043   0.896  -1.161  0.00  0.00    +0.129 A 
ATOM     17  C   UNL     1      -2.477   1.371  -2.335  0.00  0.00    +0.048 A 
ATOM     18  C   UNL     1      -3.146   1.218  -3.534  0.00  0.00    +0.023 A 
ATOM     19  C   UNL     1      -4.386   0.604  -3.562  0.00  0.00    +0.041 A 
ATOM     20  C   UNL     1      -4.955   0.136  -2.391  0.00  0.00    +0.023 A 
ATOM     21  C   UNL     1      -4.286   0.281  -1.191  0.00  0.00    +0.048 A 
ATOM     22 CL   UNL     1      -5.228   0.421  -5.069  0.00  0.00    -0.084 Cl
ENDBRANCH  15  16
ENDBRANCH   9  15
TORSDOF 3
