REMARK  Name = ZINC38705018
REMARK  10 active torsions:
REMARK  status: ('A' for Active; 'I' for Inactive)
REMARK    1  A    between atoms: C_1  and  C_2
REMARK    2  A    between atoms: C_4  and  C_37
REMARK    3  A    between atoms: C_5  and  C_9
REMARK    4  A    between atoms: C_6  and  O_8
REMARK    5  A    between atoms: N_17  and  C_29
REMARK    6  A    between atoms: C_18  and  C_20
REMARK    7  A    between atoms: C_23  and  O_28
REMARK    8  A    between atoms: C_24  and  O_26
REMARK    9  A    between atoms: O_26  and  C_27
REMARK   10  A    between atoms: C_29  and  C_30
REMARK                            x       y       z     vdW  Elec       q    Type
REMARK                         _______ _______ _______ _____ _____    ______ ____
ROOT
ATOM      1  C   UNL     1       0.338  -4.546  -0.079  0.00  0.00    +0.102 A 
ATOM      2  C   UNL     1       0.224  -5.251   1.124  0.00  0.00    +0.035 A 
ATOM      3  C   UNL     1       0.385  -6.584   0.796  0.00  0.00    +0.126 A 
ATOM      4  N   UNL     1       0.583  -6.621  -0.555  0.00  0.00    -0.272 N 
ATOM      5  H   UNL     1       0.726  -7.428  -1.075  0.00  0.00    +0.189 HD
ATOM      6  N   UNL     1       0.545  -5.430  -1.036  0.00  0.00    -0.173 NA
ATOM      7  C   UNL     1       0.275  -7.382   2.022  0.00  0.00    +0.266 C 
ATOM      8  O   UNL     1       0.370  -8.594   2.072  0.00  0.00    -0.268 OA
ATOM      9  N   UNL     1       0.053  -6.585   3.083  0.00  0.00    -0.281 N 
ATOM     10  C   UNL     1       0.004  -5.195   2.611  0.00  0.00    +0.142 C 
ENDROOT
BRANCH   1  15
ATOM     11  C   UNL     1      -0.048   1.166  -0.740  0.00  0.00    +0.044 C 
ATOM     12  C   UNL     1       0.050  -0.328  -0.566  0.00  0.00    -0.047 A 
ATOM     13  C   UNL     1       1.118  -1.017  -1.114  0.00  0.00    +0.007 A 
ATOM     14  C   UNL     1       1.216  -2.385  -0.959  0.00  0.00    -0.037 A 
ATOM     15  C   UNL     1       0.237  -3.075  -0.248  0.00  0.00    +0.047 A 
ATOM     16  C   UNL     1      -0.840  -2.377   0.304  0.00  0.00    +0.127 A 
ATOM     17  C   UNL     1      -0.923  -1.003   0.146  0.00  0.00    +0.049 A 
ATOM     18  C   UNL     1       2.380  -3.130  -1.558  0.00  0.00    +0.044 C 
BRANCH  16  19
ATOM     19  O   UNL     1      -1.799  -3.043   0.999  0.00  0.00    -0.506 OA
ATOM     20  H   UNL     1      -1.656  -3.054   1.955  0.00  0.00    +0.292 HD
ENDBRANCH  16  19
ENDBRANCH   1  15
BRANCH  10  21
ATOM     21  C   UNL     1       1.094  -4.385   3.266  0.00  0.00    -0.019 A 
ATOM     22  C   UNL     1       2.366  -4.913   3.388  0.00  0.00    +0.009 A 
ATOM     23  C   UNL     1       3.369  -4.174   3.988  0.00  0.00    +0.049 A 
ATOM     24  C   UNL     1       3.100  -2.902   4.468  0.00  0.00    +0.158 A 
ATOM     25  C   UNL     1       1.820  -2.371   4.344  0.00  0.00    +0.162 A 
ATOM     26  C   UNL     1       0.821  -3.115   3.737  0.00  0.00    +0.055 A 
BRANCH  25  27
ATOM     27  O   UNL     1       1.552  -1.123   4.813  0.00  0.00    -0.491 OA
ATOM     28  C   UNL     1       0.216  -0.643   4.652  0.00  0.00    +0.277 C 
ENDBRANCH  25  27
BRANCH  24  29
ATOM     29  O   UNL     1       4.086  -2.175   5.059  0.00  0.00    -0.503 OA
ATOM     30  H   UNL     1       4.589  -1.622   4.445  0.00  0.00    +0.292 HD
ENDBRANCH  24  29
ENDBRANCH  10  21
BRANCH   9  31
ATOM     31  C   UNL     1      -0.111  -7.027   4.469  0.00  0.00    +0.145 C 
BRANCH  31  32
ATOM     32  C   UNL     1      -1.579  -7.155   4.785  0.00  0.00    -0.012 A 
ATOM     33  C   UNL     1      -2.252  -6.105   5.382  0.00  0.00    +0.006 A 
ATOM     34  C   UNL     1      -3.599  -6.222   5.672  0.00  0.00    +0.000 A 
ATOM     35  C   UNL     1      -4.273  -7.389   5.364  0.00  0.00    +0.001 A 
ATOM     36  C   UNL     1      -3.602  -8.439   4.768  0.00  0.00    +0.020 A 
ATOM     37  C   UNL     1      -2.255  -8.320   4.472  0.00  0.00    +0.046 A 
ATOM     38 CL   UNL     1      -1.412  -9.637   3.717  0.00  0.00    -0.083 Cl
ENDBRANCH  31  32
ENDBRANCH   9  31
TORSDOF 7
