REMARK  Name = ZINC08969974
REMARK  12 active torsions:
REMARK  status: ('A' for Active; 'I' for Inactive)
REMARK    1  A    between atoms: C_1  and  N_2
REMARK    2  A    between atoms: C_13  and  C_14
REMARK    3  A    between atoms: C_13  and  O_26
REMARK    4  A    between atoms: C_18  and  S_20
REMARK    5  A    between atoms: S_20  and  N_23
REMARK    6  A    between atoms: N_23  and  C_24
REMARK    7  A    between atoms: N_23  and  C_25
REMARK    8  A    between atoms: N_31  and  C_32
REMARK    9  A    between atoms: C_32  and  C_33
REMARK   10  A    between atoms: C_33  and  N_64
REMARK   11  A    between atoms: C_34  and  N_64
REMARK   12  A    between atoms: C_35  and  N_64
REMARK                            x       y       z     vdW  Elec       q    Type
REMARK                         _______ _______ _______ _____ _____    ______ ____
ROOT
ATOM      1  C   UNL     1       1.025   9.703  -1.801  0.00  0.00    +0.138 C 
ATOM      2  N   UNL     1       0.130   8.937  -0.930  0.00  0.00    -0.272 N 
ATOM      3  C   UNL     1       0.106   9.057   0.461  0.00  0.00    +0.042 A 
ATOM      4  C   UNL     1       0.852   9.863   1.319  0.00  0.00    +0.024 A 
ATOM      5  C   UNL     1       0.643   9.805   2.681  0.00  0.00    +0.002 A 
ATOM      6  C   UNL     1      -0.307   8.949   3.207  0.00  0.00    +0.000 A 
ATOM      7  C   UNL     1      -1.052   8.145   2.361  0.00  0.00    +0.008 A 
ATOM      8  C   UNL     1      -0.847   8.200   1.001  0.00  0.00    +0.011 A 
ATOM      9  C   UNL     1      -1.470   7.481  -0.166  0.00  0.00    +0.174 C 
ATOM     10  C   UNL     1      -0.762   8.034  -1.377  0.00  0.00    +0.253 C 
ATOM     11  O   UNL     1      -0.959   7.725  -2.534  0.00  0.00    -0.272 OA
ATOM     12  C   UNL     1      -1.270   5.993  -0.056  0.00  0.00    +0.083 C 
ATOM     13  C   UNL     1      -0.070   5.319   0.033  0.00  0.00    +0.134 C 
ATOM     14  C   UNL     1      -2.560   5.431  -0.069  0.00  0.00    +0.250 C 
ATOM     15  O   UNL     1      -2.823   4.244  -0.002  0.00  0.00    -0.282 OA
ATOM     16  C   UNL     1      -3.547   6.541  -0.176  0.00  0.00    +0.288 C 
ATOM     17  O   UNL     1      -4.752   6.399  -0.210  0.00  0.00    -0.266 OA
ATOM     18  N   UNL     1      -2.907   7.723  -0.235  0.00  0.00    -0.275 N 
ENDROOT
BRANCH  13  19
ATOM     19  C   UNL     1      -0.058   3.867   0.282  0.00  0.00    +0.019 A 
ATOM     20  C   UNL     1      -0.802   3.328   1.336  0.00  0.00    +0.011 A 
ATOM     21  C   UNL     1      -0.789   1.967   1.559  0.00  0.00    +0.003 A 
ATOM     22  C   UNL     1      -0.033   1.137   0.751  0.00  0.00    +0.028 A 
ATOM     23  C   UNL     1       0.707   1.662  -0.295  0.00  0.00    +0.106 A 
ATOM     24  C   UNL     1       0.700   3.020  -0.534  0.00  0.00    +0.040 A 
BRANCH  23  25
ATOM     25  S   UNL     1       1.660   0.594  -1.321  0.00  0.00    +0.060 S 
ATOM     26  O   UNL     1       2.691   1.390  -1.889  0.00  0.00    -0.153 OA
ATOM     27  O   UNL     1       1.932  -0.571  -0.554  0.00  0.00    -0.153 OA
BRANCH  25  28
ATOM     28  N   UNL     1       0.685   0.119  -2.573  0.00  0.00    -0.183 NA
ATOM     29  C   UNL     1       0.641   0.908  -3.807  0.00  0.00    +0.131 C 
ATOM     30  C   UNL     1      -0.133  -1.089  -2.447  0.00  0.00    +0.131 C 
ENDBRANCH  25  28
ENDBRANCH  23  25
ENDBRANCH  13  19
BRANCH  13  31
ATOM     31  O   UNL     1       1.093   5.990  -0.108  0.00  0.00    -0.506 OA
ATOM     32  H   UNL     1       1.858   5.353  -0.016  0.00  0.00    +0.292 HD
ENDBRANCH  13  31
BRANCH  18  33
ATOM     33  C   UNL     1      -3.548   9.036  -0.351  0.00  0.00    +0.091 C 
BRANCH  33  34
ATOM     34  C   UNL     1      -3.718   9.392  -1.829  0.00  0.00    -0.060 C 
BRANCH  34  37
ATOM     35  C   UNL     1      -3.485  11.768  -1.428  0.00  0.00    -0.097 C 
ATOM     36  C   UNL     1      -4.756  10.981  -3.333  0.00  0.00    -0.097 C 
ATOM     37  N   UNL     1      -4.384  10.708  -1.928  0.00  0.00    +0.377 N 
ATOM     38  H   UNL     1      -5.236  10.695  -1.355  0.00  0.00    -0.083 HD
ENDBRANCH  34  37
ENDBRANCH  33  34
ENDBRANCH  18  33
TORSDOF 7
