REMARK  Name = ZINC20764704
REMARK  12 active torsions:
REMARK  status: ('A' for Active; 'I' for Inactive)
REMARK    1  A    between atoms: C_1  and  C_2
REMARK    2  A    between atoms: C_2  and  O_3
REMARK    3  A    between atoms: O_3  and  C_4
REMARK    4  A    between atoms: C_8  and  C_11
REMARK    5  A    between atoms: C_9  and  O_10
REMARK    6  A    between atoms: C_14  and  C_29
REMARK    7  A    between atoms: C_16  and  C_19
REMARK    8  A    between atoms: C_21  and  O_27
REMARK    9  A    between atoms: C_24  and  O_25
REMARK   10  A    between atoms: O_25  and  C_26
REMARK   11  A    between atoms: O_27  and  C_28
REMARK   12  A    between atoms: C_32  and  C_35
REMARK                            x       y       z     vdW  Elec       q    Type
REMARK                         _______ _______ _______ _____ _____    ______ ____
ROOT
ATOM      1  C   UNL     1       2.377   0.142  -0.389  0.00  0.00    -0.028 C 
ATOM      2  C   UNL     1       2.426   1.623  -0.002  0.00  0.00    +0.044 C 
ATOM      3  C   UNL     1       1.031   2.186   0.004  0.00  0.00    +0.040 C 
ATOM      4  N   UNL     1      -0.018   1.453   0.010  0.00  0.00    -0.298 NA
ATOM      5  C   UNL     1       0.002  -0.004   0.002  0.00  0.00    +0.085 C 
ATOM      6  N   UNL     1       1.321  -0.507   0.405  0.00  0.00    +0.401 N 
ATOM      7  H   UNL     1       1.356  -1.594   0.244  0.00  0.00    -0.081 HD
ATOM      8  H   UNL     1       1.478  -0.289   1.472  0.00  0.00    -0.081 HD
ENDROOT
BRANCH   3   9
ATOM      9  C   UNL     1       0.865   3.653   0.002  0.00  0.00    -0.004 A 
ATOM     10  C   UNL     1       1.985   4.486   0.002  0.00  0.00    +0.010 A 
ATOM     11  C   UNL     1       1.823   5.856  -0.004  0.00  0.00    +0.004 A 
ATOM     12  C   UNL     1       0.552   6.404   0.000  0.00  0.00    -0.050 A 
ATOM     13  C   UNL     1      -0.562   5.585   0.006  0.00  0.00    +0.004 A 
ATOM     14  C   UNL     1      -0.414   4.213   0.007  0.00  0.00    +0.010 A 
ATOM     15  C   UNL     1       0.382   7.902  -0.001  0.00  0.00    +0.044 C 
ENDBRANCH   3   9
BRANCH   1  20
ATOM     16  C   UNL     1       5.982  -0.967  -0.710  0.00  0.00    +0.162 A 
ATOM     17  C   UNL     1       6.147  -1.696   0.457  0.00  0.00    +0.049 A 
ATOM     18  C   UNL     1       5.094  -1.827   1.344  0.00  0.00    +0.004 A 
ATOM     19  C   UNL     1       3.878  -1.228   1.072  0.00  0.00    +0.006 A 
ATOM     20  C   UNL     1       3.706  -0.504  -0.093  0.00  0.00    -0.016 A 
ATOM     21  C   UNL     1       4.757  -0.369  -0.986  0.00  0.00    +0.160 A 
BRANCH  21  22
ATOM     22  O   UNL     1       4.591   0.347  -2.131  0.00  0.00    -0.503 OA
ATOM     23  H   UNL     1       3.622   0.820  -2.348  0.00  0.00    +0.292 HD
ENDBRANCH  21  22
BRANCH  16  24
ATOM     24  O   UNL     1       7.016  -0.838  -1.584  0.00  0.00    -0.489 OA
BRANCH  24  26
ATOM     25  C   UNL     1       9.283  -1.224  -2.330  0.00  0.00    +0.048 C 
ATOM     26  C   UNL     1       8.245  -1.479  -1.235  0.00  0.00    +0.226 C 
ENDBRANCH  24  26
ENDBRANCH  16  24
ENDBRANCH   1  20
BRANCH   5  27
ATOM     27  C   UNL     1      -1.040  -0.520   0.960  0.00  0.00    +0.005 A 
ATOM     28  C   UNL     1      -0.804  -1.674   1.682  0.00  0.00    +0.053 A 
ATOM     29  C   UNL     1      -1.763  -2.148   2.564  0.00  0.00    +0.121 A 
ATOM     30  C   UNL     1      -2.960  -1.464   2.722  0.00  0.00    +0.049 A 
ATOM     31  C   UNL     1      -3.196  -0.311   2.000  0.00  0.00    +0.049 A 
ATOM     32  C   UNL     1      -2.234   0.167   1.121  0.00  0.00    +0.124 A 
BRANCH  32  33
ATOM     33  O   UNL     1      -2.465   1.305   0.415  0.00  0.00    -0.495 OA
ATOM     34  C   UNL     1      -3.716   1.961   0.630  0.00  0.00    +0.277 C 
ENDBRANCH  32  33
BRANCH  29  35
ATOM     35  O   UNL     1      -1.530  -3.284   3.276  0.00  0.00    -0.495 OA
ATOM     36  C   UNL     1      -2.562  -3.715   4.166  0.00  0.00    +0.277 C 
ENDBRANCH  29  35
ENDBRANCH   5  27
TORSDOF 8
