REMARK  Name = ZINC22133152
REMARK  4 active torsions:
REMARK  status: ('A' for Active; 'I' for Inactive)
REMARK    1  A    between atoms: C_1  and  C_2
REMARK    2  A    between atoms: C_2  and  C_3
REMARK    3  A    between atoms: C_2  and  S_4
REMARK    4  A    between atoms: S_4  and  C_5
REMARK                            x       y       z     vdW  Elec       q    Type
REMARK                         _______ _______ _______ _____ _____    ______ ____
ROOT
ATOM      1  C   UNL     1       0.002  -0.004   0.002  0.00  0.00    +0.191 A 
ATOM      2  N   UNL     1      -0.016   1.324   0.009  0.00  0.00    -0.207 NA
ATOM      3  C   UNL     1       1.094   2.042   0.003  0.00  0.00    +0.129 A 
ATOM      4  C   UNL     1       2.353   1.378  -0.013  0.00  0.00    +0.047 A 
ATOM      5  C   UNL     1       3.695   1.935  -0.023  0.00  0.00    +0.021 A 
ATOM      6  C   UNL     1       4.748   1.106  -0.038  0.00  0.00    +0.048 A 
ATOM      7  S   UNL     1       4.003  -0.514  -0.040  0.00  0.00    -0.077 S 
ATOM      8  C   UNL     1       2.296  -0.032  -0.021  0.00  0.00    +0.114 A 
ATOM      9  N   UNL     1       1.145  -0.676  -0.013  0.00  0.00    -0.215 NA
ATOM     10  N   UNL     1       1.033   3.423   0.010  0.00  0.00    -0.343 N 
ATOM     11  H   UNL     1       1.960   4.015   0.004  0.00  0.00    +0.144 HD
ATOM     12  H   UNL     1       0.057   3.930   0.022  0.00  0.00    +0.144 HD
ENDROOT
BRANCH   1  13
ATOM     13  S   UNL     1      -1.521  -0.889   0.012  0.00  0.00    -0.083 S 
BRANCH  13  15
ATOM     14  C   UNL     1      -0.137  -2.864   1.295  0.00  0.00    +0.019 C 
ATOM     15  C   UNL     1      -0.897  -2.588  -0.003  0.00  0.00    +0.048 C 
ATOM     16  C   UNL     1      -2.072  -3.562  -0.123  0.00  0.00    +0.019 C 
ENDBRANCH  13  15
ENDBRANCH   1  13
TORSDOF 2
