REMARK  Name = ZINC40173230
REMARK  10 active torsions:
REMARK  status: ('A' for Active; 'I' for Inactive)
REMARK    1  A    between atoms: C_1  and  C_2
REMARK    2  A    between atoms: C_2  and  C_4
REMARK    3  A    between atoms: C_2  and  N_20
REMARK    4  A    between atoms: N_6  and  C_7
REMARK    5  A    between atoms: C_8  and  C_16
REMARK    6  A    between atoms: C_16  and  O_18
REMARK    7  A    between atoms: O_18  and  C_19
REMARK    8  A    between atoms: C_24  and  S_25
REMARK    9  A    between atoms: S_25  and  C_26
REMARK   10  A    between atoms: C_26  and  C_27
REMARK                            x       y       z     vdW  Elec       q    Type
REMARK                         _______ _______ _______ _____ _____    ______ ____
ROOT
ATOM      1  C   UNL     1      -0.019   1.526   0.010  0.00  0.00    +0.041 C 
ATOM      2  C   UNL     1       0.002  -0.004   0.002  0.00  0.00    +0.175 C 
ENDROOT
BRANCH   2   3
ATOM      3  N   UNL     1      -1.372  -0.511   0.012  0.00  0.00    -0.279 N 
ATOM      4  C   UNL     1      -2.309  -0.271   0.977  0.00  0.00    +0.216 A 
ATOM      5  N   UNL     1      -3.412  -0.891   0.634  0.00  0.00    -0.113 NA
ATOM      6  N   UNL     1      -3.179  -1.548  -0.581  0.00  0.00    -0.121 NA
ATOM      7  C   UNL     1      -1.944  -1.303  -0.944  0.00  0.00    +0.194 A 
ATOM      8  N   UNL     1      -2.126   0.496   2.120  0.00  0.00    -0.328 N 
ATOM      9  H   UNL     1      -1.269   0.918   2.289  0.00  0.00    +0.145 HD
ATOM     10  H   UNL     1      -2.855   0.610   2.750  0.00  0.00    +0.145 HD
BRANCH   7  11
ATOM     11  S   UNL     1      -1.157  -1.893  -2.406  0.00  0.00    -0.081 S 
BRANCH  11  12
ATOM     12  C   UNL     1      -2.442  -2.872  -3.231  0.00  0.00    +0.114 C 
BRANCH  12  13
ATOM     13  C   UNL     1      -1.893  -3.442  -4.514  0.00  0.00    -0.019 A 
ATOM     14  C   UNL     1      -2.000  -2.725  -5.691  0.00  0.00    +0.006 A 
ATOM     15  C   UNL     1      -1.497  -3.249  -6.867  0.00  0.00    +0.000 A 
ATOM     16  C   UNL     1      -0.886  -4.489  -6.867  0.00  0.00    +0.001 A 
ATOM     17  C   UNL     1      -0.778  -5.206  -5.691  0.00  0.00    +0.020 A 
ATOM     18  C   UNL     1      -1.277  -4.681  -4.512  0.00  0.00    +0.045 A 
ATOM     19 CL   UNL     1      -1.136  -5.578  -3.033  0.00  0.00    -0.083 Cl
ENDBRANCH  12  13
ENDBRANCH  11  12
ENDBRANCH   7  11
ENDBRANCH   2   3
BRANCH   2  20
ATOM     20  C   UNL     1       0.731  -0.503   1.223  0.00  0.00    +0.240 C 
ATOM     21  O   UNL     1       0.159  -1.213   2.023  0.00  0.00    -0.273 OA
ATOM     22  N   UNL     1       2.019  -0.161   1.426  0.00  0.00    -0.278 N 
ATOM     23  H   UNL     1       2.476   0.406   0.786  0.00  0.00    +0.155 HD
BRANCH  22  24
ATOM     24  C   UNL     1       2.689  -0.621   2.549  0.00  0.00    +0.086 A 
ATOM     25  C   UNL     1       4.001  -0.369   2.921  0.00  0.00    +0.091 A 
ATOM     26  C   UNL     1       4.468  -0.974   4.157  0.00  0.00    -0.021 A 
ATOM     27  C   UNL     1       3.539  -1.719   4.792  0.00  0.00    -0.004 A 
ATOM     28  S   UNL     1       2.097  -1.603   3.775  0.00  0.00    -0.077 S 
ATOM     29  C   UNL     1       3.712  -2.467   6.078  0.00  0.00    +0.043 C 
ATOM     30  C   UNL     1       5.215  -2.572   6.377  0.00  0.00    +0.005 C 
ATOM     31  C   UNL     1       5.852  -1.190   6.203  0.00  0.00    +0.005 C 
ATOM     32  C   UNL     1       5.871  -0.808   4.722  0.00  0.00    +0.037 C 
BRANCH  25  33
ATOM     33  C   UNL     1       4.879   0.471   2.103  0.00  0.00    +0.342 C 
ATOM     34  O   UNL     1       4.929   1.671   2.299  0.00  0.00    -0.245 OA
BRANCH  33  35
ATOM     35  O   UNL     1       5.632  -0.086   1.132  0.00  0.00    -0.464 OA
ATOM     36  C   UNL     1       6.465   0.793   0.373  0.00  0.00    +0.280 C 
ENDBRANCH  33  35
ENDBRANCH  25  33
ENDBRANCH  22  24
ENDBRANCH   2  20
TORSDOF 8
