REMARK  Name = ZINC21237353
REMARK  6 active torsions:
REMARK  status: ('A' for Active; 'I' for Inactive)
REMARK    1  A    between atoms: C_1  and  O_2
REMARK    2  A    between atoms: O_2  and  C_3
REMARK    3  A    between atoms: C_6  and  O_37
REMARK    4  A    between atoms: C_7  and  C_9
REMARK    5  A    between atoms: C_14  and  C_24
REMARK    6  A    between atoms: O_37  and  C_38
REMARK                            x       y       z     vdW  Elec       q    Type
REMARK                         _______ _______ _______ _____ _____    ______ ____
ROOT
ATOM      1  C   UNL     1       0.911   8.618   1.828  0.00  0.00    +0.036 C 
ATOM      2  C   UNL     1      -0.108   7.527   1.504  0.00  0.00    +0.060 C 
ATOM      3  C   UNL     1       0.613   6.262   1.065  0.00  0.00    +0.017 C 
ATOM      4  C   UNL     1       1.808   5.945   1.590  0.00  0.00    +0.036 C 
ATOM      5  C   UNL     1       2.616   4.710   1.272  0.00  0.00    +0.136 C 
ATOM      6  N   UNL     1       2.140   3.961   0.127  0.00  0.00    -0.331 N 
ATOM      7  C   UNL     1       0.890   3.344   0.137  0.00  0.00    +0.049 A 
ATOM      8  C   UNL     1       0.765   1.964   0.132  0.00  0.00    +0.025 A 
ATOM      9  C   UNL     1      -0.492   1.395   0.241  0.00  0.00    +0.002 A 
ATOM     10  C   UNL     1      -1.616   2.195   0.349  0.00  0.00    +0.002 A 
ATOM     11  C   UNL     1      -1.494   3.574   0.344  0.00  0.00    +0.025 A 
ATOM     12  C   UNL     1      -0.239   4.145   0.219  0.00  0.00    +0.052 A 
ATOM     13  N   UNL     1      -0.053   5.520   0.144  0.00  0.00    -0.316 N 
ATOM     14  C   UNL     1       2.424   6.805   2.529  0.00  0.00    +0.163 C 
ATOM     15  O   UNL     1       3.496   6.483   3.002  0.00  0.00    -0.292 OA
ATOM     16  C   UNL     1       1.804   8.100   2.961  0.00  0.00    +0.088 C 
ATOM     17  H   UNL     1       2.768   3.871  -0.772  0.00  0.00    +0.147 HD
ATOM     18  H   UNL     1      -0.490   6.005  -0.741  0.00  0.00    +0.152 HD
ENDROOT
BRANCH   5  19
ATOM     19  C   UNL     1       2.594   3.802   2.474  0.00  0.00    -0.022 A 
ATOM     20  C   UNL     1       3.787   3.506   3.132  0.00  0.00    +0.006 A 
ATOM     21  C   UNL     1       3.803   2.690   4.222  0.00  0.00    +0.009 A 
ATOM     22  C   UNL     1       2.600   2.136   4.692  0.00  0.00    -0.018 A 
ATOM     23  C   UNL     1       2.576   1.290   5.814  0.00  0.00    +0.008 A 
ATOM     24  C   UNL     1       1.393   0.771   6.242  0.00  0.00    +0.001 A 
ATOM     25  C   UNL     1       0.200   1.066   5.583  0.00  0.00    +0.001 A 
ATOM     26  C   UNL     1       0.185   1.882   4.494  0.00  0.00    +0.008 A 
ATOM     27  C   UNL     1       1.387   2.436   4.023  0.00  0.00    -0.018 A 
ATOM     28  C   UNL     1       1.410   3.287   2.905  0.00  0.00    +0.014 A 
ENDBRANCH   5  19
BRANCH   1  33
ATOM     29  C   UNL     1      -1.279  10.990   3.792  0.00  0.00    +0.121 A 
ATOM     30  C   UNL     1      -1.118  12.170   3.081  0.00  0.00    +0.049 A 
ATOM     31  C   UNL     1      -0.301  12.199   1.968  0.00  0.00    +0.049 A 
ATOM     32  C   UNL     1       0.358  11.049   1.561  0.00  0.00    +0.124 A 
ATOM     33  C   UNL     1       0.196   9.869   2.271  0.00  0.00    +0.002 A 
ATOM     34  C   UNL     1      -0.625   9.838   3.382  0.00  0.00    +0.053 A 
BRANCH  29  36
ATOM     35  C   UNL     1      -2.731  12.183   5.250  0.00  0.00    +0.277 C 
ATOM     36  O   UNL     1      -2.084  10.961   4.888  0.00  0.00    -0.495 OA
ENDBRANCH  29  36
BRANCH  32  37
ATOM     37  O   UNL     1       1.162  11.077   0.465  0.00  0.00    -0.495 OA
ATOM     38  C   UNL     1       1.283  12.326  -0.219  0.00  0.00    +0.277 C 
ENDBRANCH  32  37
ENDBRANCH   1  33
TORSDOF 4
