REMARK  Name = ZINC12372378
REMARK  8 active torsions:
REMARK  status: ('A' for Active; 'I' for Inactive)
REMARK    1  A    between atoms: C_1  and  C_2
REMARK    2  A    between atoms: C_5  and  N_9
REMARK    3  A    between atoms: N_9  and  C_10
REMARK    4  A    between atoms: C_10  and  C_11
REMARK    5  A    between atoms: N_13  and  N_14
REMARK    6  A    between atoms: C_15  and  C_16
REMARK    7  A    between atoms: C_18  and  N_23
REMARK    8  A    between atoms: C_21  and  O_22
REMARK                            x       y       z     vdW  Elec       q    Type
REMARK                         _______ _______ _______ _____ _____    ______ ____
ROOT
ATOM      1  C   UNL     1       0.091  -6.388   0.960  0.00  0.00    +0.249 C 
ATOM      2  O   UNL     1       0.090  -6.786  -0.186  0.00  0.00    -0.272 OA
ATOM      3  N   UNL     1       0.107  -7.269   1.980  0.00  0.00    -0.206 N 
ATOM      4  H   UNL     1       0.108  -6.951   2.896  0.00  0.00    +0.177 HD
ENDROOT
BRANCH   3   5
ATOM      5  N   UNL     1       0.124  -8.645   1.716  0.00  0.00    -0.188 NA
ATOM      6  C   UNL     1       0.140  -9.494   2.698  0.00  0.00    +0.142 C 
BRANCH   6   7
ATOM      7  C   UNL     1       0.157 -10.941   2.421  0.00  0.00    +0.038 A 
ATOM      8  C   UNL     1       0.169 -11.858   3.474  0.00  0.00    +0.045 A 
ATOM      9  C   UNL     1       0.184 -13.211   3.208  0.00  0.00    +0.127 A 
ATOM     10  C   UNL     1       0.189 -13.665   1.900  0.00  0.00    +0.036 A 
ATOM     11  C   UNL     1       0.178 -12.768   0.849  0.00  0.00    +0.048 A 
ATOM     12  C   UNL     1       0.156 -11.405   1.099  0.00  0.00    +0.126 A 
BRANCH   9  13
ATOM     13  N   UNL     1       0.196 -14.182   4.325  0.00  0.00    +0.056 N 
ATOM     14  O   UNL     1       0.192 -13.788   5.468  0.00  0.00    -0.126 OA
ATOM     15  O   UNL     1       0.210 -15.369   4.095  0.00  0.00    -0.126 OA
ENDBRANCH   9  13
BRANCH  12  16
ATOM     16  O   UNL     1       0.140 -10.523   0.066  0.00  0.00    -0.506 OA
ATOM     17  H   UNL     1       1.018 -10.257  -0.237  0.00  0.00    +0.292 HD
ENDBRANCH  12  16
ENDBRANCH   6   7
ENDBRANCH   3   5
BRANCH   1  18
ATOM     18  C   UNL     1       0.073  -4.908   1.244  0.00  0.00    +0.199 C 
BRANCH  18  19
ATOM     19  N   UNL     1       0.057  -4.169  -0.021  0.00  0.00    -0.335 N 
ATOM     20  H   UNL     1       0.059  -4.649  -0.864  0.00  0.00    +0.147 HD
BRANCH  19  25
ATOM     21  C   UNL     1      -0.018   1.503   0.010  0.00  0.00    +0.046 C 
ATOM     22  C   UNL     1       0.002  -0.004   0.002  0.00  0.00    -0.022 A 
ATOM     23  C   UNL     1       0.006  -0.688  -1.201  0.00  0.00    +0.024 A 
ATOM     24  C   UNL     1       0.024  -2.070  -1.212  0.00  0.00    +0.038 A 
ATOM     25  C   UNL     1       0.039  -2.772  -0.013  0.00  0.00    +0.030 A 
ATOM     26  C   UNL     1       0.036  -2.083   1.193  0.00  0.00    +0.038 A 
ATOM     27  C   UNL     1       0.023  -0.701   1.197  0.00  0.00    +0.024 A 
ATOM     28 BR   UNL     1       0.026   0.238   2.838  0.00  0.00    -0.050 Br
ATOM     29 BR   UNL     1      -0.015   0.269  -2.832  0.00  0.00    -0.050 Br
ENDBRANCH  19  25
ENDBRANCH  18  19
ENDBRANCH   1  18
TORSDOF 7
