REMARK  Name = ZINC03584917
REMARK  10 active torsions:
REMARK  status: ('A' for Active; 'I' for Inactive)
REMARK    1  A    between atoms: C_1  and  C_2
REMARK    2  A    between atoms: C_2  and  C_3
REMARK    3  A    between atoms: C_3  and  N_58
REMARK    4  A    between atoms: C_4  and  C_5
REMARK    5  A    between atoms: C_4  and  N_58
REMARK    6  A    between atoms: N_7  and  C_8
REMARK    7  A    between atoms: C_17  and  C_18
REMARK    8  A    between atoms: C_17  and  N_58
REMARK    9  A    between atoms: N_20  and  C_21
REMARK   10  A    between atoms: C_22  and  C_31
REMARK                            x       y       z     vdW  Elec       q    Type
REMARK                         _______ _______ _______ _____ _____    ______ ____
ROOT
ATOM      1  N   UNL     1       3.774   5.999  -0.056  0.00  0.00    +0.391 N 
ATOM      2  H   UNL     1       4.284   5.539  -0.820  0.00  0.00    -0.080 HD
ENDROOT
BRANCH   1   3
ATOM      3  C   UNL     1       4.429   5.665   1.226  0.00  0.00    -0.078 C 
BRANCH   3   5
ATOM      4  C   UNL     1       5.423   3.800   2.559  0.00  0.00    +0.002 C 
ATOM      5  C   UNL     1       4.817   4.185   1.208  0.00  0.00    -0.022 C 
ENDBRANCH   3   5
ENDBRANCH   1   3
BRANCH   1   6
ATOM      6  C   UNL     1       2.378   5.514  -0.051  0.00  0.00    +0.020 C 
BRANCH   6   7
ATOM      7  C   UNL     1       1.889   5.436  -1.475  0.00  0.00    +0.201 C 
ATOM      8  O   UNL     1       2.651   5.660  -2.391  0.00  0.00    -0.278 OA
ATOM      9  N   UNL     1       0.605   5.116  -1.730  0.00  0.00    -0.285 N 
ATOM     10  H   UNL     1      -0.022   5.008  -0.998  0.00  0.00    +0.155 HD
BRANCH   9  11
ATOM     11  C   UNL     1       0.176   4.939  -3.052  0.00  0.00    +0.072 A 
ATOM     12  C   UNL     1       0.812   5.614  -4.085  0.00  0.00    +0.029 A 
ATOM     13  C   UNL     1       0.389   5.440  -5.388  0.00  0.00    +0.043 A 
ATOM     14  C   UNL     1      -0.670   4.592  -5.667  0.00  0.00    +0.161 A 
ATOM     15  C   UNL     1      -1.309   3.916  -4.639  0.00  0.00    +0.195 A 
ATOM     16  C   UNL     1      -0.887   4.088  -3.331  0.00  0.00    +0.182 A 
ATOM     17  F   UNL     1      -1.512   3.434  -2.327  0.00  0.00    -0.200 F 
ATOM     18  F   UNL     1      -2.342   3.090  -4.912  0.00  0.00    -0.199 F 
ATOM     19  F   UNL     1      -1.082   4.425  -6.943  0.00  0.00    -0.202 F 
ENDBRANCH   9  11
ENDBRANCH   6   7
ENDBRANCH   1   6
BRANCH   1  20
ATOM     20  C   UNL     1       3.801   7.461  -0.272  0.00  0.00    +0.020 C 
BRANCH  20  21
ATOM     21  C   UNL     1       5.228   7.893  -0.492  0.00  0.00    +0.201 C 
ATOM     22  O   UNL     1       6.122   7.075  -0.456  0.00  0.00    -0.278 OA
ATOM     23  N   UNL     1       5.510   9.189  -0.731  0.00  0.00    -0.281 N 
ATOM     24  H   UNL     1       4.795   9.844  -0.760  0.00  0.00    +0.155 HD
BRANCH  23  25
ATOM     25  C   UNL     1       6.824   9.588  -0.934  0.00  0.00    +0.090 A 
ATOM     26  C   UNL     1       7.308  10.859  -1.195  0.00  0.00    +0.084 A 
ATOM     27  C   UNL     1       8.745  11.016  -1.364  0.00  0.00    -0.018 A 
ATOM     28  C   UNL     1       9.459   9.874  -1.260  0.00  0.00    -0.004 A 
ATOM     29  S   UNL     1       8.257   8.614  -0.929  0.00  0.00    -0.077 S 
ATOM     30  C   UNL     1      10.939   9.702  -1.408  0.00  0.00    +0.043 C 
ATOM     31  C   UNL     1      11.658  10.756  -0.556  0.00  0.00    +0.005 C 
ATOM     32  C   UNL     1      11.866  12.005  -1.407  0.00  0.00    +0.001 C 
ATOM     33  C   UNL     1      10.707  12.171  -2.389  0.00  0.00    +0.005 C 
ATOM     34  C   UNL     1       9.396  12.367  -1.636  0.00  0.00    +0.037 C 
BRANCH  26  35
ATOM     35  C   UNL     1       6.424  11.982  -1.291  0.00  0.00    +0.102 C 
ATOM     36  N   UNL     1       5.723  12.872  -1.368  0.00  0.00    -0.191 NA
ENDBRANCH  26  35
ENDBRANCH  23  25
ENDBRANCH  20  21
ENDBRANCH   1  20
TORSDOF 9
