REMARK  Name = ZINC04598600
REMARK  6 active torsions:
REMARK  status: ('A' for Active; 'I' for Inactive)
REMARK    1  A    between atoms: C_1  and  C_2
REMARK    2  A    between atoms: C_7  and  N_8
REMARK    3  A    between atoms: C_21  and  C_29
REMARK    4  A    between atoms: C_22  and  C_24
REMARK    5  A    between atoms: N_26  and  C_27
REMARK    6  A    between atoms: N_26  and  C_28
REMARK                            x       y       z     vdW  Elec       q    Type
REMARK                         _______ _______ _______ _____ _____    ______ ____
ROOT
ATOM      1  N   UNL     1       0.244  -0.031   2.403  0.00  0.00    -0.243 N 
ATOM      2  C   UNL     1      -0.869   0.174   3.125  0.00  0.00    +0.141 C 
ATOM      3  S   UNL     1      -2.372  -0.343   2.489  0.00  0.00    -0.018 S 
ATOM      4  N   UNL     1      -0.846   0.770   4.329  0.00  0.00    -0.318 N 
ATOM      5  C   UNL     1       0.442   1.154   4.929  0.00  0.00    +0.123 C 
ATOM      6  C   UNL     1       1.054  -0.095   5.524  0.00  0.00    +0.015 A 
ATOM      7  C   UNL     1       0.732  -0.446   6.823  0.00  0.00    +0.009 A 
ATOM      8  C   UNL     1       1.272  -1.585   7.388  0.00  0.00    +0.001 A 
ATOM      9  C   UNL     1       2.135  -2.378   6.654  0.00  0.00    +0.004 A 
ATOM     10  C   UNL     1       2.459  -2.030   5.359  0.00  0.00    +0.046 A 
ATOM     11  C   UNL     1       1.920  -0.882   4.786  0.00  0.00    +0.128 A 
ATOM     12  O   UNL     1       2.275  -0.563   3.515  0.00  0.00    -0.467 OA
ATOM     13  C   UNL     1       1.550   0.453   2.840  0.00  0.00    +0.194 C 
ATOM     14  C   UNL     1       1.349   1.662   3.797  0.00  0.00    +0.162 C 
ATOM     15  C   UNL     1       2.354   0.915   1.622  0.00  0.00    +0.079 C 
ATOM     16  H   UNL     1      -1.675   0.946   4.801  0.00  0.00    +0.148 HD
ENDROOT
BRANCH   1  23
ATOM     17  C   UNL     1      -0.486   1.410   0.060  0.00  0.00    +0.045 C 
ATOM     18  C   UNL     1      -0.204  -0.070   0.030  0.00  0.00    -0.029 A 
ATOM     19  C   UNL     1      -0.290  -0.766  -1.160  0.00  0.00    +0.005 A 
ATOM     20  C   UNL     1      -0.030  -2.124  -1.188  0.00  0.00    +0.000 A 
ATOM     21  C   UNL     1       0.316  -2.789  -0.026  0.00  0.00    +0.002 A 
ATOM     22  C   UNL     1       0.404  -2.099   1.166  0.00  0.00    +0.024 A 
ATOM     23  C   UNL     1       0.149  -0.734   1.197  0.00  0.00    +0.042 A 
ENDBRANCH   1  23
BRANCH  14  24
ATOM     24  C   UNL     1       2.679   2.096   4.357  0.00  0.00    +0.226 C 
ATOM     25  O   UNL     1       3.699   1.558   3.981  0.00  0.00    -0.275 OA
ATOM     26  N   UNL     1       2.735   3.080   5.275  0.00  0.00    -0.307 N 
ATOM     27  C   UNL     1       4.028   3.501   5.820  0.00  0.00    +0.131 C 
ATOM     28  C   UNL     1       1.503   3.729   5.729  0.00  0.00    +0.131 C 
ENDBRANCH  14  24
TORSDOF 2
