REMARK  Name = ZINC15971534
REMARK  4 active torsions:
REMARK  status: ('A' for Active; 'I' for Inactive)
REMARK    1  A    between atoms: C_7  and  C_11
REMARK    2  A    between atoms: C_11  and  C_12
REMARK    3  A    between atoms: N_20  and  C_23
REMARK    4  A    between atoms: C_23  and  C_24
REMARK                            x       y       z     vdW  Elec       q    Type
REMARK                         _______ _______ _______ _____ _____    ______ ____
ROOT
ATOM      1  C   UNL     1       0.236  -3.589  -1.455  0.00  0.00    +0.072 C 
ATOM      2  C   UNL     1      -0.793  -4.740  -1.468  0.00  0.00    +0.107 C 
ATOM      3  C   UNL     1      -0.438  -5.579  -2.727  0.00  0.00    +0.122 C 
ATOM      4  C   UNL     1       0.004  -6.904  -2.148  0.00  0.00    +0.228 C 
ATOM      5  O   UNL     1       0.367  -7.864  -2.793  0.00  0.00    -0.275 OA
ATOM      6  N   UNL     1      -0.067  -6.852  -0.813  0.00  0.00    -0.239 N 
ATOM      7  C   UNL     1      -0.510  -5.675  -0.315  0.00  0.00    +0.227 C 
ATOM      8  O   UNL     1      -0.656  -5.405   0.858  0.00  0.00    -0.275 OA
ATOM      9  C   UNL     1       0.758  -4.849  -3.352  0.00  0.00    +0.136 C 
ATOM     10  N   UNL     1       1.391  -4.097  -2.243  0.00  0.00    -0.295 NA
ATOM     11  C   UNL     1       0.327  -3.951  -4.477  0.00  0.00    +0.005 A 
ATOM     12  C   UNL     1      -0.533  -2.879  -4.557  0.00  0.00    +0.027 A 
ATOM     13  C   UNL     1      -0.731  -2.239  -5.769  0.00  0.00    +0.041 A 
ATOM     14  C   UNL     1      -0.060  -2.679  -6.897  0.00  0.00    +0.022 A 
ATOM     15  C   UNL     1       0.804  -3.752  -6.819  0.00  0.00    +0.025 A 
ATOM     16  C   UNL     1       1.008  -4.401  -5.604  0.00  0.00    +0.039 A 
ATOM     17  N   UNL     1       1.820  -5.490  -5.275  0.00  0.00    -0.283 N 
ATOM     18  C   UNL     1       1.730  -5.815  -3.971  0.00  0.00    +0.243 C 
ATOM     19  O   UNL     1       2.319  -6.712  -3.406  0.00  0.00    -0.273 OA
ATOM     20 CL   UNL     1      -1.816  -0.888  -5.873  0.00  0.00    -0.084 Cl
ATOM     21  H   UNL     1       1.949  -3.336  -2.598  0.00  0.00    +0.124 HD
ATOM     22  H   UNL     1       2.383  -5.957  -5.912  0.00  0.00    +0.155 HD
ENDROOT
BRANCH   1  23
ATOM     23  C   UNL     1       0.666  -3.275  -0.021  0.00  0.00    +0.056 C 
BRANCH  23  30
ATOM     24  C   UNL     1      -0.017   1.362   0.009  0.00  0.00    +0.001 A 
ATOM     25  C   UNL     1       1.170   2.083   0.002  0.00  0.00    +0.002 A 
ATOM     26  C   UNL     1       2.386   1.436  -0.013  0.00  0.00    +0.026 A 
ATOM     27  C   UNL     1       2.428   0.046  -0.021  0.00  0.00    +0.047 A 
ATOM     28  C   UNL     1       1.223  -0.681  -0.013  0.00  0.00    +0.003 A 
ATOM     29  C   UNL     1       0.002  -0.004   0.002  0.00  0.00    +0.010 A 
ATOM     30  C   UNL     1       1.604  -2.095  -0.025  0.00  0.00    -0.021 A 
ATOM     31  C   UNL     1       2.945  -2.141  -0.038  0.00  0.00    +0.087 A 
ATOM     32  N   UNL     1       3.455  -0.871  -0.036  0.00  0.00    -0.360 N 
ATOM     33  H   UNL     1       4.399  -0.650  -0.044  0.00  0.00    +0.165 HD
ENDBRANCH  23  30
ENDBRANCH   1  23
BRANCH   6  34
ATOM     34  C   UNL     1       0.300  -7.982   0.045  0.00  0.00    +0.148 C 
BRANCH  34  35
ATOM     35  C   UNL     1       1.786  -7.894   0.397  0.00  0.00    +0.136 C 
ATOM     36  C   UNL     1       2.209  -9.143   1.199  0.00  0.00    +0.035 C 
ATOM     37  C   UNL     1       3.179  -8.544   2.254  0.00  0.00    +0.031 C 
ATOM     38  C   UNL     1       2.526  -7.162   2.503  0.00  0.00    +0.160 C 
ATOM     39  O   UNL     1       2.023  -6.747   1.221  0.00  0.00    -0.375 OA
ENDBRANCH  34  35
ENDBRANCH   6  34
TORSDOF 4
