REMARK  Name = ZINC27301963
REMARK  12 active torsions:
REMARK  status: ('A' for Active; 'I' for Inactive)
REMARK    1  A    between atoms: C_1  and  C_2
REMARK    2  A    between atoms: C_7  and  N_12
REMARK    3  A    between atoms: C_9  and  C_11
REMARK    4  A    between atoms: C_13  and  C_15
REMARK    5  A    between atoms: C_15  and  C_17
REMARK    6  A    between atoms: C_15  and  N_18
REMARK    7  A    between atoms: N_18  and  C_19
REMARK    8  A    between atoms: N_18  and  C_20
REMARK    9  A    between atoms: C_20  and  C_21
REMARK   10  A    between atoms: C_24  and  C_27
REMARK   11  A    between atoms: N_29  and  C_30
REMARK   12  A    between atoms: C_30  and  C_31
REMARK                            x       y       z     vdW  Elec       q    Type
REMARK                         _______ _______ _______ _____ _____    ______ ____
ROOT
ATOM      1  N   UNL     1       0.262   0.008  -0.075  0.00  0.00    +0.388 N 
ATOM      2  C   UNL     1       0.485   1.459  -0.106  0.00  0.00    -0.095 C 
ATOM      3  H   UNL     1       0.960  -0.426   0.655  0.00  0.00    -0.081 HD
ENDROOT
BRANCH   1   4
ATOM      4  C   UNL     1       0.544  -0.596  -1.385  0.00  0.00    +0.016 C 
ATOM      5  C   UNL     1      -0.606  -0.291  -2.346  0.00  0.00    -0.004 C 
BRANCH   4   7
ATOM      6  N   UNL     1       1.218  -2.822  -2.227  0.00  0.00    -0.314 N 
ATOM      7  C   UNL     1       0.687  -2.088  -1.229  0.00  0.00    +0.199 C 
ATOM      8  O   UNL     1       0.324  -2.629  -0.206  0.00  0.00    -0.278 OA
ATOM      9  H   UNL     1       1.546  -2.332  -3.155  0.00  0.00    +0.149 HD
BRANCH   6  15
ATOM     10  C   UNL     1       3.755  -6.791  -3.729  0.00  0.00    +0.008 C 
ATOM     11  C   UNL     1       2.628  -6.289  -2.824  0.00  0.00    -0.009 C 
ATOM     12  C   UNL     1       1.316  -6.971  -3.218  0.00  0.00    +0.003 C 
ATOM     13  C   UNL     1       0.189  -6.469  -2.312  0.00  0.00    +0.002 C 
ATOM     14  C   UNL     1       0.044  -4.954  -2.470  0.00  0.00    +0.022 C 
ATOM     15  C   UNL     1       1.356  -4.273  -2.076  0.00  0.00    +0.076 C 
ATOM     16  C   UNL     1       2.483  -4.774  -2.982  0.00  0.00    +0.009 C 
ATOM     17  C   UNL     1       2.153  -4.442  -4.438  0.00  0.00    +0.009 C 
ENDBRANCH   6  15
ENDBRANCH   4   7
ENDBRANCH   1   4
BRANCH   1  18
ATOM     18  C   UNL     1      -1.104  -0.306   0.365  0.00  0.00    -0.042 C 
BRANCH  18  19
ATOM     19  C   UNL     1      -1.278   0.114   1.802  0.00  0.00    -0.064 A 
ATOM     20  C   UNL     1      -0.997  -0.781   2.819  0.00  0.00    +0.002 A 
ATOM     21  C   UNL     1      -1.149  -0.401   4.137  0.00  0.00    +0.013 A 
ATOM     22  C   UNL     1      -1.597   0.885   4.442  0.00  0.00    +0.037 A 
ATOM     23  C   UNL     1      -1.883   1.781   3.411  0.00  0.00    +0.013 A 
ATOM     24  C   UNL     1      -1.722   1.391   2.098  0.00  0.00    +0.002 A 
BRANCH  22  25
ATOM     25  C   UNL     1      -1.767   1.297   5.852  0.00  0.00    +0.244 C 
ATOM     26  O   UNL     1      -2.158   2.417   6.115  0.00  0.00    -0.270 OA
ATOM     27  N   UNL     1      -1.490   0.429   6.846  0.00  0.00    -0.303 N 
ATOM     28  H   UNL     1      -1.137  -0.585   6.608  0.00  0.00    +0.149 HD
BRANCH  27  29
ATOM     29  C   UNL     1      -1.659   0.837   8.242  0.00  0.00    +0.217 C 
BRANCH  29  30
ATOM     30  C   UNL     1      -1.279  -0.325   9.163  0.00  0.00    +0.405 C 
ATOM     31  F   UNL     1       0.055  -0.680   8.939  0.00  0.00    -0.169 F 
ATOM     32  F   UNL     1      -1.441   0.064  10.496  0.00  0.00    -0.169 F 
ATOM     33  F   UNL     1      -2.105  -1.422   8.894  0.00  0.00    -0.169 F 
ENDBRANCH  29  30
ENDBRANCH  27  29
ENDBRANCH  22  25
ENDBRANCH  18  19
ENDBRANCH   1  18
TORSDOF 8
