REMARK  Name = ZINC49925481
REMARK  6 active torsions:
REMARK  status: ('A' for Active; 'I' for Inactive)
REMARK    1  A    between atoms: C_1  and  C_2
REMARK    2  A    between atoms: C_2  and  C_3
REMARK    3  A    between atoms: C_3  and  C_5
REMARK    4  A    between atoms: C_3  and  N_8
REMARK    5  A    between atoms: N_8  and  C_9
REMARK    6  A    between atoms: C_10  and  C_12
REMARK                            x       y       z     vdW  Elec       q    Type
REMARK                         _______ _______ _______ _____ _____    ______ ____
ROOT
ATOM      1  N   UNL     1      -2.130  -0.142   1.298  0.00  0.00    -0.287 N 
ATOM      2  C   UNL     1      -1.725  -0.544   2.648  0.00  0.00    +0.133 C 
ATOM      3  C   UNL     1      -3.216   0.636   1.124  0.00  0.00    +0.248 C 
ATOM      4  O   UNL     1      -3.616   0.881   0.002  0.00  0.00    -0.270 OA
ENDROOT
BRANCH   3   5
ATOM      5  C   UNL     1      -3.920   1.190   2.293  0.00  0.00    +0.047 A 
ATOM      6  C   UNL     1      -3.233   1.581   3.419  0.00  0.00    +0.058 A 
ATOM      7  S   UNL     1      -4.430   2.135   4.459  0.00  0.00    -0.101 S 
ATOM      8  C   UNL     1      -5.855   1.868   3.445  0.00  0.00    -0.006 A 
ATOM      9  C   UNL     1      -5.361   1.350   2.297  0.00  0.00    -0.025 A 
ATOM     10  C   UNL     1      -6.277   0.976   1.141  0.00  0.00    +0.037 C 
ATOM     11  C   UNL     1      -7.709   0.858   1.669  0.00  0.00    +0.005 C 
ATOM     12  C   UNL     1      -8.085   2.124   2.443  0.00  0.00    +0.005 C 
ATOM     13  C   UNL     1      -7.290   2.151   3.760  0.00  0.00    +0.043 C 
ENDBRANCH   3   5
BRANCH   1  14
ATOM     14  C   UNL     1      -1.355  -0.587   0.138  0.00  0.00    +0.189 C 
BRANCH  14  15
ATOM     15  C   UNL     1      -1.351  -2.093   0.084  0.00  0.00    +0.376 C 
ATOM     16  O   UNL     1      -1.424  -2.740   1.115  0.00  0.00    -0.244 OA
ATOM     17  O   UNL     1      -1.273  -2.665  -0.990  0.00  0.00    -0.244 OA
ENDBRANCH  14  15
BRANCH  14  19
ATOM     18  C   UNL     1       0.089   1.451   0.189  0.00  0.00    +0.006 C 
ATOM     19  C   UNL     1       0.083  -0.077   0.259  0.00  0.00    +0.031 C 
ENDBRANCH  14  19
ENDBRANCH   1  14
TORSDOF 4
