REMARK  Name = ZINC64540626
REMARK  8 active torsions:
REMARK  status: ('A' for Active; 'I' for Inactive)
REMARK    1  A    between atoms: C_1  and  C_2
REMARK    2  A    between atoms: C_2  and  C_4
REMARK    3  A    between atoms: C_2  and  C_22
REMARK    4  A    between atoms: C_10  and  C_12
REMARK    5  A    between atoms: N_24  and  C_25
REMARK    6  A    between atoms: C_25  and  C_26
REMARK    7  A    between atoms: C_26  and  C_27
REMARK    8  A    between atoms: C_27  and  N_28
REMARK                            x       y       z     vdW  Elec       q    Type
REMARK                         _______ _______ _______ _____ _____    ______ ____
ROOT
ATOM      1  C   UNL     1       0.718  -0.497  -1.257  0.00  0.00    +0.004 C 
ATOM      2  C   UNL     1       0.740  -2.028  -1.264  0.00  0.00    +0.023 C 
ATOM      3  C   UNL     1       1.488  -2.518  -2.508  0.00  0.00    +0.108 C 
ATOM      4  N   UNL     1       0.870  -1.917  -3.698  0.00  0.00    -0.300 N 
ATOM      5  C   UNL     1       0.717  -0.457  -3.754  0.00  0.00    +0.108 C 
ATOM      6  C   UNL     1      -0.022   0.010  -2.497  0.00  0.00    +0.023 C 
ATOM      7  C   UNL     1       0.453  -2.692  -4.719  0.00  0.00    +0.242 C 
ATOM      8  O   UNL     1       0.585  -3.896  -4.661  0.00  0.00    -0.273 OA
ENDROOT
BRANCH   7   9
ATOM      9  C   UNL     1      -0.179  -2.061  -5.934  0.00  0.00    +0.190 C 
ATOM     10  C   UNL     1      -1.455  -1.347  -5.546  0.00  0.00    +0.016 C 
ATOM     11  C   UNL     1      -2.447  -1.949  -6.239  0.00  0.00    -0.004 A 
ATOM     12  C   UNL     1      -3.896  -1.723  -6.301  0.00  0.00    +0.010 A 
ATOM     13  C   UNL     1      -4.649  -2.506  -7.107  0.00  0.00    +0.001 A 
ATOM     14  C   UNL     1      -4.081  -3.526  -7.883  0.00  0.00    +0.002 A 
ATOM     15  C   UNL     1      -2.758  -3.794  -7.879  0.00  0.00    +0.026 A 
ATOM     16  C   UNL     1      -1.872  -3.032  -7.068  0.00  0.00    +0.043 A 
ATOM     17  N   UNL     1      -0.573  -3.097  -6.895  0.00  0.00    -0.370 N 
ATOM     18  H   UNL     1       0.027  -3.724  -7.328  0.00  0.00    +0.161 HD
ENDBRANCH   7   9
BRANCH   1  20
ATOM     19  C   UNL     1      -0.019   1.526   0.010  0.00  0.00    +0.017 C 
ATOM     20  C   UNL     1       0.002  -0.004   0.002  0.00  0.00    +0.075 C 
BRANCH  20  21
ATOM     21  C   UNL     1       0.731  -0.503   1.223  0.00  0.00    +0.216 C 
ATOM     22  O   UNL     1       1.725  -1.187   1.099  0.00  0.00    -0.276 OA
ATOM     23  N   UNL     1       0.278  -0.191   2.453  0.00  0.00    -0.315 N 
ATOM     24  H   UNL     1      -0.517   0.356   2.553  0.00  0.00    +0.149 HD
BRANCH  23  25
ATOM     25  C   UNL     1       0.986  -0.676   3.640  0.00  0.00    +0.102 C 
BRANCH  25  26
ATOM     26  C   UNL     1       0.270  -0.182   4.899  0.00  0.00    +0.000 C 
BRANCH  26  27
ATOM     27  C   UNL     1       1.010  -0.689   6.138  0.00  0.00    -0.077 C 
BRANCH  27  28
ATOM     28  N   UNL     1       0.323  -0.215   7.347  0.00  0.00    +0.380 N 
ATOM     29  C   UNL     1      -0.997  -0.884   7.481  0.00  0.00    -0.079 C 
ATOM     30  C   UNL     1      -1.316  -0.740   8.990  0.00  0.00    -0.020 C 
ATOM     31  C   UNL     1       0.067  -0.925   9.655  0.00  0.00    -0.020 C 
ATOM     32  C   UNL     1       1.091  -0.595   8.553  0.00  0.00    -0.079 C 
ATOM     33  H   UNL     1       0.204   0.786   7.311  0.00  0.00    -0.082 HD
ENDBRANCH  27  28
ENDBRANCH  26  27
ENDBRANCH  25  26
ENDBRANCH  23  25
ENDBRANCH  20  21
ENDBRANCH   1  20
TORSDOF 7
