REMARK  Name = ZINC40167330
REMARK  3 active torsions:
REMARK  status: ('A' for Active; 'I' for Inactive)
REMARK    1  A    between atoms: C_3  and  N_26
REMARK    2  A    between atoms: C_6  and  C_7
REMARK    3  A    between atoms: C_10  and  N_13
REMARK                            x       y       z     vdW  Elec       q    Type
REMARK                         _______ _______ _______ _____ _____    ______ ____
ROOT
ATOM      1  C   UNL     1      -1.272  -0.764   0.011  0.00  0.00    -0.018 A 
ATOM      2  C   UNL     1      -2.476  -0.105   0.251  0.00  0.00    +0.010 A 
ATOM      3  C   UNL     1      -3.659  -0.814   0.258  0.00  0.00    +0.024 A 
ATOM      4  C   UNL     1      -3.651  -2.184   0.027  0.00  0.00    +0.038 A 
ATOM      5  C   UNL     1      -2.451  -2.843  -0.212  0.00  0.00    +0.024 A 
ATOM      6  C   UNL     1      -1.266  -2.138  -0.227  0.00  0.00    +0.010 A 
ENDROOT
BRANCH   4   7
ATOM      7  N   UNL     1      -4.852  -2.901   0.035  0.00  0.00    -0.249 N 
ATOM      8  C   UNL     1      -4.974  -4.364  -0.064  0.00  0.00    +0.126 C 
ATOM      9  C   UNL     1      -4.201  -5.015   1.102  0.00  0.00    +0.190 C 
ATOM     10  S   UNL     1      -5.535  -5.206   2.363  0.00  0.00    -0.027 S 
ATOM     11  O   UNL     1      -5.718  -3.973   3.045  0.00  0.00    -0.174 OA
ATOM     12  O   UNL     1      -5.313  -6.397   3.106  0.00  0.00    -0.174 OA
ATOM     13  C   UNL     1      -6.934  -5.469   1.188  0.00  0.00    +0.190 C 
ATOM     14  C   UNL     1      -6.484  -4.615  -0.007  0.00  0.00    +0.118 C 
ATOM     15  N   UNL     1      -7.066  -3.270   0.119  0.00  0.00    -0.293 N 
ATOM     16  C   UNL     1      -6.076  -2.366   0.140  0.00  0.00    +0.307 C 
ATOM     17  O   UNL     1      -6.272  -1.171   0.242  0.00  0.00    -0.252 OA
ATOM     18  H   UNL     1      -8.013  -3.069   0.180  0.00  0.00    +0.151 HD
ENDBRANCH   4   7
BRANCH   1  24
ATOM     19  C   UNL     1      -0.003   1.370   0.240  0.00  0.00    +0.010 A 
ATOM     20  C   UNL     1       1.182   2.074   0.232  0.00  0.00    +0.023 A 
ATOM     21  C   UNL     1       2.381   1.416  -0.013  0.00  0.00    +0.025 A 
ATOM     22  C   UNL     1       2.389   0.046  -0.251  0.00  0.00    +0.023 A 
ATOM     23  C   UNL     1       1.206  -0.662  -0.244  0.00  0.00    +0.010 A 
ATOM     24  C   UNL     1       0.002  -0.004   0.002  0.00  0.00    -0.018 A 
BRANCH  21  25
ATOM     25  N   UNL     1       3.580   2.131  -0.022  0.00  0.00    -0.358 N 
ATOM     26  H   UNL     1       3.576   3.087   0.144  0.00  0.00    +0.142 HD
ATOM     27  H   UNL     1       4.418   1.673  -0.193  0.00  0.00    +0.142 HD
ENDBRANCH  21  25
ENDBRANCH   1  24
TORSDOF 3
