REMARK  Name = ZINC20733926
REMARK  9 active torsions:
REMARK  status: ('A' for Active; 'I' for Inactive)
REMARK    1  A    between atoms: C_1  and  O_2
REMARK    2  A    between atoms: O_2  and  C_3
REMARK    3  A    between atoms: C_3  and  C_5
REMARK    4  A    between atoms: C_5  and  C_7
REMARK    5  A    between atoms: C_5  and  N_11
REMARK    6  A    between atoms: C_7  and  C_8
REMARK    7  A    between atoms: C_8  and  S_9
REMARK    8  A    between atoms: S_9  and  C_10
REMARK    9  A    between atoms: C_23  and  C_25
REMARK                            x       y       z     vdW  Elec       q    Type
REMARK                         _______ _______ _______ _____ _____    ______ ____
ROOT
ATOM      1  N   UNL     1       3.170  -2.308   1.352  0.00  0.00    -0.286 N 
ATOM      2  C   UNL     1       2.617  -2.712   2.513  0.00  0.00    +0.304 C 
ATOM      3  O   UNL     1       1.412  -2.647   2.667  0.00  0.00    -0.253 OA
ATOM      4  N   UNL     1       3.399  -3.186   3.503  0.00  0.00    -0.273 N 
ATOM      5  C   UNL     1       2.808  -3.737   4.732  0.00  0.00    +0.116 C 
ATOM      6  C   UNL     1       3.153  -5.229   4.831  0.00  0.00    +0.076 C 
ATOM      7  C   UNL     1       4.615  -5.413   4.510  0.00  0.00    +0.066 A 
ATOM      8  C   UNL     1       5.375  -4.502   3.864  0.00  0.00    +0.064 A 
ATOM      9  N   UNL     1       6.626  -5.023   3.756  0.00  0.00    -0.346 N 
ATOM     10  H   UNL     1       7.393  -4.602   3.337  0.00  0.00    +0.167 HD
ATOM     11  C   UNL     1       6.598  -6.242   4.344  0.00  0.00    +0.197 A 
ATOM     12  N   UNL     1       5.390  -6.465   4.792  0.00  0.00    -0.240 NA
ATOM     13  C   UNL     1       4.868  -3.171   3.379  0.00  0.00    +0.159 C 
ATOM     14  H   UNL     1       4.135  -2.291   1.254  0.00  0.00    +0.151 HD
ENDROOT
BRANCH  13  15
ATOM     15  C   UNL     1       5.443  -2.067   4.229  0.00  0.00    +0.015 A 
ATOM     16  C   UNL     1       6.519  -2.322   5.059  0.00  0.00    +0.028 A 
ATOM     17  C   UNL     1       7.047  -1.309   5.838  0.00  0.00    +0.041 A 
ATOM     18  C   UNL     1       6.499  -0.040   5.788  0.00  0.00    +0.023 A 
ATOM     19  C   UNL     1       5.423   0.217   4.960  0.00  0.00    +0.040 A 
ATOM     20  C   UNL     1       4.898  -0.796   4.175  0.00  0.00    +0.129 A 
ATOM     21  F   UNL     1       3.850  -0.544   3.360  0.00  0.00    -0.205 F 
ATOM     22 CL   UNL     1       8.398  -1.631   6.880  0.00  0.00    -0.084 Cl
ENDBRANCH  13  15
BRANCH   1  23
ATOM     23  C   UNL     1       2.313  -1.896   0.237  0.00  0.00    +0.184 C 
BRANCH  23  24
ATOM     24  C   UNL     1       1.895  -3.111  -0.551  0.00  0.00    +0.327 C 
ATOM     25  O   UNL     1       2.273  -4.208  -0.215  0.00  0.00    -0.249 OA
BRANCH  24  27
ATOM     26  C   UNL     1       0.745  -4.168  -2.325  0.00  0.00    +0.280 C 
ATOM     27  O   UNL     1       1.102  -2.974  -1.625  0.00  0.00    -0.467 OA
ENDBRANCH  24  27
ENDBRANCH  23  24
BRANCH  23  28
ATOM     28  C   UNL     1       3.086  -0.940  -0.673  0.00  0.00    +0.044 C 
BRANCH  28  29
ATOM     29  C   UNL     1       3.403   0.347   0.091  0.00  0.00    +0.071 C 
BRANCH  29  30
ATOM     30  S   UNL     1       4.319   1.482  -0.988  0.00  0.00    -0.164 S 
ATOM     31  C   UNL     1       4.613   2.938   0.054  0.00  0.00    +0.084 C 
ENDBRANCH  29  30
ENDBRANCH  28  29
ENDBRANCH  23  28
ENDBRANCH   1  23
TORSDOF 7
