REMARK  Name = ZINC40346962
REMARK  5 active torsions:
REMARK  status: ('A' for Active; 'I' for Inactive)
REMARK    1  A    between atoms: C_3  and  S_9
REMARK    2  A    between atoms: C_4  and  N_8
REMARK    3  A    between atoms: S_9  and  N_12
REMARK    4  A    between atoms: N_12  and  C_13
REMARK    5  A    between atoms: C_13  and  C_14
REMARK                            x       y       z     vdW  Elec       q    Type
REMARK                         _______ _______ _______ _____ _____    ______ ____
ROOT
ATOM      1  S   UNL     1       3.873   2.254   0.020  0.00  0.00    +0.060 S 
ATOM      2  O   UNL     1       4.713   1.634  -0.944  0.00  0.00    -0.153 OA
ATOM      3  O   UNL     1       3.397   3.584  -0.127  0.00  0.00    -0.153 OA
ENDROOT
BRANCH   1   6
ATOM      4  C   UNL     1       1.209  -0.715  -0.467  0.00  0.00    +0.040 A 
ATOM      5  C   UNL     1       2.324   0.093  -0.595  0.00  0.00    +0.033 A 
ATOM      6  C   UNL     1       2.451   1.226   0.185  0.00  0.00    +0.126 A 
ATOM      7  C   UNL     1       1.458   1.554   1.100  0.00  0.00    +0.054 A 
ATOM      8  C   UNL     1       0.340   0.741   1.228  0.00  0.00    +0.063 A 
ATOM      9  C   UNL     1       0.217  -0.392   0.444  0.00  0.00    +0.125 A 
ATOM     10  F   UNL     1      -0.871  -1.184   0.567  0.00  0.00    -0.205 F 
BRANCH   7  11
ATOM     11  N   UNL     1       1.586   2.698   1.890  0.00  0.00    -0.356 N 
ATOM     12  H   UNL     1       2.337   3.298   1.758  0.00  0.00    +0.142 HD
ATOM     13  H   UNL     1       0.923   2.894   2.571  0.00  0.00    +0.142 HD
ENDBRANCH   7  11
ENDBRANCH   1   6
BRANCH   1  14
ATOM     14  N   UNL     1       4.686   2.199   1.461  0.00  0.00    -0.185 NA
ATOM     15  H   UNL     1       4.767   2.999   2.003  0.00  0.00    +0.148 HD
BRANCH  14  16
ATOM     16  C   UNL     1       5.284   0.942   1.917  0.00  0.00    +0.148 C 
BRANCH  16  17
ATOM     17  C   UNL     1       6.265   1.225   3.026  0.00  0.00    +0.006 A 
ATOM     18  C   UNL     1       6.050   1.271   4.364  0.00  0.00    +0.013 A 
ATOM     19  C   UNL     1       7.111   1.553   5.204  0.00  0.00    +0.023 A 
ATOM     20  C   UNL     1       8.335   1.776   4.664  0.00  0.00    +0.055 A 
ATOM     21  S   UNL     1       8.011   1.580   2.920  0.00  0.00    -0.085 S 
ATOM     22 BR   UNL     1       9.965   2.181   5.534  0.00  0.00    -0.043 Br
ENDBRANCH  16  17
ENDBRANCH  14  16
ENDBRANCH   1  14
TORSDOF 5
