REMARK  Name = ZINC40845718
REMARK  9 active torsions:
REMARK  status: ('A' for Active; 'I' for Inactive)
REMARK    1  A    between atoms: C_1  and  C_2
REMARK    2  A    between atoms: C_4  and  C_24
REMARK    3  A    between atoms: C_6  and  O_8
REMARK    4  A    between atoms: O_8  and  C_9
REMARK    5  A    between atoms: C_9  and  C_11
REMARK    6  A    between atoms: C_9  and  C_12
REMARK    7  A    between atoms: N_14  and  N_15
REMARK    8  A    between atoms: C_16  and  C_17
REMARK    9  A    between atoms: C_20  and  O_23
REMARK                            x       y       z     vdW  Elec       q    Type
REMARK                         _______ _______ _______ _____ _____    ______ ____
ROOT
ATOM      1  C   UNL     1       0.977  -2.768   4.570  0.00  0.00    +0.273 C 
ATOM      2  O   UNL     1       1.427  -3.859   4.290  0.00  0.00    -0.270 OA
ATOM      3  N   UNL     1       1.211  -2.235   5.786  0.00  0.00    -0.204 N 
ATOM      4  H   UNL     1       0.852  -1.362   6.010  0.00  0.00    +0.177 HD
ENDROOT
BRANCH   1   5
ATOM      5  C   UNL     1       0.157  -2.008   3.560  0.00  0.00    +0.257 C 
ATOM      6  C   UNL     1      -1.241  -1.752   4.126  0.00  0.00    +0.062 C 
BRANCH   5   7
ATOM      7  O   UNL     1       0.051  -2.775   2.359  0.00  0.00    -0.480 OA
BRANCH   7  13
ATOM      8  C   UNL     1      -0.902   1.454   0.118  0.00  0.00    +0.044 C 
ATOM      9  C   UNL     1      -0.649  -0.030   0.076  0.00  0.00    -0.047 A 
ATOM     10  C   UNL     1      -0.652  -0.698  -1.135  0.00  0.00    +0.007 A 
ATOM     11  C   UNL     1      -0.420  -2.060  -1.177  0.00  0.00    -0.047 A 
ATOM     12  C   UNL     1      -0.184  -2.758  -0.009  0.00  0.00    +0.049 A 
ATOM     13  C   UNL     1      -0.180  -2.091   1.208  0.00  0.00    +0.122 A 
ATOM     14  C   UNL     1      -0.408  -0.723   1.247  0.00  0.00    +0.049 A 
ATOM     15  C   UNL     1      -0.424  -2.784  -2.499  0.00  0.00    +0.044 C 
ENDBRANCH   7  13
ENDBRANCH   5   7
ENDBRANCH   1   5
BRANCH   3  16
ATOM     16  N   UNL     1       1.974  -2.941   6.726  0.00  0.00    -0.188 NA
ATOM     17  C   UNL     1       2.199  -2.428   7.896  0.00  0.00    +0.138 C 
BRANCH  17  18
ATOM     18  C   UNL     1       3.001  -3.171   8.885  0.00  0.00    -0.005 A 
ATOM     19  C   UNL     1       3.525  -4.426   8.562  0.00  0.00    +0.013 A 
ATOM     20  C   UNL     1       4.274  -5.117   9.489  0.00  0.00    +0.046 A 
ATOM     21  C   UNL     1       4.510  -4.568  10.743  0.00  0.00    +0.117 A 
ATOM     22  C   UNL     1       3.991  -3.321  11.069  0.00  0.00    +0.046 A 
ATOM     23  C   UNL     1       3.245  -2.620  10.146  0.00  0.00    +0.013 A 
BRANCH  21  24
ATOM     24  O   UNL     1       5.249  -5.253  11.654  0.00  0.00    -0.507 OA
ATOM     25  H   UNL     1       6.197  -5.066  11.611  0.00  0.00    +0.292 HD
ENDBRANCH  21  24
ENDBRANCH  17  18
ENDBRANCH   3  16
TORSDOF 6
