REMARK  Name = ZINC06408999
REMARK  8 active torsions:
REMARK  status: ('A' for Active; 'I' for Inactive)
REMARK    1  A    between atoms: C_1  and  C_2
REMARK    2  A    between atoms: C_9  and  C_14
REMARK    3  A    between atoms: C_14  and  C_16
REMARK    4  A    between atoms: C_14  and  N_60
REMARK    5  A    between atoms: N_20  and  C_21
REMARK    6  A    between atoms: C_21  and  C_22
REMARK    7  A    between atoms: C_21  and  C_23
REMARK    8  A    between atoms: C_21  and  C_24
REMARK                            x       y       z     vdW  Elec       q    Type
REMARK                         _______ _______ _______ _____ _____    ______ ____
ROOT
ATOM      1  C   UNL     1       3.392   0.445  -0.076  0.00  0.00    +0.039 C 
ENDROOT
BRANCH   1  10
ATOM      2  C   UNL     1       7.543   3.388   5.376  0.00  0.00    +0.044 C 
ATOM      3  C   UNL     1       6.566   2.352   4.881  0.00  0.00    -0.050 A 
ATOM      4  C   UNL     1       6.099   1.376   5.750  0.00  0.00    +0.005 A 
ATOM      5  C   UNL     1       5.206   0.419   5.319  0.00  0.00    +0.026 A 
ATOM      6  C   UNL     1       4.766   0.430   3.999  0.00  0.00    +0.049 A 
ATOM      7  C   UNL     1       5.242   1.422   3.121  0.00  0.00    -0.001 A 
ATOM      8  C   UNL     1       6.148   2.383   3.581  0.00  0.00    +0.013 A 
ATOM      9  C   UNL     1       4.773   1.426   1.734  0.00  0.00    +0.017 A 
ATOM     10  C   UNL     1       3.894   0.470   1.345  0.00  0.00    +0.011 A 
ATOM     11  C   UNL     1       3.443  -0.499   2.267  0.00  0.00    +0.251 A 
ATOM     12  O   UNL     1       2.649  -1.347   1.897  0.00  0.00    -0.268 OA
ATOM     13  N   UNL     1       3.872  -0.514   3.541  0.00  0.00    -0.322 N 
ATOM     14  H   UNL     1       3.545  -1.196   4.148  0.00  0.00    +0.169 HD
ENDBRANCH   1  10
BRANCH   1  24
ATOM     15  C   UNL     1       5.076  -1.224  -0.578  0.00  0.00    -0.072 C 
ATOM     16  C   UNL     1       5.229  -2.719  -0.854  0.00  0.00    +0.017 C 
ATOM     17  C   UNL     1       4.503  -3.085  -2.123  0.00  0.00    -0.048 A 
ATOM     18  C   UNL     1       4.805  -4.293  -2.734  0.00  0.00    +0.004 A 
ATOM     19  C   UNL     1       4.156  -4.670  -3.892  0.00  0.00    +0.000 A 
ATOM     20  C   UNL     1       3.201  -3.839  -4.447  0.00  0.00    +0.000 A 
ATOM     21  C   UNL     1       2.901  -2.635  -3.842  0.00  0.00    +0.002 A 
ATOM     22  C   UNL     1       3.553  -2.254  -2.678  0.00  0.00    -0.061 A 
ATOM     23  C   UNL     1       3.195  -0.930  -2.057  0.00  0.00    -0.041 C 
ATOM     24  N   UNL     1       3.638  -0.896  -0.653  0.00  0.00    +0.392 N 
ATOM     25  H   UNL     1       3.107  -1.593  -0.117  0.00  0.00    -0.080 HD
ENDBRANCH   1  24
BRANCH   1  26
ATOM     26  C   UNL     1       1.910   0.722  -0.090  0.00  0.00    +0.143 A 
ATOM     27  N   UNL     1       0.962  -0.072   0.344  0.00  0.00    -0.115 NA
ATOM     28  N   UNL     1      -0.168   0.520   0.160  0.00  0.00    -0.023 NA
ATOM     29  N   UNL     1       0.036   1.671  -0.380  0.00  0.00    -0.043 NA
ATOM     30  N   UNL     1       1.304   1.832  -0.550  0.00  0.00    -0.225 N 
BRANCH  30  31
ATOM     31  C   UNL     1       1.962   3.004  -1.134  0.00  0.00    +0.059 C 
ATOM     32  C   UNL     1       0.911   4.062  -1.474  0.00  0.00    +0.036 C 
ATOM     33  C   UNL     1       2.961   3.582  -0.129  0.00  0.00    +0.036 C 
ATOM     34  C   UNL     1       2.702   2.591  -2.408  0.00  0.00    +0.036 C 
ENDBRANCH  30  31
ENDBRANCH   1  26
TORSDOF 4
