REMARK  Name = ZINC13915397
REMARK  5 active torsions:
REMARK  status: ('A' for Active; 'I' for Inactive)
REMARK    1  A    between atoms: C_3  and  S_23
REMARK    2  A    between atoms: C_6  and  N_7
REMARK    3  A    between atoms: C_13  and  C_14
REMARK    4  A    between atoms: C_16  and  O_21
REMARK    5  A    between atoms: S_23  and  N_26
REMARK                            x       y       z     vdW  Elec       q    Type
REMARK                         _______ _______ _______ _____ _____    ______ ____
ROOT
ATOM      1  N   UNL     1      -1.306  -0.537  -0.183  0.00  0.00    -0.226 NA
ATOM      2  C   UNL     1      -1.466  -1.562  -0.990  0.00  0.00    +0.166 C 
ATOM      3  N   UNL     1      -0.735  -1.893  -2.110  0.00  0.00    -0.260 N 
ATOM      4  C   UNL     1      -1.033  -2.970  -2.816  0.00  0.00    +0.256 C 
ATOM      5  O   UNL     1      -0.398  -3.277  -3.807  0.00  0.00    -0.269 OA
ATOM      6  C   UNL     1      -2.172  -3.784  -2.345  0.00  0.00    +0.078 C 
ATOM      7  C   UNL     1      -2.691  -4.923  -2.869  0.00  0.00    +0.029 C 
ATOM      8  S   UNL     1      -2.679  -2.869  -0.897  0.00  0.00    -0.049 S 
ATOM      9  H   UNL     1       0.006  -1.330  -2.383  0.00  0.00    +0.157 HD
ENDROOT
BRANCH   7  10
ATOM     10  C   UNL     1      -2.004  -5.602  -3.977  0.00  0.00    -0.006 A 
ATOM     11  C   UNL     1      -0.611  -5.730  -3.966  0.00  0.00    +0.054 A 
ATOM     12  C   UNL     1       0.028  -6.370  -5.013  0.00  0.00    +0.117 A 
ATOM     13  C   UNL     1      -0.712  -6.884  -6.071  0.00  0.00    +0.046 A 
ATOM     14  C   UNL     1      -2.089  -6.760  -6.085  0.00  0.00    +0.019 A 
ATOM     15  C   UNL     1      -2.740  -6.129  -5.044  0.00  0.00    +0.025 A 
ATOM     16 BR   UNL     1      -4.625  -5.968  -5.065  0.00  0.00    -0.050 Br
BRANCH  12  17
ATOM     17  O   UNL     1       1.381  -6.497  -5.007  0.00  0.00    -0.507 OA
ATOM     18  H   UNL     1       1.699  -7.304  -4.579  0.00  0.00    +0.292 HD
ENDBRANCH  12  17
ENDBRANCH   7  10
BRANCH   1  24
ATOM     19  C   UNL     1      -0.571   1.739  -0.330  0.00  0.00    +0.030 A 
ATOM     20  C   UNL     1       0.439   2.648  -0.568  0.00  0.00    +0.030 A 
ATOM     21  C   UNL     1       1.709   2.206  -0.895  0.00  0.00    +0.105 A 
ATOM     22  C   UNL     1       1.975   0.851  -0.985  0.00  0.00    +0.030 A 
ATOM     23  C   UNL     1       0.975  -0.069  -0.750  0.00  0.00    +0.030 A 
ATOM     24  C   UNL     1      -0.309   0.370  -0.419  0.00  0.00    +0.067 A 
BRANCH  21  25
ATOM     25  S   UNL     1       2.993   3.374  -1.198  0.00  0.00    +0.056 S 
ATOM     26  O   UNL     1       3.952   2.720  -2.018  0.00  0.00    -0.153 OA
ATOM     27  O   UNL     1       2.357   4.584  -1.586  0.00  0.00    -0.153 OA
BRANCH  25  28
ATOM     28  N   UNL     1       3.735   3.673   0.252  0.00  0.00    -0.204 NA
ATOM     29  H   UNL     1       3.428   3.224   1.056  0.00  0.00    +0.144 HD
ATOM     30  H   UNL     1       4.477   4.296   0.298  0.00  0.00    +0.144 HD
ENDBRANCH  25  28
ENDBRANCH  21  25
ENDBRANCH   1  24
TORSDOF 5
