REMARK  Name = ZINC39660444
REMARK  13 active torsions:
REMARK  status: ('A' for Active; 'I' for Inactive)
REMARK    1  A    between atoms: C_1  and  C_2
REMARK    2  A    between atoms: C_2  and  C_3
REMARK    3  A    between atoms: C_3  and  C_4
REMARK    4  A    between atoms: C_4  and  C_5
REMARK    5  A    between atoms: C_5  and  C_6
REMARK    6  A    between atoms: C_6  and  N_7
REMARK    7  A    between atoms: C_8  and  C_10
REMARK    8  A    between atoms: C_21  and  C_23
REMARK    9  A    between atoms: C_23  and  C_25
REMARK   10  A    between atoms: C_23  and  O_28
REMARK   11  A    between atoms: C_25  and  C_26
REMARK   12  A    between atoms: C_25  and  C_27
REMARK   13  A    between atoms: O_28  and  C_29
REMARK                            x       y       z     vdW  Elec       q    Type
REMARK                         _______ _______ _______ _____ _____    ______ ____
ROOT
ATOM      1  C   UNL     1       2.912  -7.119  -5.318  0.00  0.00    +0.100 C 
ATOM      2  C   UNL     1       4.228  -6.310  -5.328  0.00  0.00    +0.121 C 
ATOM      3  N   UNL     1       5.233  -7.223  -4.735  0.00  0.00    -0.297 N 
ATOM      4  C   UNL     1       4.895  -8.555  -5.292  0.00  0.00    +0.115 C 
ATOM      5  C   UNL     1       3.353  -8.592  -5.298  0.00  0.00    -0.004 C 
ATOM      6  C   UNL     1       2.847  -9.312  -6.544  0.00  0.00    -0.010 C 
ATOM      7  C   UNL     1       3.249 -10.788  -6.473  0.00  0.00    -0.082 C 
ATOM      8  N   UNL     1       2.676 -11.396  -5.266  0.00  0.00    +0.379 N 
ATOM      9  C   UNL     1       3.240 -10.758  -4.070  0.00  0.00    -0.082 C 
ATOM     10  C   UNL     1       2.838  -9.281  -4.038  0.00  0.00    -0.010 C 
ATOM     11  C   UNL     1       6.231  -6.913  -3.883  0.00  0.00    +0.257 C 
ATOM     12  O   UNL     1       6.327  -5.786  -3.447  0.00  0.00    -0.272 OA
ATOM     13  H   UNL     1       1.675 -11.272  -5.271  0.00  0.00    -0.086 HD
ATOM     14  H   UNL     1       2.891 -12.381  -5.253  0.00  0.00    -0.086 HD
ENDROOT
BRANCH   1  16
ATOM     15  N   UNL     1       0.762  -6.882  -4.117  0.00  0.00    -0.315 N 
ATOM     16  C   UNL     1       2.107  -6.796  -4.085  0.00  0.00    +0.218 C 
ATOM     17  O   UNL     1       2.669  -6.458  -3.065  0.00  0.00    -0.275 OA
ATOM     18  H   UNL     1       0.312  -7.152  -4.933  0.00  0.00    +0.149 HD
BRANCH  15  19
ATOM     19  C   UNL     1      -0.021  -6.568  -2.919  0.00  0.00    +0.104 C 
BRANCH  19  20
ATOM     20  C   UNL     1      -1.510  -6.744  -3.222  0.00  0.00    +0.019 C 
BRANCH  20  21
ATOM     21  C   UNL     1      -2.327  -6.416  -1.971  0.00  0.00    +0.002 C 
BRANCH  21  22
ATOM     22  C   UNL     1      -3.817  -6.592  -2.274  0.00  0.00    -0.000 C 
BRANCH  22  24
ATOM     23  C   UNL     1      -6.123  -6.440  -1.326  0.00  0.00    +0.004 C 
ATOM     24  C   UNL     1      -4.634  -6.264  -1.023  0.00  0.00    -0.003 C 
ENDBRANCH  22  24
ENDBRANCH  21  22
ENDBRANCH  20  21
ENDBRANCH  19  20
ENDBRANCH  15  19
ENDBRANCH   1  16
BRANCH  11  25
ATOM     25  C   UNL     1       7.226  -7.968  -3.473  0.00  0.00    +0.261 C 
BRANCH  25  26
ATOM     26  C   UNL     1       8.044  -8.399  -4.692  0.00  0.00    +0.033 C 
ATOM     27  C   UNL     1       8.868  -7.213  -5.199  0.00  0.00    +0.011 C 
ATOM     28  C   UNL     1       8.982  -9.542  -4.299  0.00  0.00    +0.011 C 
ENDBRANCH  25  26
BRANCH  25  29
ATOM     29  O   UNL     1       8.101  -7.435  -2.477  0.00  0.00    -0.479 OA
BRANCH  29  30
ATOM     30  C   UNL     1       8.510  -8.283  -1.497  0.00  0.00    +0.122 A 
ATOM     31  C   UNL     1       9.351  -7.830  -0.492  0.00  0.00    +0.045 A 
ATOM     32  C   UNL     1       9.765  -8.694   0.503  0.00  0.00    +0.004 A 
ATOM     33  C   UNL     1       9.341 -10.010   0.498  0.00  0.00    +0.000 A 
ATOM     34  C   UNL     1       8.502 -10.464  -0.503  0.00  0.00    +0.004 A 
ATOM     35  C   UNL     1       8.081  -9.603  -1.497  0.00  0.00    +0.045 A 
ENDBRANCH  29  30
ENDBRANCH  25  29
ENDBRANCH  11  25
TORSDOF 10
