REMARK  Name = ZINC09504415
REMARK  6 active torsions:
REMARK  status: ('A' for Active; 'I' for Inactive)
REMARK    1  A    between atoms: C_3  and  O_24
REMARK    2  A    between atoms: C_6  and  N_7
REMARK    3  A    between atoms: N_7  and  S_8
REMARK    4  A    between atoms: S_8  and  C_11
REMARK    5  A    between atoms: C_14  and  C_16
REMARK    6  A    between atoms: O_24  and  C_25
REMARK                            x       y       z     vdW  Elec       q    Type
REMARK                         _______ _______ _______ _____ _____    ______ ____
ROOT
ATOM      1  N   UNL     1      -1.329   1.943  -0.021  0.00  0.00    -0.216 N 
ATOM      2  H   UNL     1      -1.928   1.653  -0.727  0.00  0.00    +0.174 HD
ENDROOT
BRANCH   1   8
ATOM      3  C   UNL     1       0.943   1.518  -0.718  0.00  0.00    +0.028 A 
ATOM      4  C   UNL     1       2.151   0.873  -0.536  0.00  0.00    +0.048 A 
ATOM      5  C   UNL     1       2.318   0.002   0.531  0.00  0.00    +0.129 A 
ATOM      6  C   UNL     1       1.273  -0.222   1.415  0.00  0.00    +0.048 A 
ATOM      7  C   UNL     1       0.065   0.422   1.234  0.00  0.00    +0.028 A 
ATOM      8  C   UNL     1      -0.103   1.294   0.166  0.00  0.00    +0.048 A 
BRANCH   5   9
ATOM      9  O   UNL     1       3.507  -0.632   0.710  0.00  0.00    -0.456 OA
BRANCH   9  10
ATOM     10  C   UNL     1       3.595  -1.939   0.348  0.00  0.00    +0.129 A 
ATOM     11  C   UNL     1       2.524  -2.559  -0.280  0.00  0.00    +0.048 A 
ATOM     12  C   UNL     1       2.617  -3.886  -0.653  0.00  0.00    +0.023 A 
ATOM     13  C   UNL     1       3.772  -4.600  -0.389  0.00  0.00    +0.041 A 
ATOM     14  C   UNL     1       4.839  -3.986   0.243  0.00  0.00    +0.023 A 
ATOM     15  C   UNL     1       4.752  -2.658   0.611  0.00  0.00    +0.048 A 
ATOM     16 CL   UNL     1       3.883  -6.270  -0.852  0.00  0.00    -0.084 Cl
ENDBRANCH   9  10
ENDBRANCH   5   9
ENDBRANCH   1   8
BRANCH   1  17
ATOM     17  S   UNL     1      -1.757   3.205   0.962  0.00  0.00    +0.079 S 
ATOM     18  O   UNL     1      -3.011   3.679   0.491  0.00  0.00    -0.149 OA
ATOM     19  O   UNL     1      -1.563   2.763   2.298  0.00  0.00    -0.149 OA
BRANCH  17  20
ATOM     20  C   UNL     1      -0.593   4.498   0.686  0.00  0.00    +0.146 A 
ATOM     21  C   UNL     1      -0.679   5.558  -0.159  0.00  0.00    +0.037 A 
ATOM     22  C   UNL     1       0.361   6.460  -0.212  0.00  0.00    +0.020 A 
ATOM     23  C   UNL     1       1.455   6.251   0.585  0.00  0.00    +0.041 A 
ATOM     24  S   UNL     1       1.007   4.748   1.438  0.00  0.00    -0.067 S 
BRANCH  23  25
ATOM     25  C   UNL     1       2.687   7.059   0.706  0.00  0.00    +0.098 A 
ATOM     26  C   UNL     1       3.708   6.658   1.602  0.00  0.00    +0.036 A 
ATOM     27  C   UNL     1       4.830   7.428   1.687  0.00  0.00    +0.073 A 
ATOM     28  C   UNL     1       4.904   8.581   0.875  0.00  0.00    +0.265 A 
ATOM     29  O   UNL     1       5.889   9.301   0.917  0.00  0.00    -0.266 OA
ATOM     30  N   UNL     1       3.881   8.882   0.052  0.00  0.00    -0.243 N 
ATOM     31  H   UNL     1       3.939   9.675  -0.503  0.00  0.00    +0.192 HD
ATOM     32  N   UNL     1       2.833   8.143  -0.021  0.00  0.00    -0.170 NA
ENDBRANCH  23  25
ENDBRANCH  17  20
ENDBRANCH   1  17
TORSDOF 6
