REMARK  Name = ZINC31868745
REMARK  8 active torsions:
REMARK  status: ('A' for Active; 'I' for Inactive)
REMARK    1  A    between atoms: C_1  and  C_2
REMARK    2  A    between atoms: C_3  and  C_26
REMARK    3  A    between atoms: C_7  and  N_12
REMARK    4  A    between atoms: C_9  and  C_11
REMARK    5  A    between atoms: N_12  and  C_13
REMARK    6  A    between atoms: C_13  and  C_14
REMARK    7  A    between atoms: N_16  and  C_17
REMARK    8  A    between atoms: C_23  and  C_25
REMARK                            x       y       z     vdW  Elec       q    Type
REMARK                         _______ _______ _______ _____ _____    ______ ____
ROOT
ATOM      1  N   UNL     1      -1.779   5.493   2.787  0.00  0.00    -0.320 N 
ATOM      2  H   UNL     1      -1.132   5.503   1.898  0.00  0.00    +0.148 HD
ENDROOT
BRANCH   1   9
ATOM      3  C   UNL     1       0.004   4.010   1.093  0.00  0.00    +0.045 C 
ATOM      4  C   UNL     1      -0.516   2.856   1.911  0.00  0.00    -0.028 A 
ATOM      5  C   UNL     1      -0.086   1.608   1.675  0.00  0.00    -0.008 A 
ATOM      6  S   UNL     1      -0.966   0.628   2.876  0.00  0.00    -0.074 S 
ATOM      7  C   UNL     1      -1.894   1.921   3.659  0.00  0.00    +0.114 A 
ATOM      8  C   UNL     1      -1.493   3.082   2.963  0.00  0.00    +0.051 A 
ATOM      9  C   UNL     1      -2.098   4.293   3.397  0.00  0.00    +0.131 A 
ATOM     10  N   UNL     1      -2.969   4.258   4.392  0.00  0.00    -0.217 NA
ATOM     11  C   UNL     1      -3.299   3.132   5.000  0.00  0.00    +0.129 A 
ATOM     12  N   UNL     1      -2.771   1.977   4.642  0.00  0.00    -0.225 NA
ATOM     13  C   UNL     1      -4.299   3.168   6.126  0.00  0.00    +0.088 C 
ATOM     14  C   UNL     1       0.910   1.145   0.643  0.00  0.00    +0.052 C 
ENDBRANCH   1   9
BRANCH   1  15
ATOM     15  C   UNL     1      -2.304   6.750   3.326  0.00  0.00    +0.198 C 
BRANCH  15  16
ATOM     16  C   UNL     1      -1.812   7.901   2.486  0.00  0.00    +0.230 C 
ATOM     17  O   UNL     1      -1.094   7.691   1.531  0.00  0.00    -0.274 OA
ATOM     18  N   UNL     1      -2.171   9.162   2.795  0.00  0.00    -0.311 N 
ATOM     19  H   UNL     1      -2.822   9.353   3.661  0.00  0.00    +0.149 HD
BRANCH  18  20
ATOM     20  C   UNL     1      -1.693  10.281   1.979  0.00  0.00    +0.076 C 
ATOM     21  C   UNL     1      -2.621  10.468   0.777  0.00  0.00    +0.022 C 
ATOM     22  C   UNL     1      -4.039  10.765   1.269  0.00  0.00    +0.002 C 
ATOM     23  C   UNL     1      -4.029  12.043   2.110  0.00  0.00    +0.000 C 
ATOM     24  C   UNL     1      -3.101  11.856   3.312  0.00  0.00    +0.005 C 
ATOM     25  C   UNL     1      -1.683  11.559   2.820  0.00  0.00    +0.006 C 
ATOM     26  C   UNL     1      -0.755  11.372   4.021  0.00  0.00    +0.009 C 
ENDBRANCH  18  20
ENDBRANCH  15  16
ENDBRANCH   1  15
TORSDOF 4
