REMARK  Name = ZINC43866875
REMARK  6 active torsions:
REMARK  status: ('A' for Active; 'I' for Inactive)
REMARK    1  A    between atoms: C_1  and  C_2
REMARK    2  A    between atoms: C_5  and  O_29
REMARK    3  A    between atoms: C_17  and  C_28
REMARK    4  A    between atoms: C_22  and  C_23
REMARK    5  A    between atoms: C_22  and  O_27
REMARK    6  A    between atoms: C_23  and  N_24
REMARK                            x       y       z     vdW  Elec       q    Type
REMARK                         _______ _______ _______ _____ _____    ______ ____
ROOT
ATOM      1  C   UNL     1      -0.133   1.669  -0.136  0.00  0.00    +0.016 C 
ATOM      2  C   UNL     1      -0.057   0.139  -0.129  0.00  0.00    -0.008 C 
ATOM      3  C   UNL     1       0.676  -0.328  -1.378  0.00  0.00    +0.014 C 
ATOM      4  C   UNL     1       2.090  -0.791  -1.042  0.00  0.00    +0.032 C 
ATOM      5  C   UNL     1       2.830   0.168  -0.121  0.00  0.00    +0.119 C 
ATOM      6  C   UNL     1       2.121   0.289   1.233  0.00  0.00    +0.062 C 
ATOM      7  C   UNL     1       0.729  -0.299   1.083  0.00  0.00    -0.065 C 
ATOM      8  C   UNL     1       0.302  -1.144   1.969  0.00  0.00    -0.027 C 
ATOM      9  C   UNL     1      -1.038  -1.828   1.883  0.00  0.00    +0.031 C 
ATOM     10  C   UNL     1      -1.443  -1.850   0.403  0.00  0.00    +0.000 C 
ATOM     11  C   UNL     1      -1.488  -0.396  -0.071  0.00  0.00    +0.003 C 
ATOM     12  C   UNL     1      -2.199  -0.244  -1.402  0.00  0.00    +0.005 C 
ATOM     13  C   UNL     1      -3.611  -0.839  -1.417  0.00  0.00    +0.010 C 
ATOM     14  C   UNL     1      -3.903  -1.611  -0.157  0.00  0.00    -0.002 C 
ATOM     15  C   UNL     1      -2.732  -2.565   0.157  0.00  0.00    +0.001 C 
ATOM     16  C   UNL     1      -3.308  -3.412   1.300  0.00  0.00    +0.007 C 
ATOM     17  C   UNL     1      -4.778  -3.646   0.855  0.00  0.00    +0.034 C 
ATOM     18  C   UNL     1      -5.063  -2.623  -0.273  0.00  0.00    +0.057 C 
ATOM     19  C   UNL     1      -4.247  -0.682   1.007  0.00  0.00    +0.014 C 
ENDROOT
BRANCH  18  20
ATOM     20  O   UNL     1      -5.041  -3.258  -1.546  0.00  0.00    -0.390 OA
ATOM     21  H   UNL     1      -5.748  -3.905  -1.675  0.00  0.00    +0.210 HD
ENDBRANCH  18  20
BRANCH   5  22
ATOM     22  O   UNL     1       2.932   1.454  -0.734  0.00  0.00    -0.391 OA
ATOM     23  H   UNL     1       3.394   2.111  -0.196  0.00  0.00    +0.210 HD
ENDBRANCH   5  22
BRANCH  18  24
ATOM     24  C   UNL     1      -6.395  -1.916  -0.034  0.00  0.00    -0.043 C 
BRANCH  24  25
ATOM     25  N   UNL     1      -7.481  -2.905  -0.028  0.00  0.00    +0.379 N 
ATOM     26  C   UNL     1      -8.457  -2.834  -1.123  0.00  0.00    -0.098 C 
ATOM     27  C   UNL     1      -8.827  -2.418   0.302  0.00  0.00    -0.098 C 
ATOM     28  H   UNL     1      -7.230  -3.824   0.305  0.00  0.00    -0.082 HD
ENDBRANCH  24  25
ENDBRANCH  18  24
TORSDOF 4
