REMARK  Name = ZINC31841358
REMARK  14 active torsions:
REMARK  status: ('A' for Active; 'I' for Inactive)
REMARK    1  A    between atoms: C_1  and  C_2
REMARK    2  A    between atoms: C_2  and  C_3
REMARK    3  A    between atoms: C_2  and  C_4
REMARK    4  A    between atoms: C_2  and  C_5
REMARK    5  A    between atoms: C_7  and  C_16
REMARK    6  A    between atoms: C_9  and  C_12
REMARK    7  A    between atoms: C_10  and  O_11
REMARK    8  A    between atoms: C_12  and  C_13
REMARK    9  A    between atoms: C_12  and  C_14
REMARK   10  A    between atoms: C_12  and  C_15
REMARK   11  A    between atoms: N_17  and  N_18
REMARK   12  A    between atoms: N_21  and  C_24
REMARK   13  A    between atoms: C_29  and  O_30
REMARK   14  A    between atoms: O_30  and  C_31
REMARK                            x       y       z     vdW  Elec       q    Type
REMARK                         _______ _______ _______ _____ _____    ______ ____
ROOT
ATOM      1  C   UNL     1      -3.423  -4.082   4.738  0.00  0.00    +0.000 A 
ATOM      2  C   UNL     1      -3.832  -4.678   3.564  0.00  0.00    +0.017 A 
ATOM      3  C   UNL     1      -3.897  -3.928   2.388  0.00  0.00    -0.005 A 
ATOM      4  C   UNL     1      -3.542  -2.577   2.406  0.00  0.00    +0.017 A 
ATOM      5  C   UNL     1      -3.141  -1.987   3.586  0.00  0.00    +0.000 A 
ATOM      6  C   UNL     1      -3.077  -2.738   4.752  0.00  0.00    +0.124 A 
ENDROOT
BRANCH   1   8
ATOM      7  C   UNL     1      -3.785  -6.330   5.720  0.00  0.00    +0.015 C 
ATOM      8  C   UNL     1      -3.352  -4.891   6.008  0.00  0.00    -0.009 C 
ATOM      9  C   UNL     1      -1.916  -4.886   6.535  0.00  0.00    +0.015 C 
ATOM     10  C   UNL     1      -4.283  -4.278   7.056  0.00  0.00    +0.015 C 
ENDBRANCH   1   8
BRANCH   5  11
ATOM     11  C   UNL     1      -2.764  -0.528   3.608  0.00  0.00    -0.009 C 
ATOM     12  C   UNL     1      -2.963   0.071   2.214  0.00  0.00    +0.015 C 
ATOM     13  C   UNL     1      -3.649   0.212   4.612  0.00  0.00    +0.015 C 
ATOM     14  C   UNL     1      -1.297  -0.387   4.019  0.00  0.00    +0.015 C 
ENDBRANCH   5  11
BRANCH   6  15
ATOM     15  O   UNL     1      -2.675  -2.154   5.912  0.00  0.00    -0.506 OA
ATOM     16  H   UNL     1      -2.400  -1.089   5.925  0.00  0.00    +0.292 HD
ENDBRANCH   6  15
BRANCH   3  17
ATOM     17  C   UNL     1      -4.334  -4.561   1.130  0.00  0.00    +0.138 C 
ATOM     18  N   UNL     1      -4.819  -5.764   1.143  0.00  0.00    -0.192 NA
BRANCH  18  19
ATOM     19  N   UNL     1      -5.244  -6.335   2.350  0.00  0.00    -0.253 N 
ATOM     20  C   UNL     1      -4.673  -7.602   2.829  0.00  0.00    +0.144 C 
ATOM     21  C   UNL     1      -5.823  -8.556   3.170  0.00  0.00    +0.126 C 
ATOM     22  N   UNL     1      -6.742  -7.896   4.106  0.00  0.00    -0.324 N 
ATOM     23  C   UNL     1      -7.362  -6.711   3.498  0.00  0.00    +0.126 C 
ATOM     24  C   UNL     1      -6.275  -5.681   3.171  0.00  0.00    +0.144 C 
BRANCH  22  25
ATOM     25  C   UNL     1      -7.715  -8.790   4.568  0.00  0.00    +0.072 A 
ATOM     26  C   UNL     1      -8.575  -9.407   3.671  0.00  0.00    +0.027 A 
ATOM     27  C   UNL     1      -9.534 -10.289   4.130  0.00  0.00    +0.002 A 
ATOM     28  C   UNL     1      -9.640 -10.560   5.482  0.00  0.00    +0.004 A 
ATOM     29  C   UNL     1      -8.787  -9.948   6.382  0.00  0.00    +0.047 A 
ATOM     30  C   UNL     1      -7.822  -9.062   5.930  0.00  0.00    +0.141 A 
BRANCH  30  31
ATOM     31  O   UNL     1      -6.979  -8.465   6.814  0.00  0.00    -0.493 OA
ATOM     32  C   UNL     1      -7.147  -8.792   8.195  0.00  0.00    +0.277 C 
ENDBRANCH  30  31
ENDBRANCH  22  25
ENDBRANCH  18  19
ENDBRANCH   3  17
TORSDOF 7
