REMARK  Name = ZINC12796287
REMARK  5 active torsions:
REMARK  status: ('A' for Active; 'I' for Inactive)
REMARK    1  A    between atoms: C_4  and  C_7
REMARK    2  A    between atoms: C_18  and  C_20
REMARK    3  A    between atoms: C_20  and  N_21
REMARK    4  A    between atoms: C_24  and  C_29
REMARK    5  A    between atoms: C_29  and  C_30
REMARK                            x       y       z     vdW  Elec       q    Type
REMARK                         _______ _______ _______ _____ _____    ______ ____
ROOT
ATOM      1  C   UNL     1      -0.836   5.791   0.923  0.00  0.00    +0.214 C 
ENDROOT
BRANCH   1  12
ATOM      2  C   UNL     1      -3.605   3.637  -0.552  0.00  0.00    +0.122 C 
ATOM      3  C   UNL     1      -3.586   3.454  -2.077  0.00  0.00    +0.102 C 
ATOM      4  S   UNL     1      -2.443   2.091  -2.455  0.00  0.00    -0.121 S 
ATOM      5  C   UNL     1      -1.030   2.464  -1.466  0.00  0.00    +0.029 A 
ATOM      6  C   UNL     1       0.168   1.812  -1.729  0.00  0.00    +0.016 A 
ATOM      7  C   UNL     1       1.284   2.069  -0.956  0.00  0.00    +0.001 A 
ATOM      8  C   UNL     1       1.207   2.976   0.085  0.00  0.00    +0.002 A 
ATOM      9  C   UNL     1       0.020   3.628   0.352  0.00  0.00    +0.024 A 
ATOM     10  C   UNL     1      -1.111   3.379  -0.420  0.00  0.00    +0.050 A 
ATOM     11  N   UNL     1      -2.283   4.075  -0.115  0.00  0.00    -0.261 N 
ATOM     12  C   UNL     1      -2.189   5.203   0.617  0.00  0.00    +0.238 C 
ATOM     13  O   UNL     1      -3.193   5.745   1.028  0.00  0.00    -0.273 OA
BRANCH   2  17
ATOM     14  C   UNL     1      -6.512   6.582   0.510  0.00  0.00    +0.000 A 
ATOM     15  C   UNL     1      -6.480   5.371   1.175  0.00  0.00    +0.000 A 
ATOM     16  C   UNL     1      -5.539   4.418   0.832  0.00  0.00    +0.005 A 
ATOM     17  C   UNL     1      -4.631   4.676  -0.178  0.00  0.00    -0.026 A 
ATOM     18  C   UNL     1      -4.660   5.889  -0.840  0.00  0.00    +0.005 A 
ATOM     19  C   UNL     1      -5.604   6.840  -0.500  0.00  0.00    +0.000 A 
ENDBRANCH   2  17
ENDBRANCH   1  12
BRANCH   1  20
ATOM     20  N   UNL     1      -0.959   7.242   1.084  0.00  0.00    -0.216 N 
ATOM     21  C   UNL     1      -1.210   7.856   2.257  0.00  0.00    +0.244 C 
ATOM     22  O   UNL     1      -1.373   7.331   3.337  0.00  0.00    -0.273 OA
ATOM     23  C   UNL     1      -1.249   9.338   1.944  0.00  0.00    +0.165 C 
ATOM     24  N   UNL     1      -0.990   9.393   0.494  0.00  0.00    -0.287 N 
ATOM     25  C   UNL     1      -0.829   8.122   0.084  0.00  0.00    +0.310 C 
ATOM     26  O   UNL     1      -0.596   7.808  -1.067  0.00  0.00    -0.252 OA
ATOM     27  H   UNL     1      -0.942  10.191  -0.056  0.00  0.00    +0.151 HD
BRANCH  23  28
ATOM     28  C   UNL     1      -2.626   9.921   2.267  0.00  0.00    +0.069 C 
BRANCH  28  29
ATOM     29  C   UNL     1      -2.600  11.414   2.064  0.00  0.00    -0.020 A 
ATOM     30  C   UNL     1      -2.379  12.345   3.006  0.00  0.00    +0.087 A 
ATOM     31  N   UNL     1      -2.431  13.594   2.449  0.00  0.00    -0.360 N 
ATOM     32  H   UNL     1      -2.302  14.425   2.932  0.00  0.00    +0.165 HD
ATOM     33  C   UNL     1      -2.694  13.495   1.101  0.00  0.00    +0.047 A 
ATOM     34  C   UNL     1      -2.805  12.125   0.799  0.00  0.00    +0.003 A 
ATOM     35  C   UNL     1      -3.078  11.720  -0.508  0.00  0.00    +0.010 A 
ATOM     36  C   UNL     1      -3.225  12.657  -1.492  0.00  0.00    +0.001 A 
ATOM     37  C   UNL     1      -3.111  14.009  -1.201  0.00  0.00    +0.002 A 
ATOM     38  C   UNL     1      -2.847  14.431   0.084  0.00  0.00    +0.026 A 
ENDBRANCH  28  29
ENDBRANCH  23  28
ENDBRANCH   1  20
TORSDOF 5
