REMARK  Name = ZINC20572281
REMARK  3 active torsions:
REMARK  status: ('A' for Active; 'I' for Inactive)
REMARK    1  A    between atoms: C_7  and  C_11
REMARK    2  A    between atoms: C_11  and  C_12
REMARK    3  A    between atoms: N_20  and  C_23
REMARK                            x       y       z     vdW  Elec       q    Type
REMARK                         _______ _______ _______ _____ _____    ______ ____
ROOT
ATOM      1  C   UNL     1       0.059  -3.673  -1.129  0.00  0.00    +0.072 C 
ATOM      2  C   UNL     1      -0.859  -4.881  -1.415  0.00  0.00    +0.108 C 
ATOM      3  C   UNL     1      -0.379  -5.428  -2.789  0.00  0.00    +0.123 C 
ATOM      4  C   UNL     1      -1.557  -5.167  -3.699  0.00  0.00    +0.233 C 
ATOM      5  O   UNL     1      -1.604  -5.440  -4.879  0.00  0.00    -0.274 OA
ATOM      6  N   UNL     1      -2.540  -4.589  -2.999  0.00  0.00    -0.210 N 
ATOM      7  C   UNL     1      -2.260  -4.384  -1.691  0.00  0.00    +0.232 C 
ATOM      8  O   UNL     1      -3.001  -3.885  -0.871  0.00  0.00    -0.274 OA
ATOM      9  C   UNL     1       0.802  -4.529  -3.173  0.00  0.00    +0.136 C 
ATOM     10  N   UNL     1       1.290  -3.931  -1.922  0.00  0.00    -0.295 NA
ATOM     11  C   UNL     1       1.875  -5.303  -3.885  0.00  0.00    +0.006 A 
ATOM     12  C   UNL     1       2.645  -6.392  -3.541  0.00  0.00    +0.046 A 
ATOM     13  C   UNL     1       3.577  -6.892  -4.436  0.00  0.00    +0.124 A 
ATOM     14  C   UNL     1       3.731  -6.294  -5.676  0.00  0.00    +0.040 A 
ATOM     15  C   UNL     1       2.960  -5.205  -6.023  0.00  0.00    +0.026 A 
ATOM     16  C   UNL     1       2.020  -4.696  -5.129  0.00  0.00    +0.039 A 
ATOM     17  N   UNL     1       1.136  -3.620  -5.247  0.00  0.00    -0.283 N 
ATOM     18  C   UNL     1       0.385  -3.457  -4.141  0.00  0.00    +0.243 C 
ATOM     19  O   UNL     1      -0.463  -2.608  -3.961  0.00  0.00    -0.273 OA
ATOM     20  F   UNL     1       4.335  -7.959  -4.099  0.00  0.00    -0.205 F 
ATOM     21  H   UNL     1       1.794  -3.074  -2.097  0.00  0.00    +0.124 HD
ATOM     22  H   UNL     1       1.071  -3.057  -6.034  0.00  0.00    +0.155 HD
ENDROOT
BRANCH   6  23
ATOM     23  C   UNL     1      -3.768  -4.227  -3.573  0.00  0.00    +0.044 A 
ATOM     24  C   UNL     1      -4.109  -2.887  -3.699  0.00  0.00    +0.027 A 
ATOM     25  C   UNL     1      -5.318  -2.533  -4.263  0.00  0.00    +0.040 A 
ATOM     26  C   UNL     1      -6.191  -3.514  -4.704  0.00  0.00    +0.124 A 
ATOM     27  C   UNL     1      -5.853  -4.851  -4.580  0.00  0.00    +0.040 A 
ATOM     28  C   UNL     1      -4.642  -5.209  -4.021  0.00  0.00    +0.027 A 
ATOM     29  F   UNL     1      -7.374  -3.166  -5.256  0.00  0.00    -0.205 F 
ENDBRANCH   6  23
BRANCH   1  30
ATOM     30  C   UNL     1       0.392  -3.599   0.362  0.00  0.00    +0.056 C 
BRANCH  30  37
ATOM     31  C   UNL     1      -0.711   0.880   1.193  0.00  0.00    +0.001 A 
ATOM     32  C   UNL     1       0.403   1.684   1.391  0.00  0.00    +0.002 A 
ATOM     33  C   UNL     1       1.673   1.152   1.334  0.00  0.00    +0.026 A 
ATOM     34  C   UNL     1       1.842  -0.205   1.076  0.00  0.00    +0.047 A 
ATOM     35  C   UNL     1       0.709  -1.015   0.877  0.00  0.00    +0.003 A 
ATOM     36  C   UNL     1      -0.568  -0.454   0.939  0.00  0.00    +0.010 A 
ATOM     37  C   UNL     1       1.217  -2.367   0.632  0.00  0.00    -0.021 A 
ATOM     38  C   UNL     1       2.556  -2.301   0.694  0.00  0.00    +0.087 A 
ATOM     39  N   UNL     1       2.948  -1.016   0.958  0.00  0.00    -0.360 N 
ATOM     40  H   UNL     1       3.868  -0.722   1.050  0.00  0.00    +0.165 HD
ENDBRANCH  30  37
ENDBRANCH   1  30
TORSDOF 3
