REMARK  Name = ZINC02494716
REMARK  3 active torsions:
REMARK  status: ('A' for Active; 'I' for Inactive)
REMARK    1  A    between atoms: C_12  and  N_26
REMARK    2  A    between atoms: C_13  and  C_24
REMARK    3  A    between atoms: C_14  and  C_16
REMARK                            x       y       z     vdW  Elec       q    Type
REMARK                         _______ _______ _______ _____ _____    ______ ____
ROOT
ATOM      1  C   UNL     1       6.383   3.311  -4.669  0.00  0.00    +0.001 A 
ATOM      2  C   UNL     1       6.761   3.867  -3.449  0.00  0.00    +0.001 A 
ATOM      3  C   UNL     1       6.101   3.553  -2.301  0.00  0.00    +0.012 A 
ATOM      4  C   UNL     1       5.021   2.656  -2.343  0.00  0.00    +0.026 A 
ATOM      5  C   UNL     1       4.637   2.090  -3.583  0.00  0.00    +0.004 A 
ATOM      6  C   UNL     1       5.342   2.437  -4.748  0.00  0.00    +0.010 A 
ATOM      7  C   UNL     1       3.557   1.191  -3.624  0.00  0.00    +0.049 A 
ATOM      8  C   UNL     1       2.893   0.876  -2.479  0.00  0.00    +0.028 A 
ATOM      9  C   UNL     1       3.261   1.429  -1.252  0.00  0.00    +0.010 A 
ATOM     10  C   UNL     1       4.313   2.311  -1.171  0.00  0.00    +0.142 A 
ATOM     11  O   UNL     1       4.682   2.854   0.013  0.00  0.00    -0.440 OA
ATOM     12  C   UNL     1       4.309   2.271   1.165  0.00  0.00    +0.199 C 
ATOM     13  C   UNL     1       3.272   1.401   1.218  0.00  0.00    +0.098 C 
ATOM     14  C   UNL     1       2.490   1.047  -0.015  0.00  0.00    +0.098 C 
ATOM     15 CL   UNL     1       3.071   0.484  -5.134  0.00  0.00    -0.083 Cl
ENDROOT
BRANCH  14  16
ATOM     16  C   UNL     1       1.175   1.783   0.000  0.00  0.00    -0.033 A 
ATOM     17  C   UNL     1       1.157   3.166   0.007  0.00  0.00    +0.006 A 
ATOM     18  C   UNL     1      -0.048   3.842   0.022  0.00  0.00    +0.022 A 
ATOM     19  C   UNL     1      -1.238   3.135   0.030  0.00  0.00    +0.059 A 
ATOM     20  C   UNL     1      -1.220   1.751   0.017  0.00  0.00    +0.060 A 
ATOM     21  C   UNL     1      -0.013   1.076   0.008  0.00  0.00    +0.026 A 
ATOM     22 CL   UNL     1      -2.712   0.863   0.019  0.00  0.00    -0.082 Cl
ATOM     23 CL   UNL     1      -2.752   3.984   0.049  0.00  0.00    -0.082 Cl
ENDBRANCH  14  16
BRANCH  12  24
ATOM     24  N   UNL     1       4.996   2.564   2.316  0.00  0.00    -0.328 N 
ATOM     25  H   UNL     1       5.741   3.185   2.292  0.00  0.00    +0.145 HD
ATOM     26  H   UNL     1       4.737   2.150   3.154  0.00  0.00    +0.145 HD
ENDBRANCH  12  24
BRANCH  13  27
ATOM     27  C   UNL     1       2.917   0.807   2.471  0.00  0.00    +0.101 C 
ATOM     28  N   UNL     1       2.635   0.336   3.466  0.00  0.00    -0.191 NA
ENDBRANCH  13  27
TORSDOF 3
