REMARK  Name = ZINC28946943
REMARK  12 active torsions:
REMARK  status: ('A' for Active; 'I' for Inactive)
REMARK    1  A    between atoms: C_1  and  C_2
REMARK    2  A    between atoms: C_2  and  C_4
REMARK    3  A    between atoms: C_2  and  N_12
REMARK    4  A    between atoms: C_13  and  C_15
REMARK    5  A    between atoms: C_15  and  C_17
REMARK    6  A    between atoms: C_15  and  S_18
REMARK    7  A    between atoms: S_18  and  C_19
REMARK    8  A    between atoms: C_22  and  C_30
REMARK    9  A    between atoms: N_23  and  C_24
REMARK   10  A    between atoms: C_24  and  C_25
REMARK   11  A    between atoms: C_30  and  C_31
REMARK   12  A    between atoms: C_31  and  C_32
REMARK                            x       y       z     vdW  Elec       q    Type
REMARK                         _______ _______ _______ _____ _____    ______ ____
ROOT
ATOM      1  C   UNL     1       4.040   1.751   5.692  0.00  0.00    +0.193 A 
ATOM      2  N   UNL     1       3.544   0.783   6.428  0.00  0.00    -0.122 NA
ATOM      3  N   UNL     1       4.408   0.414   7.304  0.00  0.00    -0.133 NA
ATOM      4  C   UNL     1       5.495   1.124   7.188  0.00  0.00    +0.135 A 
ATOM      5  N   UNL     1       5.299   2.001   6.157  0.00  0.00    -0.299 N 
ENDROOT
BRANCH   1   6
ATOM      6  S   UNL     1       3.231   2.577   4.362  0.00  0.00    -0.074 S 
BRANCH   6   7
ATOM      7  C   UNL     1       1.647   1.701   4.366  0.00  0.00    +0.137 C 
ATOM      8  C   UNL     1       0.907   1.990   5.674  0.00  0.00    +0.029 C 
BRANCH   7  10
ATOM      9  N   UNL     1      -0.208   1.408   2.755  0.00  0.00    -0.308 N 
ATOM     10  C   UNL     1       0.811   2.169   3.203  0.00  0.00    +0.227 C 
ATOM     11  O   UNL     1       1.055   3.230   2.669  0.00  0.00    -0.275 OA
ATOM     12  H   UNL     1      -0.429   0.446   3.240  0.00  0.00    +0.149 HD
BRANCH   9  14
ATOM     13  C   UNL     1      -0.354   1.437   0.314  0.00  0.00    +0.033 C 
ATOM     14  C   UNL     1      -1.020   1.863   1.624  0.00  0.00    +0.102 C 
BRANCH  14  15
ATOM     15  C   UNL     1      -2.393   1.249   1.713  0.00  0.00    -0.009 A 
ATOM     16  C   UNL     1      -2.568   0.036   2.352  0.00  0.00    +0.008 A 
ATOM     17  C   UNL     1      -3.827  -0.528   2.433  0.00  0.00    +0.020 A 
ATOM     18  C   UNL     1      -4.914   0.122   1.875  0.00  0.00    +0.042 A 
ATOM     19  C   UNL     1      -4.740   1.336   1.236  0.00  0.00    +0.040 A 
ATOM     20  C   UNL     1      -3.480   1.903   1.160  0.00  0.00    +0.047 A 
ATOM     21 CL   UNL     1      -3.262   3.430   0.365  0.00  0.00    -0.083 Cl
ATOM     22 CL   UNL     1      -6.496  -0.586   1.978  0.00  0.00    -0.083 Cl
ENDBRANCH  14  15
ENDBRANCH   9  14
ENDBRANCH   7  10
ENDBRANCH   6   7
ENDBRANCH   1   6
BRANCH   5  23
ATOM     23  C   UNL     1       6.245   3.001   5.654  0.00  0.00    +0.199 C 
BRANCH  23  24
ATOM     24  C   UNL     1       7.062   2.403   4.538  0.00  0.00    +0.125 A 
ATOM     25  C   UNL     1       6.715   2.369   3.240  0.00  0.00    +0.046 A 
ATOM     26  C   UNL     1       7.767   1.724   2.550  0.00  0.00    +0.041 A 
ATOM     27  C   UNL     1       8.691   1.395   3.470  0.00  0.00    +0.195 A 
ATOM     28  O   UNL     1       8.259   1.809   4.673  0.00  0.00    -0.466 OA
ENDBRANCH  23  24
ENDBRANCH   5  23
BRANCH   4  29
ATOM     29  C   UNL     1       6.737   1.001   8.032  0.00  0.00    +0.085 C 
BRANCH  29  30
ATOM     30  C   UNL     1       6.573   1.835   9.305  0.00  0.00    +0.103 C 
BRANCH  30  31
ATOM     31  C   UNL     1       7.854   1.798  10.098  0.00  0.00    +0.211 C 
ATOM     32  O   UNL     1       8.804   1.167   9.686  0.00  0.00    -0.276 OA
ATOM     33  N   UNL     1       7.943   2.466  11.265  0.00  0.00    -0.329 N 
ATOM     34  H   UNL     1       8.878   2.440  11.843  0.00  0.00    +0.145 HD
ATOM     35  H   UNL     1       7.081   3.038  11.638  0.00  0.00    +0.145 HD
ENDBRANCH  30  31
ENDBRANCH  29  30
ENDBRANCH   4  29
TORSDOF 10
