REMARK  Name = ZINC20558717
REMARK  9 active torsions:
REMARK  status: ('A' for Active; 'I' for Inactive)
REMARK    1  A    between atoms: C_1  and  C_2
REMARK    2  A    between atoms: C_2  and  O_3
REMARK    3  A    between atoms: O_3  and  C_4
REMARK    4  A    between atoms: C_7  and  C_10
REMARK    5  A    between atoms: C_12  and  C_36
REMARK    6  A    between atoms: C_13  and  N_35
REMARK    7  A    between atoms: N_20  and  C_27
REMARK    8  A    between atoms: C_27  and  C_28
REMARK    9  A    between atoms: C_33  and  C_34
REMARK                            x       y       z     vdW  Elec       q    Type
REMARK                         _______ _______ _______ _____ _____    ______ ____
ROOT
ATOM      1  C   UNL     1       5.858   1.089   0.190  0.00  0.00    +0.118 C 
ATOM      2  C   UNL     1       5.717  -0.408   0.232  0.00  0.00    +0.099 C 
ATOM      3  C   UNL     1       4.509  -0.987   0.013  0.00  0.00    +0.199 C 
ATOM      4  O   UNL     1       3.420  -0.246  -0.246  0.00  0.00    -0.439 OA
ATOM      5  C   UNL     1       3.383   1.067   0.103  0.00  0.00    +0.162 C 
ATOM      6  C   UNL     1       4.509   1.741   0.317  0.00  0.00    +0.141 C 
ATOM      7  S   UNL     1       4.410   3.450   0.762  0.00  0.00    +0.076 S 
ATOM      8  O   UNL     1       4.283   3.505   2.177  0.00  0.00    -0.150 OA
ATOM      9  O   UNL     1       5.442   4.124   0.056  0.00  0.00    -0.150 OA
ATOM     10  N   UNL     1       2.962   3.968   0.124  0.00  0.00    -0.198 N 
ATOM     11  C   UNL     1       1.872   3.095   0.229  0.00  0.00    +0.062 A 
ATOM     12  C   UNL     1       2.054   1.712   0.231  0.00  0.00    +0.042 A 
ATOM     13  C   UNL     1       0.934   0.880   0.352  0.00  0.00    +0.013 A 
ATOM     14  C   UNL     1      -0.327   1.425   0.460  0.00  0.00    +0.001 A 
ATOM     15  C   UNL     1      -0.499   2.798   0.457  0.00  0.00    +0.002 A 
ATOM     16  C   UNL     1       0.596   3.632   0.338  0.00  0.00    +0.025 A 
ENDROOT
BRANCH   1  20
ATOM     17  C   UNL     1       7.644   2.240  -3.517  0.00  0.00    +0.121 A 
ATOM     18  C   UNL     1       8.276   2.539  -2.319  0.00  0.00    +0.046 A 
ATOM     19  C   UNL     1       7.697   2.166  -1.122  0.00  0.00    +0.008 A 
ATOM     20  C   UNL     1       6.488   1.495  -1.117  0.00  0.00    -0.033 A 
ATOM     21  C   UNL     1       5.859   1.191  -2.310  0.00  0.00    +0.008 A 
ATOM     22  C   UNL     1       6.431   1.567  -3.510  0.00  0.00    +0.046 A 
BRANCH  17  23
ATOM     23  O   UNL     1       8.213   2.606  -4.696  0.00  0.00    -0.492 OA
BRANCH  23  25
ATOM     24  C   UNL     1       8.294   2.755  -7.107  0.00  0.00    +0.048 C 
ATOM     25  C   UNL     1       7.506   2.265  -5.891  0.00  0.00    +0.225 C 
ENDBRANCH  23  25
ENDBRANCH  17  23
ENDBRANCH   1  20
BRANCH   3  26
ATOM     26  N   UNL     1       4.400  -2.354   0.058  0.00  0.00    -0.328 N 
ATOM     27  H   UNL     1       3.425  -2.834  -0.118  0.00  0.00    +0.145 HD
ATOM     28  H   UNL     1       5.286  -2.970   0.269  0.00  0.00    +0.145 HD
ENDBRANCH   3  26
BRANCH   2  29
ATOM     29  C   UNL     1       6.862  -1.225   0.502  0.00  0.00    +0.101 C 
ATOM     30  N   UNL     1       7.769  -1.874   0.717  0.00  0.00    -0.191 NA
ENDBRANCH   2  29
BRANCH  10  31
ATOM     31  C   UNL     1       2.834   5.279  -0.519  0.00  0.00    +0.167 C 
BRANCH  31  32
ATOM     32  C   UNL     1       3.017   5.129  -2.007  0.00  0.00    -0.025 A 
ATOM     33  C   UNL     1       3.169   3.871  -2.561  0.00  0.00    +0.005 A 
ATOM     34  C   UNL     1       3.331   3.733  -3.927  0.00  0.00    +0.000 A 
ATOM     35  C   UNL     1       3.352   4.853  -4.737  0.00  0.00    +0.000 A 
ATOM     36  C   UNL     1       3.205   6.110  -4.183  0.00  0.00    +0.003 A 
ATOM     37  C   UNL     1       3.038   6.248  -2.817  0.00  0.00    -0.046 A 
ATOM     38  C   UNL     1       2.878   7.619  -2.212  0.00  0.00    +0.044 C 
ENDBRANCH  31  32
ENDBRANCH  10  31
TORSDOF 7
