REMARK  Name = ZINC44178261
REMARK  4 active torsions:
REMARK  status: ('A' for Active; 'I' for Inactive)
REMARK    1  A    between atoms: C_1  and  C_2
REMARK    2  A    between atoms: C_2  and  C_21
REMARK    3  A    between atoms: N_7  and  C_8
REMARK    4  A    between atoms: C_14  and  O_16
REMARK                            x       y       z     vdW  Elec       q    Type
REMARK                         _______ _______ _______ _____ _____    ______ ____
ROOT
ATOM      1  C   UNL     1       1.769  -0.286   0.739  0.00  0.00    +0.091 C 
ATOM      2  C   UNL     1       2.696  -0.998   1.726  0.00  0.00    +0.086 C 
ATOM      3  C   UNL     1       4.101  -0.403   1.625  0.00  0.00    +0.172 C 
ATOM      4  C   UNL     1       4.637  -0.577   0.203  0.00  0.00    +0.067 C 
ATOM      5  C   UNL     1       3.707   0.135  -0.782  0.00  0.00    +0.038 C 
ATOM      6  C   UNL     1       2.303  -0.466  -0.683  0.00  0.00    +0.132 C 
ATOM      7  O   UNL     1       4.051   0.997   1.948  0.00  0.00    -0.346 OA
ATOM      8  C   UNL     1       4.395   1.064   3.353  0.00  0.00    +0.191 C 
ATOM      9  C   UNL     1       5.454  -0.061   3.472  0.00  0.00    +0.191 C 
ATOM     10  O   UNL     1       4.972  -1.062   2.552  0.00  0.00    -0.346 OA
ENDROOT
BRANCH   1  17
ATOM     11  C   UNL     1       0.323  -0.465   3.248  0.00  0.00    +0.030 C 
ATOM     12  C   UNL     1      -0.356  -0.213   1.900  0.00  0.00    +0.040 C 
ATOM     13  C   UNL     1      -1.770  -0.799   1.922  0.00  0.00    +0.181 C 
ATOM     14  O   UNL     1      -1.691  -2.217   2.093  0.00  0.00    -0.377 OA
ATOM     15  C   UNL     1      -0.943  -2.879   1.070  0.00  0.00    +0.175 C 
ATOM     16  C   UNL     1       0.480  -2.314   1.039  0.00  0.00    +0.113 C 
ATOM     17  N   UNL     1       0.420  -0.860   0.832  0.00  0.00    -0.287 NA
ATOM     18  C   UNL     1      -0.429   1.292   1.638  0.00  0.00    +0.030 C 
ENDBRANCH   1  17
BRANCH   6  19
ATOM     19  O   UNL     1       1.435   0.196  -1.606  0.00  0.00    -0.390 OA
ATOM     20  H   UNL     1       1.669   0.058  -2.534  0.00  0.00    +0.210 HD
ENDBRANCH   6  19
TORSDOF 2
