REMARK  Name = ZINC12412023
REMARK  6 active torsions:
REMARK  status: ('A' for Active; 'I' for Inactive)
REMARK    1  A    between atoms: C_1  and  C_2
REMARK    2  A    between atoms: C_2  and  N_3
REMARK    3  A    between atoms: N_22  and  C_23
REMARK    4  A    between atoms: C_26  and  O_29
REMARK    5  A    between atoms: O_29  and  C_30
REMARK    6  A    between atoms: C_30  and  C_31
REMARK                            x       y       z     vdW  Elec       q    Type
REMARK                         _______ _______ _______ _____ _____    ______ ____
ROOT
ATOM      1  N   UNL     1       0.996   7.584  -0.719  0.00  0.00    -0.268 N 
ATOM      2  C   UNL     1       1.766   8.044   0.335  0.00  0.00    +0.044 A 
ATOM      3  C   UNL     1       3.154   8.045   0.483  0.00  0.00    +0.024 A 
ATOM      4  C   UNL     1       3.664   8.575   1.658  0.00  0.00    +0.002 A 
ATOM      5  C   UNL     1       2.847   9.084   2.647  0.00  0.00    +0.001 A 
ATOM      6  C   UNL     1       1.463   9.089   2.511  0.00  0.00    +0.010 A 
ATOM      7  C   UNL     1       0.948   8.564   1.345  0.00  0.00    +0.025 A 
ATOM      8  C   UNL     1      -0.462   8.408   0.866  0.00  0.00    +0.212 C 
ATOM      9  C   UNL     1      -0.324   7.756  -0.495  0.00  0.00    +0.267 C 
ATOM     10  O   UNL     1      -1.228   7.447  -1.242  0.00  0.00    -0.271 OA
ATOM     11  N   UNL     1      -1.110   9.713   0.723  0.00  0.00    -0.311 N 
ATOM     12  C   UNL     1      -1.648  10.324   1.852  0.00  0.00    +0.041 A 
ATOM     13  C   UNL     1      -1.759  11.701   1.950  0.00  0.00    +0.024 A 
ATOM     14  C   UNL     1      -2.311  12.263   3.085  0.00  0.00    +0.002 A 
ATOM     15  C   UNL     1      -2.753  11.461   4.125  0.00  0.00    +0.001 A 
ATOM     16  C   UNL     1      -2.647  10.088   4.045  0.00  0.00    +0.015 A 
ATOM     17  C   UNL     1      -2.089   9.507   2.907  0.00  0.00    +0.058 A 
ATOM     18  C   UNL     1      -1.939   8.047   2.783  0.00  0.00    +0.255 C 
ATOM     19  O   UNL     1      -2.453   7.307   3.600  0.00  0.00    -0.269 OA
ATOM     20  N   UNL     1      -1.224   7.539   1.758  0.00  0.00    -0.234 N 
ATOM     21  H   UNL     1      -1.164  10.145  -0.144  0.00  0.00    +0.149 HD
ENDROOT
BRANCH  20  22
ATOM     22  C   UNL     1      -1.218   6.155   1.543  0.00  0.00    +0.040 A 
ATOM     23  C   UNL     1      -2.255   5.556   0.841  0.00  0.00    +0.027 A 
ATOM     24  C   UNL     1      -2.248   4.192   0.629  0.00  0.00    +0.047 A 
ATOM     25  C   UNL     1      -1.205   3.419   1.118  0.00  0.00    +0.121 A 
ATOM     26  C   UNL     1      -0.171   4.016   1.825  0.00  0.00    +0.047 A 
ATOM     27  C   UNL     1      -0.174   5.381   2.032  0.00  0.00    +0.027 A 
BRANCH  25  28
ATOM     28  O   UNL     1      -1.199   2.075   0.910  0.00  0.00    -0.492 OA
BRANCH  28  29
ATOM     29  C   UNL     1      -0.094   1.341   1.442  0.00  0.00    +0.225 C 
ATOM     30  C   UNL     1      -0.261  -0.143   1.111  0.00  0.00    +0.048 C 
ENDBRANCH  28  29
ENDBRANCH  25  28
ENDBRANCH  20  22
BRANCH   1  32
ATOM     31  C   UNL     1       1.684   5.469  -1.736  0.00  0.00    +0.025 C 
ATOM     32  C   UNL     1       1.548   6.980  -1.934  0.00  0.00    +0.110 C 
ENDBRANCH   1  32
TORSDOF 4
