REMARK  Name = ZINC22322185
REMARK  13 active torsions:
REMARK  status: ('A' for Active; 'I' for Inactive)
REMARK    1  A    between atoms: C_1  and  C_2
REMARK    2  A    between atoms: C_2  and  O_3
REMARK    3  A    between atoms: O_3  and  C_4
REMARK    4  A    between atoms: C_9  and  N_10
REMARK    5  A    between atoms: N_10  and  C_11
REMARK    6  A    between atoms: N_10  and  S_29
REMARK    7  A    between atoms: C_11  and  C_12
REMARK    8  A    between atoms: N_14  and  C_15
REMARK    9  A    between atoms: C_18  and  C_27
REMARK   10  A    between atoms: C_18  and  C_28
REMARK   11  A    between atoms: C_23  and  C_26
REMARK   12  A    between atoms: S_29  and  C_32
REMARK   13  A    between atoms: C_35  and  C_38
REMARK                            x       y       z     vdW  Elec       q    Type
REMARK                         _______ _______ _______ _____ _____    ______ ____
ROOT
ATOM      1  N   UNL     1       0.002  -0.004   0.002  0.00  0.00    -0.191 N 
ENDROOT
BRANCH   1   7
ATOM      2  C   UNL     1      -1.168  -0.988   1.878  0.00  0.00    +0.143 A 
ATOM      3  C   UNL     1      -1.141  -1.688   3.073  0.00  0.00    +0.047 A 
ATOM      4  C   UNL     1       0.066  -2.108   3.601  0.00  0.00    +0.004 A 
ATOM      5  C   UNL     1       1.248  -1.833   2.939  0.00  0.00    +0.002 A 
ATOM      6  C   UNL     1       1.230  -1.140   1.744  0.00  0.00    +0.028 A 
ATOM      7  C   UNL     1       0.023  -0.710   1.210  0.00  0.00    +0.093 A 
BRANCH   2   8
ATOM      8  O   UNL     1      -2.354  -0.575   1.356  0.00  0.00    -0.490 OA
BRANCH   8  10
ATOM      9  C   UNL     1      -4.760  -0.352   1.358  0.00  0.00    +0.048 C 
ATOM     10  C   UNL     1      -3.534  -0.895   2.095  0.00  0.00    +0.226 C 
ENDBRANCH   8  10
ENDBRANCH   2   8
ENDBRANCH   1   7
BRANCH   1  11
ATOM     11  S   UNL     1      -0.020   1.652   0.011  0.00  0.00    +0.075 S 
ATOM     12  O   UNL     1      -0.589   2.057  -1.227  0.00  0.00    -0.150 OA
ATOM     13  O   UNL     1      -0.565   2.044   1.264  0.00  0.00    -0.150 OA
BRANCH  11  14
ATOM     14  C   UNL     1       1.655   2.196  -0.002  0.00  0.00    +0.109 A 
ATOM     15  C   UNL     1       2.323   2.408   1.190  0.00  0.00    +0.029 A 
ATOM     16  C   UNL     1       3.639   2.829   1.180  0.00  0.00    +0.005 A 
ATOM     17  C   UNL     1       4.285   3.050  -0.022  0.00  0.00    -0.050 A 
ATOM     18  C   UNL     1       3.616   2.842  -1.214  0.00  0.00    +0.005 A 
ATOM     19  C   UNL     1       2.301   2.415  -1.204  0.00  0.00    +0.029 A 
ATOM     20  C   UNL     1       5.718   3.515  -0.034  0.00  0.00    +0.044 C 
ENDBRANCH  11  14
ENDBRANCH   1  11
BRANCH   1  21
ATOM     21  C   UNL     1      -0.000  -0.730  -1.271  0.00  0.00    +0.227 C 
BRANCH  21  22
ATOM     22  C   UNL     1       1.416  -1.067  -1.659  0.00  0.00    +0.233 C 
ATOM     23  O   UNL     1       2.337  -0.734  -0.943  0.00  0.00    -0.274 OA
ATOM     24  N   UNL     1       1.660  -1.738  -2.802  0.00  0.00    -0.307 N 
ATOM     25  H   UNL     1       0.825  -2.040  -3.451  0.00  0.00    +0.149 HD
BRANCH  24  26
ATOM     26  C   UNL     1       3.037  -2.066  -3.180  0.00  0.00    +0.111 C 
ATOM     27  C   UNL     1       3.123  -2.230  -4.699  0.00  0.00    +0.074 C 
ATOM     28  C   UNL     1       4.482  -2.855  -5.040  0.00  0.00    +0.107 C 
ATOM     29  O   UNL     1       4.524  -4.171  -4.485  0.00  0.00    -0.486 OA
ATOM     30  C   UNL     1       4.165  -4.322  -3.184  0.00  0.00    +0.126 A 
ATOM     31  C   UNL     1       3.450  -3.350  -2.506  0.00  0.00    +0.015 A 
ATOM     32  C   UNL     1       3.101  -3.550  -1.181  0.00  0.00    +0.012 A 
ATOM     33  C   UNL     1       3.466  -4.713  -0.532  0.00  0.00    -0.050 A 
ATOM     34  C   UNL     1       4.183  -5.685  -1.205  0.00  0.00    +0.007 A 
ATOM     35  C   UNL     1       4.533  -5.492  -2.526  0.00  0.00    +0.046 A 
ATOM     36  C   UNL     1       3.082  -4.923   0.910  0.00  0.00    +0.044 C 
ATOM     37  C   UNL     1       5.605  -2.007  -4.440  0.00  0.00    +0.055 C 
ATOM     38  C   UNL     1       4.649  -2.931  -6.559  0.00  0.00    +0.055 C 
ENDBRANCH  24  26
ENDBRANCH  21  22
ENDBRANCH   1  21
TORSDOF 8
