REMARK  Name = ZINC12073287
REMARK  4 active torsions:
REMARK  status: ('A' for Active; 'I' for Inactive)
REMARK    1  A    between atoms: C_11  and  C_25
REMARK    2  A    between atoms: C_16  and  C_18
REMARK    3  A    between atoms: C_18  and  C_19
REMARK    4  A    between atoms: C_19  and  C_20
REMARK                            x       y       z     vdW  Elec       q    Type
REMARK                         _______ _______ _______ _____ _____    ______ ____
ROOT
ATOM      1  C   UNL     1       4.311   5.240   5.606  0.00  0.00    +0.001 A 
ATOM      2  C   UNL     1       3.286   6.170   5.551  0.00  0.00    +0.002 A 
ATOM      3  C   UNL     1       2.482   6.319   4.434  0.00  0.00    +0.026 A 
ATOM      4  C   UNL     1       2.747   5.483   3.351  0.00  0.00    +0.047 A 
ATOM      5  C   UNL     1       3.797   4.532   3.412  0.00  0.00    +0.003 A 
ATOM      6  C   UNL     1       4.594   4.404   4.554  0.00  0.00    +0.010 A 
ATOM      7  C   UNL     1       3.793   3.847   2.135  0.00  0.00    -0.015 A 
ATOM      8  C   UNL     1       2.793   4.383   1.404  0.00  0.00    +0.046 A 
ATOM      9  N   UNL     1       2.163   5.364   2.122  0.00  0.00    -0.356 N 
ATOM     10  H   UNL     1       1.414   5.894   1.806  0.00  0.00    +0.166 HD
ATOM     11  C   UNL     1       2.453   3.935  -0.000  0.00  0.00    +0.156 C 
ATOM     12  N   UNL     1       3.548   3.067  -0.467  0.00  0.00    -0.289 N 
ATOM     13  C   UNL     1       4.069   2.047   0.458  0.00  0.00    +0.113 C 
ATOM     14  C   UNL     1       4.710   2.748   1.663  0.00  0.00    +0.056 C 
ATOM     15  C   UNL     1       4.059   3.205  -1.706  0.00  0.00    +0.217 C 
ATOM     16  O   UNL     1       3.617   4.052  -2.454  0.00  0.00    -0.276 OA
ENDROOT
BRANCH  11  17
ATOM     17  C   UNL     1       1.158   3.165   0.007  0.00  0.00    +0.014 A 
ATOM     18  C   UNL     1       0.656   2.668   1.196  0.00  0.00    +0.008 A 
ATOM     19  C   UNL     1      -0.532   1.962   1.203  0.00  0.00    +0.001 A 
ATOM     20  C   UNL     1      -1.218   1.747   0.022  0.00  0.00    +0.003 A 
ATOM     21  C   UNL     1      -0.720   2.247  -1.167  0.00  0.00    +0.039 A 
ATOM     22  C   UNL     1       0.470   2.954  -1.175  0.00  0.00    +0.129 A 
ATOM     23  F   UNL     1       0.960   3.440  -2.337  0.00  0.00    -0.205 F 
ENDBRANCH  11  17
BRANCH  15  24
ATOM     24  C   UNL     1       5.179   2.308  -2.164  0.00  0.00    +0.104 C 
BRANCH  24  25
ATOM     25  C   UNL     1       5.571   2.670  -3.598  0.00  0.00    +0.083 C 
BRANCH  25  26
ATOM     26  C   UNL     1       6.691   1.772  -4.055  0.00  0.00    +0.105 A 
ATOM     27  C   UNL     1       6.546   0.587  -4.674  0.00  0.00    +0.044 A 
ATOM     28  C   UNL     1       7.847   0.092  -4.920  0.00  0.00    +0.041 A 
ATOM     29  C   UNL     1       8.710   1.004  -4.437  0.00  0.00    +0.195 A 
ATOM     30  O   UNL     1       8.004   2.022  -3.919  0.00  0.00    -0.468 OA
ENDBRANCH  25  26
ENDBRANCH  24  25
ENDBRANCH  15  24
TORSDOF 4
