REMARK  Name = ZINC57312486
REMARK  5 active torsions:
REMARK  status: ('A' for Active; 'I' for Inactive)
REMARK    1  A    between atoms: C_1  and  C_2
REMARK    2  A    between atoms: C_2  and  C_4
REMARK    3  A    between atoms: C_2  and  C_14
REMARK    4  A    between atoms: C_4  and  C_5
REMARK    5  A    between atoms: C_5  and  N_7
REMARK                            x       y       z     vdW  Elec       q    Type
REMARK                         _______ _______ _______ _____ _____    ______ ____
ROOT
ATOM      1  C   UNL     1      -2.129  -0.126  -1.259  0.00  0.00    +0.239 C 
ATOM      2  O   UNL     1      -1.532   0.524  -2.095  0.00  0.00    -0.274 OA
ENDROOT
BRANCH   1   3
ATOM      3  N   UNL     1      -3.390  -0.492  -1.476  0.00  0.00    -0.148 NA
ATOM      4  C   UNL     1      -4.031  -0.059  -2.558  0.00  0.00    +0.210 C 
ATOM      5  N   UNL     1      -3.447   0.670  -3.556  0.00  0.00    -0.306 N 
ATOM      6  C   UNL     1      -4.517   0.926  -4.538  0.00  0.00    +0.205 C 
ATOM      7  C   UNL     1      -5.724   0.242  -3.930  0.00  0.00    +0.266 C 
ATOM      8  O   UNL     1      -6.962   0.187  -4.447  0.00  0.00    -0.269 OA
ATOM      9  N   UNL     1      -5.324  -0.289  -2.806  0.00  0.00    -0.180 NA
ATOM     10  H   UNL     1      -2.522   0.959  -3.608  0.00  0.00    +0.149 HD
ENDBRANCH   1   3
BRANCH   1  11
ATOM     11  C   UNL     1      -1.441  -0.518   0.023  0.00  0.00    +0.101 C 
BRANCH  11  13
ATOM     12  C   UNL     1      -0.044   1.554   0.030  0.00  0.00    +0.008 C 
ATOM     13  C   UNL     1      -0.010   0.024   0.020  0.00  0.00    -0.002 C 
BRANCH  13  14
ATOM     14  C   UNL     1       0.728  -0.478   1.263  0.00  0.00    -0.008 C 
ATOM     15  C   UNL     1       2.087  -1.148   1.054  0.00  0.00    +0.004 C 
ATOM     16  C   UNL     1       0.870  -1.991   1.438  0.00  0.00    +0.004 C 
ENDBRANCH  13  14
ENDBRANCH  11  13
ENDBRANCH   1  11
TORSDOF 4
