REMARK  Name = ZINC39666190
REMARK  10 active torsions:
REMARK  status: ('A' for Active; 'I' for Inactive)
REMARK    1  A    between atoms: C_1  and  C_2
REMARK    2  A    between atoms: C_5  and  O_8
REMARK    3  A    between atoms: O_8  and  C_9
REMARK    4  A    between atoms: C_9  and  C_11
REMARK    5  A    between atoms: C_9  and  C_12
REMARK    6  A    between atoms: C_12  and  N_13
REMARK    7  A    between atoms: C_14  and  C_16
REMARK    8  A    between atoms: C_27  and  C_29
REMARK    9  A    between atoms: C_33  and  O_34
REMARK   10  A    between atoms: O_34  and  C_35
REMARK                            x       y       z     vdW  Elec       q    Type
REMARK                         _______ _______ _______ _____ _____    ______ ____
ROOT
ATOM      1  C   UNL     1       4.746  -6.764  -0.051  0.00  0.00    +0.100 C 
ATOM      2  C   UNL     1       5.599  -6.107   1.057  0.00  0.00    +0.121 C 
ATOM      3  N   UNL     1       6.212  -7.246   1.782  0.00  0.00    -0.296 N 
ATOM      4  C   UNL     1       6.563  -8.215   0.717  0.00  0.00    +0.115 C 
ATOM      5  C   UNL     1       5.384  -8.145  -0.274  0.00  0.00    -0.004 C 
ATOM      6  C   UNL     1       4.375  -9.248   0.030  0.00  0.00    -0.010 C 
ATOM      7  C   UNL     1       5.014 -10.611  -0.254  0.00  0.00    -0.082 C 
ATOM      8  N   UNL     1       5.430 -10.675  -1.660  0.00  0.00    +0.379 N 
ATOM      9  C   UNL     1       6.469  -9.671  -1.921  0.00  0.00    -0.082 C 
ATOM     10  C   UNL     1       5.891  -8.269  -1.708  0.00  0.00    -0.010 C 
ATOM     11  C   UNL     1       6.406  -7.371   3.110  0.00  0.00    +0.251 C 
ATOM     12  O   UNL     1       6.127  -6.451   3.855  0.00  0.00    -0.270 OA
ATOM     13  H   UNL     1       5.795 -11.594  -1.860  0.00  0.00    -0.086 HD
ATOM     14  H   UNL     1       4.634 -10.496  -2.253  0.00  0.00    -0.086 HD
ENDROOT
BRANCH  11  15
ATOM     15  C   UNL     1       6.954  -8.621   3.658  0.00  0.00    +0.087 A 
ATOM     16  C   UNL     1       7.899  -9.355   2.975  0.00  0.00    +0.063 A 
ATOM     17  S   UNL     1       8.209 -10.665   3.976  0.00  0.00    -0.081 S 
ATOM     18  C   UNL     1       7.109 -10.295   5.325  0.00  0.00    +0.120 A 
ATOM     19  C   UNL     1       6.531  -9.134   4.941  0.00  0.00    +0.158 A 
ATOM     20 CL   UNL     1       6.846 -11.200   6.783  0.00  0.00    -0.072 Cl
BRANCH  19  21
ATOM     21  O   UNL     1       5.608  -8.494   5.710  0.00  0.00    -0.492 OA
ATOM     22  C   UNL     1       4.238  -8.846   5.507  0.00  0.00    +0.277 C 
ENDBRANCH  19  21
ENDBRANCH  11  15
BRANCH   1  24
ATOM     23  N   UNL     1       2.332  -7.060  -0.503  0.00  0.00    -0.312 N 
ATOM     24  C   UNL     1       3.318  -6.913   0.405  0.00  0.00    +0.218 C 
ATOM     25  O   UNL     1       3.055  -6.900   1.589  0.00  0.00    -0.275 OA
ATOM     26  H   UNL     1       2.543  -7.070  -1.450  0.00  0.00    +0.149 HD
BRANCH  23  27
ATOM     27  C   UNL     1       0.944  -7.205  -0.060  0.00  0.00    +0.148 C 
BRANCH  27  28
ATOM     28  C   UNL     1       0.032  -7.355  -1.279  0.00  0.00    +0.187 C 
ATOM     29  C   UNL     1      -1.429  -7.381  -0.824  0.00  0.00    +0.053 C 
BRANCH  28  30
ATOM     30  O   UNL     1       0.341  -8.574  -1.958  0.00  0.00    -0.488 OA
BRANCH  30  35
ATOM     31  C   UNL     1      -0.165  -8.578  -7.567  0.00  0.00    +0.044 C 
ATOM     32  C   UNL     1      -0.030  -8.577  -6.066  0.00  0.00    -0.050 A 
ATOM     33  C   UNL     1      -0.431  -7.472  -5.338  0.00  0.00    +0.007 A 
ATOM     34  C   UNL     1      -0.308  -7.469  -3.962  0.00  0.00    +0.046 A 
ATOM     35  C   UNL     1       0.218  -8.575  -3.311  0.00  0.00    +0.121 A 
ATOM     36  C   UNL     1       0.620  -9.683  -4.044  0.00  0.00    +0.046 A 
ATOM     37  C   UNL     1       0.489  -9.683  -5.420  0.00  0.00    +0.007 A 
ENDBRANCH  30  35
ENDBRANCH  28  30
ENDBRANCH  27  28
ENDBRANCH  23  27
ENDBRANCH   1  24
TORSDOF 7
