REMARK  Name = ZINC26258810
REMARK  11 active torsions:
REMARK  status: ('A' for Active; 'I' for Inactive)
REMARK    1  A    between atoms: C_1  and  C_2
REMARK    2  A    between atoms: C_2  and  C_3
REMARK    3  A    between atoms: C_3  and  C_4
REMARK    4  A    between atoms: C_4  and  N_5
REMARK    5  A    between atoms: C_11  and  S_12
REMARK    6  A    between atoms: S_12  and  C_13
REMARK    7  A    between atoms: C_13  and  C_14
REMARK    8  A    between atoms: C_14  and  N_16
REMARK    9  A    between atoms: C_19  and  C_22
REMARK   10  A    between atoms: C_25  and  C_29
REMARK   11  A    between atoms: C_26  and  C_28
REMARK                            x       y       z     vdW  Elec       q    Type
REMARK                         _______ _______ _______ _____ _____    ______ ____
ROOT
ATOM      1  C   UNL     1      -4.186  -3.039  -5.204  0.00  0.00    +0.249 C 
ATOM      2  O   UNL     1      -3.098  -2.635  -5.568  0.00  0.00    -0.273 OA
ENDROOT
BRANCH   1   3
ATOM      3  N   UNL     1      -5.105  -3.371  -6.103  0.00  0.00    -0.156 NA
ATOM      4  C   UNL     1      -4.835  -3.259  -7.405  0.00  0.00    +0.163 A 
ATOM      5  N   UNL     1      -5.645  -3.543  -8.459  0.00  0.00    -0.335 N 
ATOM      6  C   UNL     1      -5.168  -3.356  -9.726  0.00  0.00    +0.055 A 
ATOM      7  C   UNL     1      -3.902  -2.895  -9.839  0.00  0.00    +0.074 A 
ATOM      8  S   UNL     1      -3.416  -2.728  -8.132  0.00  0.00    -0.060 S 
ATOM      9  H   UNL     1      -6.546  -3.872  -8.315  0.00  0.00    +0.168 HD
BRANCH   6  10
ATOM     10  C   UNL     1      -5.997  -3.646 -10.917  0.00  0.00    -0.001 A 
ATOM     11  C   UNL     1      -7.302  -4.116 -10.765  0.00  0.00    +0.010 A 
ATOM     12  C   UNL     1      -8.070  -4.384 -11.879  0.00  0.00    +0.004 A 
ATOM     13  C   UNL     1      -7.548  -4.187 -13.146  0.00  0.00    -0.047 A 
ATOM     14  C   UNL     1      -6.255  -3.721 -13.303  0.00  0.00    -0.047 A 
ATOM     15  C   UNL     1      -5.479  -3.444 -12.197  0.00  0.00    +0.013 A 
ATOM     16  C   UNL     1      -5.695  -3.511 -14.686  0.00  0.00    +0.044 C 
ATOM     17  C   UNL     1      -8.393  -4.481 -14.359  0.00  0.00    +0.044 C 
ENDBRANCH   6  10
ENDBRANCH   1   3
BRANCH   1  18
ATOM     18  C   UNL     1      -4.490  -3.165  -3.734  0.00  0.00    +0.175 C 
BRANCH  18  19
ATOM     19  S   UNL     1      -3.046  -2.641  -2.770  0.00  0.00    -0.077 S 
BRANCH  19  26
ATOM     20  N   UNL     1      -2.787  -2.571   0.015  0.00  0.00    -0.271 N 
ATOM     21  C   UNL     1      -3.519  -2.844   1.113  0.00  0.00    +0.345 A 
ATOM     22  O   UNL     1      -3.158  -2.714   2.269  0.00  0.00    -0.245 OA
ATOM     23  N   UNL     1      -4.724  -3.287   0.700  0.00  0.00    -0.226 N 
ATOM     24  H   UNL     1      -5.461  -3.561   1.268  0.00  0.00    +0.194 HD
ATOM     25  N   UNL     1      -4.715  -3.280  -0.702  0.00  0.00    -0.145 NA
ATOM     26  C   UNL     1      -3.554  -2.844  -1.095  0.00  0.00    +0.192 A 
BRANCH  20  27
ATOM     27  C   UNL     1      -1.413  -2.063   0.004  0.00  0.00    +0.129 C 
BRANCH  27  28
ATOM     28  C   UNL     1      -1.433  -0.534   0.013  0.00  0.00    +0.021 C 
BRANCH  28  30
ATOM     29  C   UNL     1      -0.019   1.526   0.010  0.00  0.00    +0.004 C 
ATOM     30  C   UNL     1       0.002  -0.004   0.002  0.00  0.00    -0.002 C 
ENDBRANCH  28  30
ENDBRANCH  27  28
ENDBRANCH  20  27
ENDBRANCH  19  26
ENDBRANCH  18  19
ENDBRANCH   1  18
TORSDOF 8
