REMARK  Name = ZINC09363579
REMARK  7 active torsions:
REMARK  status: ('A' for Active; 'I' for Inactive)
REMARK    1  A    between atoms: C_6  and  C_7
REMARK    2  A    between atoms: C_9  and  C_13
REMARK    3  A    between atoms: C_16  and  S_19
REMARK    4  A    between atoms: N_17  and  N_18
REMARK    5  A    between atoms: S_19  and  C_20
REMARK    6  A    between atoms: C_20  and  C_21
REMARK    7  A    between atoms: N_23  and  C_24
REMARK                            x       y       z     vdW  Elec       q    Type
REMARK                         _______ _______ _______ _____ _____    ______ ____
ROOT
ATOM      1  C   UNL     1      -3.355  -3.783  -0.001  0.00  0.00    +0.202 A 
ATOM      2  N   UNL     1      -2.697  -4.918  -0.006  0.00  0.00    -0.125 NA
ATOM      3  N   UNL     1      -3.521  -5.904   0.004  0.00  0.00    -0.120 NA
ATOM      4  C   UNL     1      -4.757  -5.458   0.016  0.00  0.00    +0.209 A 
ATOM      5  N   UNL     1      -4.695  -4.093   0.019  0.00  0.00    -0.222 N 
ENDROOT
BRANCH   1   8
ATOM      6  C   UNL     1      -1.267  -0.764  -0.028  0.00  0.00    +0.066 A 
ATOM      7  C   UNL     1      -1.393  -2.122  -0.028  0.00  0.00    +0.061 A 
ATOM      8  C   UNL     1      -2.767  -2.425  -0.007  0.00  0.00    +0.132 A 
ATOM      9  N   UNL     1      -3.440  -1.292   0.004  0.00  0.00    -0.170 NA
ATOM     10  N   UNL     1      -2.523  -0.233  -0.003  0.00  0.00    -0.276 N 
ATOM     11  H   UNL     1      -2.743   0.711   0.007  0.00  0.00    +0.189 HD
BRANCH   6  17
ATOM     12  C   UNL     1      -0.016   1.390  -0.038  0.00  0.00    +0.013 A 
ATOM     13  C   UNL     1       1.171   2.093  -0.054  0.00  0.00    +0.039 A 
ATOM     14  C   UNL     1       2.380   1.417  -0.079  0.00  0.00    +0.123 A 
ATOM     15  C   UNL     1       2.404   0.031  -0.087  0.00  0.00    +0.039 A 
ATOM     16  C   UNL     1       1.223  -0.681  -0.071  0.00  0.00    +0.013 A 
ATOM     17  C   UNL     1       0.003  -0.005  -0.046  0.00  0.00    -0.000 A 
ATOM     18  F   UNL     1       3.539   2.110  -0.095  0.00  0.00    -0.205 F 
ENDBRANCH   6  17
ENDBRANCH   1   8
BRANCH   5  19
ATOM     19  N   UNL     1      -5.745  -3.219   0.036  0.00  0.00    -0.295 N 
ATOM     20  H   UNL     1      -6.037  -2.986  -0.901  0.00  0.00    +0.163 HD
ATOM     21  H   UNL     1      -6.515  -3.589   0.573  0.00  0.00    +0.163 HD
ENDBRANCH   5  19
BRANCH   4  22
ATOM     22  S   UNL     1      -6.222  -6.438   0.031  0.00  0.00    -0.075 S 
BRANCH  22  23
ATOM     23  C   UNL     1      -5.608  -8.145   0.027  0.00  0.00    +0.173 C 
BRANCH  23  24
ATOM     24  C   UNL     1      -6.775  -9.098   0.040  0.00  0.00    +0.227 C 
ATOM     25  O   UNL     1      -7.909  -8.668   0.050  0.00  0.00    -0.275 OA
ATOM     26  N   UNL     1      -6.558 -10.428   0.039  0.00  0.00    -0.285 N 
ATOM     27  H   UNL     1      -5.654 -10.773  -0.037  0.00  0.00    +0.155 HD
BRANCH  26  28
ATOM     28  C   UNL     1      -7.637 -11.314   0.148  0.00  0.00    +0.036 A 
ATOM     29  C   UNL     1      -7.493 -12.503   0.851  0.00  0.00    +0.026 A 
ATOM     30  C   UNL     1      -8.558 -13.375   0.958  0.00  0.00    +0.043 A 
ATOM     31  C   UNL     1      -9.770 -13.066   0.366  0.00  0.00    +0.159 A 
ATOM     32  C   UNL     1      -9.918 -11.880  -0.336  0.00  0.00    +0.160 A 
ATOM     33  C   UNL     1      -8.855 -11.001  -0.441  0.00  0.00    +0.064 A 
ATOM     34  F   UNL     1     -11.102 -11.579  -0.913  0.00  0.00    -0.202 F 
ATOM     35  F   UNL     1     -10.811 -13.921   0.472  0.00  0.00    -0.202 F 
ENDBRANCH  26  28
ENDBRANCH  23  24
ENDBRANCH  22  23
ENDBRANCH   4  22
TORSDOF 7
