REMARK  Name = ZINC16790655
REMARK  8 active torsions:
REMARK  status: ('A' for Active; 'I' for Inactive)
REMARK    1  A    between atoms: C_1  and  C_2
REMARK    2  A    between atoms: C_2  and  C_4
REMARK    3  A    between atoms: C_2  and  S_15
REMARK    4  A    between atoms: N_6  and  C_7
REMARK    5  A    between atoms: C_7  and  C_8
REMARK    6  A    between atoms: S_15  and  C_16
REMARK    7  A    between atoms: C_19  and  C_22
REMARK    8  A    between atoms: N_20  and  N_21
REMARK                            x       y       z     vdW  Elec       q    Type
REMARK                         _______ _______ _______ _____ _____    ______ ____
ROOT
ATOM      1  C   UNL     1      -0.019   1.526   0.010  0.00  0.00    +0.029 C 
ATOM      2  C   UNL     1       0.002  -0.004   0.002  0.00  0.00    +0.137 C 
ENDROOT
BRANCH   2   3
ATOM      3  C   UNL     1       0.731  -0.503   1.223  0.00  0.00    +0.226 C 
ATOM      4  O   UNL     1       1.911  -0.775   1.156  0.00  0.00    -0.275 OA
ATOM      5  N   UNL     1       0.071  -0.647   2.389  0.00  0.00    -0.310 N 
ATOM      6  H   UNL     1      -0.872  -0.430   2.443  0.00  0.00    +0.149 HD
BRANCH   5   7
ATOM      7  C   UNL     1       0.780  -1.133   3.576  0.00  0.00    +0.139 C 
BRANCH   7   8
ATOM      8  C   UNL     1      -0.176  -1.203   4.739  0.00  0.00    -0.030 A 
ATOM      9  C   UNL     1      -0.343  -0.106   5.564  0.00  0.00    +0.006 A 
ATOM     10  C   UNL     1      -1.220  -0.170   6.630  0.00  0.00    +0.020 A 
ATOM     11  C   UNL     1      -1.931  -1.331   6.872  0.00  0.00    +0.041 A 
ATOM     12  C   UNL     1      -1.765  -2.429   6.045  0.00  0.00    +0.020 A 
ATOM     13  C   UNL     1      -0.892  -2.362   4.976  0.00  0.00    +0.006 A 
ATOM     14 CL   UNL     1      -3.033  -1.412   8.211  0.00  0.00    -0.084 Cl
ENDBRANCH   7   8
ENDBRANCH   5   7
ENDBRANCH   2   3
BRANCH   2  15
ATOM     15  S   UNL     1       0.851  -0.589  -1.490  0.00  0.00    -0.072 S 
BRANCH  15  16
ATOM     16  C   UNL     1      -0.189  -0.057  -2.809  0.00  0.00    +0.209 A 
ATOM     17  N   UNL     1      -1.312   0.615  -2.693  0.00  0.00    -0.121 NA
ATOM     18  N   UNL     1      -1.816   0.840  -3.853  0.00  0.00    -0.126 NA
ATOM     19  C   UNL     1      -1.044   0.325  -4.785  0.00  0.00    +0.188 A 
ATOM     20  N   UNL     1       0.025  -0.261  -4.144  0.00  0.00    -0.223 N 
BRANCH  19  21
ATOM     21  C   UNL     1      -1.276   0.370  -6.238  0.00  0.00    +0.058 A 
ATOM     22  C   UNL     1      -2.139   1.163  -6.951  0.00  0.00    +0.019 A 
ATOM     23  C   UNL     1      -2.182   1.027  -8.320  0.00  0.00    +0.008 A 
ATOM     24  C   UNL     1      -1.373   0.116  -8.921  0.00  0.00    +0.046 A 
ATOM     25  S   UNL     1      -0.502  -0.587  -7.531  0.00  0.00    -0.093 S 
ENDBRANCH  19  21
BRANCH  20  26
ATOM     26  N   UNL     1       1.079  -0.911  -4.721  0.00  0.00    -0.295 N 
ATOM     27  H   UNL     1       0.882  -1.895  -4.827  0.00  0.00    +0.163 HD
ATOM     28  H   UNL     1       1.320  -0.493  -5.607  0.00  0.00    +0.163 HD
ENDBRANCH  20  26
ENDBRANCH  15  16
ENDBRANCH   2  15
TORSDOF 7
