REMARK  Name = ZINC36274827
REMARK  9 active torsions:
REMARK  status: ('A' for Active; 'I' for Inactive)
REMARK    1  A    between atoms: C_4  and  C_7
REMARK    2  A    between atoms: C_7  and  N_8
REMARK    3  A    between atoms: C_11  and  N_14
REMARK    4  A    between atoms: C_15  and  C_17
REMARK    5  A    between atoms: C_18  and  C_19
REMARK    6  A    between atoms: C_22  and  S_25
REMARK    7  A    between atoms: S_25  and  N_28
REMARK    8  A    between atoms: N_28  and  C_29
REMARK    9  A    between atoms: C_29  and  C_30
REMARK                            x       y       z     vdW  Elec       q    Type
REMARK                         _______ _______ _______ _____ _____    ______ ____
ROOT
ATOM      1  C   UNL     1       6.800  -3.817   6.653  0.00  0.00    +0.068 C 
ATOM      2  C   UNL     1       7.721  -4.739   6.998  0.00  0.00    +0.013 C 
ENDROOT
BRANCH   2   3
ATOM      3  C   UNL     1       8.154  -4.859   8.400  0.00  0.00    -0.025 A 
ATOM      4  C   UNL     1       7.607  -4.022   9.378  0.00  0.00    +0.010 A 
ATOM      5  C   UNL     1       8.017  -4.140  10.689  0.00  0.00    +0.029 A 
ATOM      6  C   UNL     1       8.967  -5.084  11.038  0.00  0.00    +0.105 A 
ATOM      7  C   UNL     1       9.513  -5.916  10.076  0.00  0.00    +0.029 A 
ATOM      8  C   UNL     1       9.109  -5.814   8.762  0.00  0.00    +0.010 A 
BRANCH   6   9
ATOM      9  S   UNL     1       9.486  -5.227  12.716  0.00  0.00    +0.059 S 
ATOM     10  O   UNL     1      10.780  -5.813  12.693  0.00  0.00    -0.153 OA
ATOM     11  O   UNL     1       9.229  -3.971  13.329  0.00  0.00    -0.153 OA
BRANCH   9  12
ATOM     12  N   UNL     1       8.482  -6.323  13.447  0.00  0.00    -0.183 NA
ATOM     13  H   UNL     1       7.890  -6.039  14.160  0.00  0.00    +0.148 HD
BRANCH  12  14
ATOM     14  C   UNL     1       8.489  -7.723  13.015  0.00  0.00    +0.180 C 
BRANCH  14  15
ATOM     15  C   UNL     1       7.790  -8.570  14.047  0.00  0.00    +0.120 A 
ATOM     16  C   UNL     1       6.477  -8.862  14.066  0.00  0.00    +0.046 A 
ATOM     17  C   UNL     1       6.255  -9.677  15.200  0.00  0.00    +0.041 A 
ATOM     18  C   UNL     1       7.445  -9.834  15.806  0.00  0.00    +0.195 A 
ATOM     19  O   UNL     1       8.372  -9.167  15.100  0.00  0.00    -0.466 OA
ENDBRANCH  14  15
ENDBRANCH  12  14
ENDBRANCH   9  12
ENDBRANCH   6   9
ENDBRANCH   2   3
BRANCH   1  21
ATOM     20  N   UNL     1       5.449  -2.776   4.914  0.00  0.00    -0.309 N 
ATOM     21  C   UNL     1       6.370  -3.698   5.258  0.00  0.00    +0.237 C 
ATOM     22  O   UNL     1       6.844  -4.432   4.411  0.00  0.00    -0.271 OA
ATOM     23  H   UNL     1       5.071  -2.192   5.589  0.00  0.00    +0.149 HD
BRANCH  20  27
ATOM     24  N   UNL     1       4.153  -0.953   1.342  0.00  0.00    +0.382 N 
ATOM     25  C   UNL     1       3.203  -1.854   2.005  0.00  0.00    -0.077 C 
ATOM     26  C   UNL     1       3.614  -2.050   3.466  0.00  0.00    +0.004 C 
ATOM     27  C   UNL     1       5.019  -2.657   3.518  0.00  0.00    +0.070 C 
ATOM     28  C   UNL     1       5.987  -1.746   2.760  0.00  0.00    +0.004 C 
ATOM     29  C   UNL     1       5.489  -1.562   1.325  0.00  0.00    -0.077 C 
ATOM     30  H   UNL     1       4.190  -0.078   1.843  0.00  0.00    -0.081 HD
BRANCH  24  31
ATOM     31  C   UNL     1       3.711  -0.707  -0.038  0.00  0.00    -0.043 C 
BRANCH  31  35
ATOM     32  C   UNL     1      -0.017   1.378   0.010  0.00  0.00    +0.000 A 
ATOM     33  C   UNL     1       1.171   2.086   0.002  0.00  0.00    +0.000 A 
ATOM     34  C   UNL     1       2.377   1.411  -0.013  0.00  0.00    +0.002 A 
ATOM     35  C   UNL     1       2.396   0.029  -0.020  0.00  0.00    -0.064 A 
ATOM     36  C   UNL     1       1.208  -0.679  -0.012  0.00  0.00    +0.002 A 
ATOM     37  C   UNL     1       0.002  -0.004   0.002  0.00  0.00    +0.000 A 
ENDBRANCH  31  35
ENDBRANCH  24  31
ENDBRANCH  20  27
ENDBRANCH   1  21
TORSDOF 9
