REMARK  Name = ZINC39566558
REMARK  6 active torsions:
REMARK  status: ('A' for Active; 'I' for Inactive)
REMARK    1  A    between atoms: C_1  and  C_2
REMARK    2  A    between atoms: C_8  and  N_10
REMARK    3  A    between atoms: C_11  and  C_13
REMARK    4  A    between atoms: C_13  and  O_14
REMARK    5  A    between atoms: O_14  and  C_15
REMARK    6  A    between atoms: C_15  and  C_17
REMARK                            x       y       z     vdW  Elec       q    Type
REMARK                         _______ _______ _______ _____ _____    ______ ____
ROOT
ATOM      1  C   UNL     1       5.969   1.144   3.881  0.00  0.00    +0.340 C 
ATOM      2  O   UNL     1       6.626   1.484   2.917  0.00  0.00    -0.245 OA
ENDROOT
BRANCH   1   3
ATOM      3  C   UNL     1       6.552   1.220   5.234  0.00  0.00    +0.060 A 
ATOM      4  C   UNL     1       5.810   0.826   6.353  0.00  0.00    +0.017 A 
ATOM      5  C   UNL     1       6.342   0.892   7.613  0.00  0.00    +0.025 A 
ATOM      6  C   UNL     1       7.654   1.359   7.824  0.00  0.00    +0.050 A 
ATOM      7  C   UNL     1       8.376   1.748   6.689  0.00  0.00    +0.038 A 
ATOM      8  C   UNL     1       7.861   1.683   5.421  0.00  0.00    +0.032 A 
ATOM      9  S   UNL     1       9.941   2.263   7.354  0.00  0.00    -0.051 S 
ATOM     10  C   UNL     1       9.585   1.955   9.069  0.00  0.00    +0.186 C 
ATOM     11  N   UNL     1      10.388   2.162  10.068  0.00  0.00    -0.110 NA
ATOM     12  S   UNL     1       9.861   1.810  11.605  0.00  0.00    +0.073 S 
ATOM     13  O   UNL     1      10.369   2.858  12.419  0.00  0.00    -0.151 OA
ATOM     14  O   UNL     1      10.248   0.461  11.829  0.00  0.00    -0.151 OA
ATOM     15  C   UNL     1       8.052   1.936  11.464  0.00  0.00    +0.212 C 
ATOM     16  C   UNL     1       7.591   1.057  10.300  0.00  0.00    +0.137 C 
ATOM     17  N   UNL     1       8.298   1.467   9.060  0.00  0.00    -0.276 N 
ENDBRANCH   1   3
BRANCH   1  18
ATOM     18  O   UNL     1       4.709   0.697   3.715  0.00  0.00    -0.452 OA
BRANCH  18  19
ATOM     19  C   UNL     1       4.209   0.649   2.377  0.00  0.00    +0.328 C 
BRANCH  19  21
ATOM     20  N   UNL     1       2.116  -0.004   1.231  0.00  0.00    -0.309 N 
ATOM     21  C   UNL     1       2.795   0.128   2.388  0.00  0.00    +0.251 C 
ATOM     22  O   UNL     1       2.268  -0.174   3.438  0.00  0.00    -0.272 OA
ATOM     23  H   UNL     1       2.538   0.237   0.392  0.00  0.00    +0.149 HD
BRANCH  20  30
ATOM     24  C   UNL     1      -0.019   1.526   0.010  0.00  0.00    +0.009 C 
ATOM     25  C   UNL     1       0.002  -0.004   0.002  0.00  0.00    +0.006 C 
ATOM     26  C   UNL     1       0.718  -0.497  -1.257  0.00  0.00    +0.005 C 
ATOM     27  C   UNL     1       0.739  -2.027  -1.265  0.00  0.00    +0.000 C 
ATOM     28  C   UNL     1       1.479  -2.534  -0.026  0.00  0.00    +0.002 C 
ATOM     29  C   UNL     1       0.763  -2.041   1.233  0.00  0.00    +0.022 C 
ATOM     30  C   UNL     1       0.742  -0.511   1.242  0.00  0.00    +0.076 C 
ENDBRANCH  20  30
ENDBRANCH  19  21
ENDBRANCH  18  19
ENDBRANCH   1  18
TORSDOF 5
