REMARK  Name = ZINC39611265
REMARK  6 active torsions:
REMARK  status: ('A' for Active; 'I' for Inactive)
REMARK    1  A    between atoms: C_2  and  C_3
REMARK    2  A    between atoms: C_3  and  N_4
REMARK    3  A    between atoms: C_5  and  C_24
REMARK    4  A    between atoms: C_8  and  S_9
REMARK    5  A    between atoms: S_9  and  C_10
REMARK    6  A    between atoms: C_10  and  C_11
REMARK                            x       y       z     vdW  Elec       q    Type
REMARK                         _______ _______ _______ _____ _____    ______ ____
ROOT
ATOM      1  S   UNL     1      -0.750  -4.033   0.654  0.00  0.00    -0.077 S 
ENDROOT
BRANCH   1   6
ATOM      2  N   UNL     1      -1.684  -1.879  -0.865  0.00  0.00    -0.298 N 
ATOM      3  C   UNL     1      -1.855  -1.609  -2.204  0.00  0.00    +0.165 A 
ATOM      4  N   UNL     1      -1.469  -2.675  -2.864  0.00  0.00    -0.128 NA
ATOM      5  N   UNL     1      -1.074  -3.581  -2.042  0.00  0.00    -0.122 NA
ATOM      6  C   UNL     1      -1.179  -3.146  -0.806  0.00  0.00    +0.193 A 
BRANCH   3   7
ATOM      7  C   UNL     1      -2.375  -0.354  -2.788  0.00  0.00    +0.019 A 
ATOM      8  C   UNL     1      -2.877  -0.343  -4.090  0.00  0.00    +0.013 A 
ATOM      9  C   UNL     1      -3.361   0.830  -4.630  0.00  0.00    +0.021 A 
ATOM     10  C   UNL     1      -3.350   1.996  -3.882  0.00  0.00    +0.041 A 
ATOM     11  C   UNL     1      -2.853   1.991  -2.590  0.00  0.00    +0.021 A 
ATOM     12  C   UNL     1      -2.372   0.822  -2.037  0.00  0.00    +0.013 A 
ATOM     13 CL   UNL     1      -3.961   3.469  -4.568  0.00  0.00    -0.084 Cl
ENDBRANCH   3   7
BRANCH   2  14
ATOM     14  C   UNL     1      -1.978  -0.989   0.261  0.00  0.00    +0.152 C 
BRANCH  14  16
ATOM     15  C   UNL     1      -0.713   1.038   0.763  0.00  0.00    +0.005 C 
ATOM     16  C   UNL     1      -0.720  -0.269   0.674  0.00  0.00    -0.013 C 
ENDBRANCH  14  16
ENDBRANCH   2  14
ENDBRANCH   1   6
BRANCH   1  17
ATOM     17  C   UNL     1      -0.149  -5.630   0.037  0.00  0.00    +0.173 C 
BRANCH  17  18
ATOM     18  C   UNL     1       0.256  -6.498   1.201  0.00  0.00    +0.227 C 
ATOM     19  O   UNL     1       0.149  -6.080   2.335  0.00  0.00    -0.275 OA
ATOM     20  N   UNL     1       0.736  -7.738   0.981  0.00  0.00    -0.285 N 
ATOM     21  C   UNL     1       1.913  -8.084   1.465  0.00  0.00    +0.036 C 
ATOM     22  C   UNL     1       2.669  -7.143   2.301  0.00  0.00    +0.025 C 
ATOM     23  C   UNL     1       3.872  -7.490   2.800  0.00  0.00    +0.032 C 
ATOM     24  C   UNL     1       4.434  -8.812   2.509  0.00  0.00    +0.095 C 
ATOM     25  N   UNL     1       5.553  -9.429   2.839  0.00  0.00    -0.190 NA
ATOM     26  C   UNL     1       5.562 -10.655   2.289  0.00  0.00    +0.369 C 
ATOM     27  O   UNL     1       6.570 -11.548   2.435  0.00  0.00    -0.243 OA
ATOM     28  N   UNL     1       4.471 -10.879   1.595  0.00  0.00    -0.190 NA
ATOM     29  C   UNL     1       3.684  -9.767   1.670  0.00  0.00    +0.097 C 
ATOM     30  C   UNL     1       2.470  -9.422   1.171  0.00  0.00    +0.053 C 
ATOM     31  H   UNL     1       0.216  -8.376   0.468  0.00  0.00    +0.155 HD
ENDBRANCH  17  18
ENDBRANCH   1  17
TORSDOF 6
