REMARK  Name = ZINC62038576
REMARK  7 active torsions:
REMARK  status: ('A' for Active; 'I' for Inactive)
REMARK    1  A    between atoms: C_1  and  C_2
REMARK    2  A    between atoms: C_2  and  C_4
REMARK    3  A    between atoms: C_2  and  S_15
REMARK    4  A    between atoms: N_6  and  C_7
REMARK    5  A    between atoms: C_12  and  O_13
REMARK    6  A    between atoms: S_15  and  C_16
REMARK    7  A    between atoms: C_21  and  C_26
REMARK                            x       y       z     vdW  Elec       q    Type
REMARK                         _______ _______ _______ _____ _____    ______ ____
ROOT
ATOM      1  C   UNL     1      -0.180  -0.017  -2.805  0.00  0.00    +0.171 A 
ATOM      2  N   UNL     1      -1.278   0.652  -2.525  0.00  0.00    -0.185 NA
ATOM      3  C   UNL     1      -2.108   1.095  -3.474  0.00  0.00    +0.283 A 
ATOM      4  O   UNL     1      -3.117   1.712  -3.172  0.00  0.00    -0.265 OA
ATOM      5  C   UNL     1      -1.791   0.830  -4.896  0.00  0.00    +0.080 A 
ATOM      6  C   UNL     1      -2.530   1.206  -6.096  0.00  0.00    +0.004 A 
ATOM      7  C   UNL     1      -2.034   0.847  -7.305  0.00  0.00    +0.056 A 
ATOM      8  S   UNL     1      -0.535  -0.024  -6.889  0.00  0.00    -0.078 S 
ATOM      9  C   UNL     1      -0.613   0.117  -5.124  0.00  0.00    +0.093 A 
ATOM     10  N   UNL     1       0.176  -0.291  -4.092  0.00  0.00    -0.328 N 
ATOM     11  H   UNL     1       0.992  -0.783  -4.273  0.00  0.00    +0.168 HD
ENDROOT
BRANCH   6  12
ATOM     12  C   UNL     1      -3.799   1.966  -5.996  0.00  0.00    -0.016 A 
ATOM     13  C   UNL     1      -4.803   1.538  -5.129  0.00  0.00    +0.010 A 
ATOM     14  C   UNL     1      -5.982   2.249  -5.039  0.00  0.00    +0.020 A 
ATOM     15  C   UNL     1      -6.168   3.386  -5.807  0.00  0.00    +0.041 A 
ATOM     16  C   UNL     1      -5.174   3.816  -6.669  0.00  0.00    +0.020 A 
ATOM     17  C   UNL     1      -3.989   3.115  -6.763  0.00  0.00    +0.010 A 
ATOM     18 CL   UNL     1      -7.654   4.276  -5.689  0.00  0.00    -0.084 Cl
ENDBRANCH   6  12
BRANCH   1  19
ATOM     19  S   UNL     1       0.857  -0.562  -1.489  0.00  0.00    -0.075 S 
BRANCH  19  21
ATOM     20  C   UNL     1      -0.008   1.544   0.027  0.00  0.00    +0.029 C 
ATOM     21  C   UNL     1       0.008   0.014   0.007  0.00  0.00    +0.137 C 
BRANCH  21  22
ATOM     22  C   UNL     1       0.733  -0.497   1.225  0.00  0.00    +0.230 C 
ATOM     23  O   UNL     1       1.913  -0.772   1.157  0.00  0.00    -0.274 OA
ATOM     24  N   UNL     1       0.071  -0.647   2.389  0.00  0.00    -0.282 N 
ATOM     25  H   UNL     1      -0.854  -0.367   2.461  0.00  0.00    +0.155 HD
BRANCH  24  26
ATOM     26  C   UNL     1       0.721  -1.210   3.497  0.00  0.00    +0.077 A 
ATOM     27  C   UNL     1       2.071  -0.969   3.707  0.00  0.00    +0.047 A 
ATOM     28  C   UNL     1       2.709  -1.524   4.801  0.00  0.00    +0.043 A 
ATOM     29  C   UNL     1       2.005  -2.321   5.686  0.00  0.00    +0.023 A 
ATOM     30  C   UNL     1       0.659  -2.565   5.481  0.00  0.00    +0.049 A 
ATOM     31  C   UNL     1       0.011  -2.007   4.391  0.00  0.00    +0.138 A 
ATOM     32 CL   UNL     1       4.399  -1.222   5.063  0.00  0.00    -0.083 Cl
BRANCH  31  33
ATOM     33  O   UNL     1      -1.313  -2.242   4.193  0.00  0.00    -0.505 OA
ATOM     34  H   UNL     1      -1.498  -3.024   3.656  0.00  0.00    +0.292 HD
ENDBRANCH  31  33
ENDBRANCH  24  26
ENDBRANCH  21  22
ENDBRANCH  19  21
ENDBRANCH   1  19
TORSDOF 6
