REMARK  Name = ZINC18813722
REMARK  9 active torsions:
REMARK  status: ('A' for Active; 'I' for Inactive)
REMARK    1  A    between atoms: C_6  and  C_7
REMARK    2  A    between atoms: C_9  and  C_12
REMARK    3  A    between atoms: C_12  and  C_13
REMARK    4  A    between atoms: C_13  and  C_14
REMARK    5  A    between atoms: C_14  and  O_16
REMARK    6  A    between atoms: O_16  and  C_17
REMARK    7  A    between atoms: C_17  and  C_18
REMARK    8  A    between atoms: N_20  and  C_21
REMARK    9  A    between atoms: C_22  and  C_30
REMARK                            x       y       z     vdW  Elec       q    Type
REMARK                         _______ _______ _______ _____ _____    ______ ____
ROOT
ATOM      1  C   UNL     1      -0.018   1.448   0.010  0.00  0.00    +0.328 C 
ENDROOT
BRANCH   1   2
ATOM      2  C   UNL     1      -0.723   1.934   1.250  0.00  0.00    +0.255 C 
ATOM      3  O   UNL     1      -1.165   1.135   2.048  0.00  0.00    -0.272 OA
ATOM      4  N   UNL     1      -0.862   3.256   1.472  0.00  0.00    -0.277 N 
ATOM      5  H   UNL     1      -0.508   3.895   0.833  0.00  0.00    +0.155 HD
BRANCH   4   6
ATOM      6  C   UNL     1      -1.511   3.703   2.612  0.00  0.00    +0.084 A 
ATOM      7  C   UNL     1      -1.746   5.010   3.015  0.00  0.00    +0.068 A 
ATOM      8  C   UNL     1      -2.460   5.211   4.264  0.00  0.00    -0.023 A 
ATOM      9  C   UNL     1      -2.813   4.080   4.912  0.00  0.00    -0.004 A 
ATOM     10  S   UNL     1      -2.220   2.765   3.885  0.00  0.00    -0.077 S 
ATOM     11  C   UNL     1      -3.547   3.976   6.214  0.00  0.00    +0.043 C 
ATOM     12  C   UNL     1      -3.514   5.351   6.898  0.00  0.00    +0.005 C 
ATOM     13  C   UNL     1      -3.909   6.420   5.876  0.00  0.00    +0.005 C 
ATOM     14  C   UNL     1      -2.799   6.582   4.836  0.00  0.00    +0.037 C 
BRANCH   7  15
ATOM     15  C   UNL     1      -1.293   6.147   2.207  0.00  0.00    +0.244 C 
ATOM     16  O   UNL     1      -2.022   6.615   1.352  0.00  0.00    -0.270 OA
ATOM     17  N   UNL     1      -0.069   6.674   2.411  0.00  0.00    -0.325 N 
ATOM     18  H   UNL     1       0.512   6.301   3.093  0.00  0.00    +0.145 HD
ATOM     19  H   UNL     1       0.230   7.426   1.877  0.00  0.00    +0.145 HD
ENDBRANCH   7  15
ENDBRANCH   4   6
ENDBRANCH   1   2
BRANCH   1  20
ATOM     20  O   UNL     1       0.002  -0.004   0.002  0.00  0.00    -0.455 OA
BRANCH  20  21
ATOM     21  C   UNL     1       0.598  -0.600  -1.043  0.00  0.00    +0.308 C 
ATOM     22  O   UNL     1       1.088   0.070  -1.921  0.00  0.00    -0.251 OA
BRANCH  21  23
ATOM     23  C   UNL     1       0.657  -2.104  -1.120  0.00  0.00    +0.130 C 
BRANCH  23  24
ATOM     24  C   UNL     1       1.385  -2.521  -2.400  0.00  0.00    +0.110 C 
BRANCH  24  27
ATOM     25  C   UNL     1       1.026  -6.067  -2.863  0.00  0.00    +0.202 A 
ATOM     26  N   UNL     1       0.557  -4.810  -3.034  0.00  0.00    -0.191 NA
ATOM     27  C   UNL     1       1.444  -4.024  -2.477  0.00  0.00    +0.228 A 
ATOM     28  O   UNL     1       2.414  -4.806  -1.993  0.00  0.00    -0.338 OA
ATOM     29  N   UNL     1       2.159  -5.971  -2.217  0.00  0.00    -0.056 NA
BRANCH  25  35
ATOM     30  C   UNL     1      -0.842  -7.270  -3.996  0.00  0.00    +0.013 A 
ATOM     31  C   UNL     1      -1.439  -8.437  -4.424  0.00  0.00    +0.021 A 
ATOM     32  C   UNL     1      -0.836  -9.658  -4.174  0.00  0.00    +0.041 A 
ATOM     33  C   UNL     1       0.371  -9.714  -3.499  0.00  0.00    +0.021 A 
ATOM     34  C   UNL     1       0.979  -8.551  -3.071  0.00  0.00    +0.013 A 
ATOM     35  C   UNL     1       0.376  -7.320  -3.320  0.00  0.00    +0.023 A 
ATOM     36 CL   UNL     1      -1.597 -11.124  -4.709  0.00  0.00    -0.084 Cl
ENDBRANCH  25  35
ENDBRANCH  24  27
ENDBRANCH  23  24
ENDBRANCH  21  23
ENDBRANCH  20  21
ENDBRANCH   1  20
TORSDOF 9
