REMARK  Name = ZINC14942682
REMARK  10 active torsions:
REMARK  status: ('A' for Active; 'I' for Inactive)
REMARK    1  A    between atoms: C_1  and  C_2
REMARK    2  A    between atoms: C_2  and  C_3
REMARK    3  A    between atoms: C_2  and  C_4
REMARK    4  A    between atoms: C_4  and  C_6
REMARK    5  A    between atoms: C_4  and  N_20
REMARK    6  A    between atoms: N_8  and  C_9
REMARK    7  A    between atoms: C_12  and  S_15
REMARK    8  A    between atoms: S_15  and  N_18
REMARK    9  A    between atoms: N_18  and  C_19
REMARK   10  A    between atoms: C_21  and  C_23
REMARK                            x       y       z     vdW  Elec       q    Type
REMARK                         _______ _______ _______ _____ _____    ______ ____
ROOT
ATOM      1  C   UNL     1      -3.501   4.568   6.715  0.00  0.00    +0.162 C 
ENDROOT
BRANCH   1   2
ATOM      2  C   UNL     1      -2.805   4.132   5.452  0.00  0.00    +0.238 C 
ATOM      3  O   UNL     1      -2.561   4.942   4.583  0.00  0.00    -0.273 OA
ATOM      4  N   UNL     1      -2.454   2.841   5.287  0.00  0.00    -0.284 N 
ATOM      5  H   UNL     1      -2.744   2.174   5.929  0.00  0.00    +0.155 HD
BRANCH   4   6
ATOM      6  C   UNL     1      -1.669   2.464   4.192  0.00  0.00    +0.034 A 
ATOM      7  C   UNL     1      -0.783   1.400   4.304  0.00  0.00    +0.025 A 
ATOM      8  C   UNL     1      -0.011   1.030   3.220  0.00  0.00    +0.030 A 
ATOM      9  C   UNL     1      -0.118   1.718   2.026  0.00  0.00    +0.105 A 
ATOM     10  C   UNL     1      -0.995   2.781   1.913  0.00  0.00    +0.030 A 
ATOM     11  C   UNL     1      -1.775   3.152   2.990  0.00  0.00    +0.025 A 
BRANCH   9  12
ATOM     12  S   UNL     1       0.870   1.243   0.646  0.00  0.00    +0.058 S 
ATOM     13  O   UNL     1       2.007   0.573   1.173  0.00  0.00    -0.153 OA
ATOM     14  O   UNL     1       0.980   2.388  -0.188  0.00  0.00    -0.153 OA
BRANCH  12  15
ATOM     15  N   UNL     1       0.009   0.116  -0.208  0.00  0.00    -0.193 NA
ATOM     16  C   UNL     1      -1.247   0.493  -0.860  0.00  0.00    +0.127 C 
ATOM     17  H   UNL     1       0.337  -0.795  -0.277  0.00  0.00    +0.148 HD
ENDBRANCH  12  15
ENDBRANCH   9  12
ENDBRANCH   4   6
ENDBRANCH   1   2
BRANCH   1  18
ATOM     18  N   UNL     1      -3.112   5.943   7.038  0.00  0.00    -0.303 N 
ATOM     19  C   UNL     1      -3.172   6.379   8.312  0.00  0.00    +0.220 C 
ATOM     20  O   UNL     1      -3.550   5.634   9.191  0.00  0.00    -0.275 OA
ATOM     21  H   UNL     1      -2.810   6.539   6.335  0.00  0.00    +0.149 HD
BRANCH  19  22
ATOM     22  C   UNL     1      -2.771   7.793   8.644  0.00  0.00    +0.048 C 
ATOM     23  C   UNL     1      -3.664   8.770   7.875  0.00  0.00    +0.019 C 
ATOM     24  C   UNL     1      -3.257  10.206   8.213  0.00  0.00    -0.009 C 
ATOM     25  C   UNL     1      -3.418  10.442   9.716  0.00  0.00    +0.007 C 
ATOM     26  C   UNL     1      -2.525   9.466  10.484  0.00  0.00    -0.009 C 
ATOM     27  C   UNL     1      -2.932   8.030  10.147  0.00  0.00    +0.019 C 
ATOM     28  C   UNL     1      -1.065   9.688  10.086  0.00  0.00    +0.007 C 
ATOM     29  C   UNL     1      -0.904   9.452   8.583  0.00  0.00    -0.009 C 
ATOM     30  C   UNL     1      -1.797  10.429   7.815  0.00  0.00    +0.007 C 
ATOM     31  C   UNL     1      -1.311   8.016   8.246  0.00  0.00    +0.019 C 
ENDBRANCH  19  22
ENDBRANCH   1  18
BRANCH   1  33
ATOM     32  C   UNL     1      -5.722   4.747   7.846  0.00  0.00    +0.009 C 
ATOM     33  C   UNL     1      -5.016   4.502   6.511  0.00  0.00    +0.012 C 
ATOM     34  C   UNL     1      -5.443   5.573   5.505  0.00  0.00    +0.009 C 
ENDBRANCH   1  33
TORSDOF 7
