REMARK  Name = ZINC65487049
REMARK  7 active torsions:
REMARK  status: ('A' for Active; 'I' for Inactive)
REMARK    1  A    between atoms: C_1  and  C_2
REMARK    2  A    between atoms: C_3  and  C_9
REMARK    3  A    between atoms: C_4  and  C_8
REMARK    4  A    between atoms: N_5  and  C_7
REMARK    5  A    between atoms: C_9  and  C_10
REMARK    6  A    between atoms: C_9  and  N_11
REMARK    7  A    between atoms: N_14  and  N_15
REMARK                            x       y       z     vdW  Elec       q    Type
REMARK                         _______ _______ _______ _____ _____    ______ ____
ROOT
ATOM      1  N   UNL     1       0.955   0.751  -2.726  0.00  0.00    -0.292 N 
ATOM      2  C   UNL     1       1.494   1.003  -3.936  0.00  0.00    +0.316 C 
ATOM      3  O   UNL     1       1.182   0.322  -4.893  0.00  0.00    -0.251 OA
ATOM      4  N   UNL     1       2.377   2.010  -4.083  0.00  0.00    -0.219 N 
ATOM      5  H   UNL     1       1.203   1.295  -1.962  0.00  0.00    +0.151 HD
ATOM      6  H   UNL     1       2.765   2.191  -4.954  0.00  0.00    +0.174 HD
ENDROOT
BRANCH   4   7
ATOM      7  N   UNL     1       2.736   2.795  -2.980  0.00  0.00    -0.246 N 
ATOM      8  C   UNL     1       3.648   3.834  -3.132  0.00  0.00    +0.155 A 
ATOM      9  C   UNL     1       4.004   4.606  -2.030  0.00  0.00    +0.083 A 
ATOM     10  C   UNL     1       4.913   5.637  -2.196  0.00  0.00    +0.046 A 
ATOM     11  C   UNL     1       5.437   5.862  -3.462  0.00  0.00    +0.079 A 
ATOM     12  C   UNL     1       5.039   5.055  -4.512  0.00  0.00    +0.150 A 
ATOM     13  N   UNL     1       4.173   4.076  -4.323  0.00  0.00    -0.216 NA
ATOM     14 CL   UNL     1       5.690   5.330  -6.098  0.00  0.00    -0.060 Cl
ATOM     15 CL   UNL     1       6.581   7.142  -3.724  0.00  0.00    -0.080 Cl
ATOM     16 CL   UNL     1       3.316   4.282  -0.470  0.00  0.00    -0.080 Cl
ATOM     17  H   UNL     1       2.348   2.614  -2.109  0.00  0.00    +0.172 HD
ENDBRANCH   4   7
BRANCH   1  18
ATOM     18  C   UNL     1      -0.006  -0.343  -2.566  0.00  0.00    +0.105 C 
ATOM     19  C   UNL     1      -1.408   0.152  -2.925  0.00  0.00    +0.033 C 
BRANCH  18  22
ATOM     20  C   UNL     1      -0.018   1.503   0.010  0.00  0.00    +0.068 C 
ATOM     21  C   UNL     1       0.002  -0.004   0.002  0.00  0.00    +0.065 A 
ATOM     22  C   UNL     1       0.008  -0.818  -1.135  0.00  0.00    +0.016 A 
ATOM     23  C   UNL     1       0.028  -2.107  -0.725  0.00  0.00    +0.041 A 
ATOM     24  N   UNL     1       0.034  -2.109   0.625  0.00  0.00    -0.271 N 
ATOM     25  N   UNL     1       0.023  -0.777   1.058  0.00  0.00    -0.176 NA
ATOM     26  C   UNL     1       0.055  -3.295   1.485  0.00  0.00    +0.172 C 
ATOM     27  C   UNL     1       0.040  -3.323  -1.615  0.00  0.00    +0.065 C 
ENDBRANCH  18  22
ENDBRANCH   1  18
TORSDOF 3
