REMARK  Name = ZINC12887691
REMARK  11 active torsions:
REMARK  status: ('A' for Active; 'I' for Inactive)
REMARK    1  A    between atoms: C_1  and  C_2
REMARK    2  A    between atoms: C_2  and  C_3
REMARK    3  A    between atoms: C_3  and  C_5
REMARK    4  A    between atoms: C_3  and  C_6
REMARK    5  A    between atoms: C_6  and  C_8
REMARK    6  A    between atoms: C_6  and  N_15
REMARK    7  A    between atoms: N_10  and  C_11
REMARK    8  A    between atoms: C_11  and  C_12
REMARK    9  A    between atoms: C_12  and  O_13
REMARK   10  A    between atoms: O_13  and  C_14
REMARK   11  A    between atoms: C_16  and  C_18
REMARK                            x       y       z     vdW  Elec       q    Type
REMARK                         _______ _______ _______ _____ _____    ______ ____
ROOT
ATOM      1  C   UNL     1      -2.054   0.214   0.149  0.00  0.00    +0.167 C 
ATOM      2  C   UNL     1      -0.594  -0.184  -0.111  0.00  0.00    +0.069 C 
ATOM      3  C   UNL     1       0.311   1.007   0.072  0.00  0.00    -0.015 A 
ATOM      4  C   UNL     1       1.755   0.997   0.228  0.00  0.00    +0.003 A 
ATOM      5  C   UNL     1       2.691  -0.040   0.277  0.00  0.00    +0.010 A 
ATOM      6  C   UNL     1       4.006   0.319   0.439  0.00  0.00    +0.001 A 
ATOM      7  C   UNL     1       4.399   1.643   0.550  0.00  0.00    +0.002 A 
ATOM      8  C   UNL     1       3.494   2.689   0.504  0.00  0.00    +0.026 A 
ATOM      9  C   UNL     1       2.151   2.354   0.341  0.00  0.00    +0.047 A 
ATOM     10  N   UNL     1       1.020   3.114   0.257  0.00  0.00    -0.356 N 
ATOM     11  H   UNL     1       0.995   4.083   0.299  0.00  0.00    +0.166 HD
ATOM     12  C   UNL     1      -0.072   2.303   0.106  0.00  0.00    +0.046 A 
ATOM     13  C   UNL     1      -1.514   2.736   0.008  0.00  0.00    +0.155 C 
ATOM     14  N   UNL     1      -2.268   1.541  -0.437  0.00  0.00    -0.273 N 
ATOM     15  C   UNL     1      -3.087   1.903  -1.434  0.00  0.00    +0.248 C 
ATOM     16  O   UNL     1      -3.995   1.226  -1.876  0.00  0.00    -0.270 OA
ATOM     17  C   UNL     1      -2.721   3.241  -1.909  0.00  0.00    +0.042 A 
ATOM     18  C   UNL     1      -1.734   3.764  -1.048  0.00  0.00    -0.009 A 
ATOM     19  C   UNL     1      -1.183   5.008  -1.257  0.00  0.00    +0.006 A 
ATOM     20  C   UNL     1      -1.653   5.735  -2.347  0.00  0.00    +0.000 A 
ATOM     21  C   UNL     1      -2.631   5.239  -3.185  0.00  0.00    +0.001 A 
ATOM     22  C   UNL     1      -3.193   3.986  -2.992  0.00  0.00    +0.013 A 
ENDROOT
BRANCH   1  24
ATOM     23  N   UNL     1      -2.143  -0.843   2.384  0.00  0.00    -0.302 N 
ATOM     24  C   UNL     1      -2.312   0.264   1.633  0.00  0.00    +0.235 C 
ATOM     25  O   UNL     1      -2.673   1.299   2.152  0.00  0.00    -0.274 OA
ATOM     26  H   UNL     1      -1.855  -1.671   1.969  0.00  0.00    +0.150 HD
BRANCH  23  27
ATOM     27  C   UNL     1      -2.395  -0.795   3.826  0.00  0.00    +0.162 C 
BRANCH  27  28
ATOM     28  C   UNL     1      -1.594  -1.871   4.512  0.00  0.00    +0.234 C 
ATOM     29  O   UNL     1      -1.188  -2.822   3.878  0.00  0.00    -0.274 OA
ATOM     30  N   UNL     1      -1.329  -1.778   5.830  0.00  0.00    -0.312 N 
ATOM     31  H   UNL     1      -1.713  -1.056   6.352  0.00  0.00    +0.149 HD
BRANCH  30  32
ATOM     32  C   UNL     1      -0.460  -2.766   6.475  0.00  0.00    +0.132 C 
BRANCH  32  33
ATOM     33  C   UNL     1      -0.324  -2.433   7.962  0.00  0.00    +0.178 C 
BRANCH  33  34
ATOM     34  O   UNL     1      -1.595  -2.573   8.600  0.00  0.00    -0.381 OA
ATOM     35  C   UNL     1      -1.578  -2.283   9.999  0.00  0.00    +0.194 C 
ENDBRANCH  33  34
ENDBRANCH  32  33
ENDBRANCH  30  32
ENDBRANCH  27  28
BRANCH  27  36
ATOM     36  C   UNL     1      -3.885  -1.020   4.092  0.00  0.00    +0.015 C 
ATOM     37  C   UNL     1      -4.333  -2.317   3.415  0.00  0.00    +0.010 C 
BRANCH  36  39
ATOM     38  C   UNL     1      -4.361   1.422   4.318  0.00  0.00    +0.004 C 
ATOM     39  C   UNL     1      -4.687   0.153   3.527  0.00  0.00    +0.002 C 
ENDBRANCH  36  39
ENDBRANCH  27  36
ENDBRANCH  23  27
ENDBRANCH   1  24
TORSDOF 8
