REMARK  Name = ZINC05364192
REMARK  4 active torsions:
REMARK  status: ('A' for Active; 'I' for Inactive)
REMARK    1  A    between atoms: C_6  and  S_11
REMARK    2  A    between atoms: S_11  and  N_14
REMARK    3  A    between atoms: N_14  and  C_15
REMARK    4  A    between atoms: C_18  and  N_25
REMARK                            x       y       z     vdW  Elec       q    Type
REMARK                         _______ _______ _______ _____ _____    ______ ____
ROOT
ATOM      1  N   UNL     1       1.019   8.196  -1.548  0.00  0.00    -0.216 N 
ATOM      2  H   UNL     1       1.748   8.732  -1.897  0.00  0.00    +0.174 HD
ENDROOT
BRANCH   1   3
ATOM      3  C   UNL     1      -0.029   7.817  -2.384  0.00  0.00    +0.056 A 
ATOM      4  C   UNL     1      -1.316   7.738  -1.895  0.00  0.00    +0.027 A 
ATOM      5  C   UNL     1      -2.370   7.361  -2.722  0.00  0.00    +0.035 A 
ATOM      6  C   UNL     1      -2.161   7.059  -4.033  0.00  0.00    +0.134 A 
ATOM      7  C   UNL     1      -0.865   7.127  -4.572  0.00  0.00    +0.014 A 
ATOM      8  C   UNL     1       0.215   7.516  -3.741  0.00  0.00    +0.007 A 
ATOM      9  C   UNL     1       1.510   7.578  -4.279  0.00  0.00    +0.010 A 
ATOM     10  C   UNL     1       1.711   7.274  -5.591  0.00  0.00    +0.001 A 
ATOM     11  C   UNL     1       0.648   6.897  -6.410  0.00  0.00    +0.001 A 
ATOM     12  C   UNL     1      -0.620   6.821  -5.922  0.00  0.00    +0.011 A 
BRANCH   6  13
ATOM     13  N   UNL     1      -3.300   6.661  -4.892  0.00  0.00    +0.057 N 
ATOM     14  O   UNL     1      -4.383   7.201  -4.756  0.00  0.00    -0.126 OA
ATOM     15  O   UNL     1      -3.153   5.794  -5.734  0.00  0.00    -0.126 OA
ENDBRANCH   6  13
ENDBRANCH   1   3
BRANCH   1  16
ATOM     16  S   UNL     1       1.020   7.730   0.041  0.00  0.00    +0.072 S 
ATOM     17  O   UNL     1      -0.228   8.140   0.585  0.00  0.00    -0.150 OA
ATOM     18  O   UNL     1       2.263   8.150   0.586  0.00  0.00    -0.150 OA
BRANCH  16  24
ATOM     19  C   UNL     1      -0.097   1.115   0.141  0.00  0.00    +0.001 A 
ATOM     20  C   UNL     1      -1.312   1.797   0.124  0.00  0.00    +0.001 A 
ATOM     21  C   UNL     1      -1.353   3.157   0.109  0.00  0.00    +0.008 A 
ATOM     22  C   UNL     1      -0.153   3.888   0.099  0.00  0.00    -0.016 A 
ATOM     23  C   UNL     1      -0.155   5.294   0.078  0.00  0.00    +0.037 A 
ATOM     24  C   UNL     1       1.027   5.969   0.068  0.00  0.00    +0.109 A 
ATOM     25  C   UNL     1       2.242   5.287   0.079  0.00  0.00    +0.029 A 
ATOM     26  C   UNL     1       2.283   3.927   0.100  0.00  0.00    +0.010 A 
ATOM     27  C   UNL     1       1.083   3.195   0.110  0.00  0.00    -0.018 A 
ATOM     28  C   UNL     1       1.085   1.790   0.131  0.00  0.00    +0.008 A 
ENDBRANCH  16  24
ENDBRANCH   1  16
TORSDOF 4
