REMARK  Name = ZINC43287067
REMARK  13 active torsions:
REMARK  status: ('A' for Active; 'I' for Inactive)
REMARK    1  A    between atoms: C_1  and  C_2
REMARK    2  A    between atoms: C_2  and  C_3
REMARK    3  A    between atoms: C_3  and  C_5
REMARK    4  A    between atoms: C_3  and  N_23
REMARK    5  A    between atoms: C_5  and  C_7
REMARK    6  A    between atoms: C_5  and  N_13
REMARK    7  A    between atoms: N_13  and  C_14
REMARK    8  A    between atoms: N_13  and  C_16
REMARK    9  A    between atoms: C_14  and  C_15
REMARK   10  A    between atoms: C_16  and  C_17
REMARK   11  A    between atoms: N_19  and  C_20
REMARK   12  A    between atoms: C_20  and  C_21
REMARK   13  A    between atoms: C_20  and  C_22
REMARK                            x       y       z     vdW  Elec       q    Type
REMARK                         _______ _______ _______ _____ _____    ______ ____
ROOT
ATOM      1  C   UNL     1      -0.812  -2.553  -0.328  0.00  0.00    -0.045 C 
ENDROOT
BRANCH   1   2
ATOM      2  C   UNL     1       0.134  -3.460   0.416  0.00  0.00    -0.024 A 
ATOM      3  C   UNL     1      -0.139  -4.373   1.380  0.00  0.00    +0.024 A 
ATOM      4  C   UNL     1       0.900  -5.102   1.927  0.00  0.00    +0.025 A 
ATOM      5  C   UNL     1       2.163  -4.881   1.483  0.00  0.00    +0.060 A 
ATOM      6  S   UNL     1       1.905  -3.617   0.249  0.00  0.00    -0.102 S 
ATOM      7 BR   UNL     1       0.567  -6.385   3.275  0.00  0.00    -0.050 Br
ENDBRANCH   1   2
BRANCH   1   8
ATOM      8  N   UNL     1      -0.418  -2.487  -1.742  0.00  0.00    +0.389 N 
ATOM      9  H   UNL     1       0.468  -2.012  -1.822  0.00  0.00    -0.080 HD
BRANCH   8  10
ATOM     10  C   UNL     1      -1.439  -1.752  -2.500  0.00  0.00    -0.081 C 
ATOM     11  C   UNL     1      -1.135  -0.254  -2.444  0.00  0.00    -0.017 C 
ENDBRANCH   8  10
BRANCH   8  12
ATOM     12  C   UNL     1      -0.295  -3.849  -2.279  0.00  0.00    +0.019 C 
BRANCH  12  13
ATOM     13  C   UNL     1       0.227  -3.786  -3.691  0.00  0.00    +0.197 C 
ATOM     14  O   UNL     1       0.472  -2.713  -4.200  0.00  0.00    -0.278 OA
ATOM     15  N   UNL     1       0.421  -4.923  -4.389  0.00  0.00    -0.315 N 
ATOM     16  H   UNL     1       0.225  -5.782  -3.982  0.00  0.00    +0.149 HD
BRANCH  15  17
ATOM     17  C   UNL     1       0.928  -4.862  -5.762  0.00  0.00    +0.067 C 
ATOM     18  C   UNL     1       1.633  -6.176  -6.104  0.00  0.00    +0.027 C 
ATOM     19  C   UNL     1      -0.238  -4.643  -6.727  0.00  0.00    +0.027 C 
ENDBRANCH  15  17
ENDBRANCH  12  13
ENDBRANCH   8  12
ENDBRANCH   1   8
BRANCH   1  20
ATOM     20  C   UNL     1      -0.758  -1.150   0.282  0.00  0.00    -0.085 C 
BRANCH  20  21
ATOM     21  N   UNL     1      -1.079  -1.226   1.713  0.00  0.00    +0.379 N 
ATOM     22  H   UNL     1      -0.408  -1.820   2.177  0.00  0.00    -0.090 HD
ATOM     23  H   UNL     1      -1.043  -0.301   2.115  0.00  0.00    -0.090 HD
ATOM     24  H   UNL     1      -2.005  -1.608   1.831  0.00  0.00    -0.090 HD
ENDBRANCH  20  21
BRANCH  20  26
ATOM     25  C   UNL     1       0.668   0.877   0.601  0.00  0.00    +0.002 C 
ATOM     26  C   UNL     1       0.647  -0.570   0.104  0.00  0.00    -0.021 C 
ENDBRANCH  20  26
ENDBRANCH   1  20
TORSDOF 9
