REMARK  Name = ZINC18197534
REMARK  6 active torsions:
REMARK  status: ('A' for Active; 'I' for Inactive)
REMARK    1  A    between atoms: C_1  and  O_2
REMARK    2  A    between atoms: O_2  and  C_3
REMARK    3  A    between atoms: C_6  and  C_10
REMARK    4  A    between atoms: C_8  and  O_9
REMARK    5  A    between atoms: N_16  and  C_19
REMARK    6  A    between atoms: C_31  and  C_34
REMARK                            x       y       z     vdW  Elec       q    Type
REMARK                         _______ _______ _______ _____ _____    ______ ____
ROOT
ATOM      1  C   UNL     1       2.590  -2.548   4.315  0.00  0.00    +0.093 C 
ATOM      2  C   UNL     1       1.912  -2.164   5.601  0.00  0.00    +0.070 A 
ATOM      3  C   UNL     1       2.477  -1.292   6.498  0.00  0.00    +0.125 A 
ATOM      4  N   UNL     1       1.621  -1.149   7.547  0.00  0.00    -0.277 N 
ATOM      5  H   UNL     1       1.763  -0.591   8.327  0.00  0.00    +0.189 HD
ATOM      6  N   UNL     1       0.498  -1.954   7.299  0.00  0.00    -0.218 N 
ATOM      7  C   UNL     1       0.679  -2.572   6.111  0.00  0.00    +0.278 A 
ATOM      8  O   UNL     1      -0.096  -3.347   5.579  0.00  0.00    -0.265 OA
ATOM      9  N   UNL     1       3.707  -0.724   6.270  0.00  0.00    -0.303 N 
ATOM     10  C   UNL     1       4.508  -1.255   5.285  0.00  0.00    +0.017 C 
ATOM     11  C   UNL     1       4.039  -2.115   4.358  0.00  0.00    +0.024 C 
ATOM     12  C   UNL     1       4.893  -2.655   3.377  0.00  0.00    +0.162 C 
ATOM     13  O   UNL     1       4.436  -3.417   2.547  0.00  0.00    -0.292 OA
ATOM     14  C   UNL     1       6.355  -2.311   3.330  0.00  0.00    +0.088 C 
ATOM     15  C   UNL     1       6.829  -1.964   4.746  0.00  0.00    +0.039 C 
ATOM     16  C   UNL     1       5.958  -0.826   5.278  0.00  0.00    +0.060 C 
ATOM     17  H   UNL     1       4.005   0.037   6.792  0.00  0.00    +0.153 HD
ENDROOT
BRANCH   1  21
ATOM     18  C   UNL     1       0.626  -0.619   1.042  0.00  0.00    +0.161 A 
ATOM     19  C   UNL     1       1.202   0.137   2.051  0.00  0.00    +0.050 A 
ATOM     20  C   UNL     1       1.836  -0.490   3.108  0.00  0.00    +0.008 A 
ATOM     21  C   UNL     1       1.897  -1.870   3.161  0.00  0.00    -0.032 A 
ATOM     22  C   UNL     1       1.325  -2.630   2.158  0.00  0.00    +0.053 A 
ATOM     23  C   UNL     1       0.683  -2.008   1.099  0.00  0.00    +0.159 A 
BRANCH  18  25
ATOM     24  C   UNL     1      -0.017   1.425   0.010  0.00  0.00    +0.277 C 
ATOM     25  O   UNL     1       0.002  -0.004   0.002  0.00  0.00    -0.491 OA
ENDBRANCH  18  25
BRANCH  23  26
ATOM     26  O   UNL     1       0.115  -2.754   0.114  0.00  0.00    -0.503 OA
ATOM     27  H   UNL     1       0.711  -2.957  -0.620  0.00  0.00    +0.292 HD
ENDBRANCH  23  26
ENDBRANCH   1  21
BRANCH   6  28
ATOM     28  C   UNL     1      -0.615  -2.092   8.135  0.00  0.00    +0.067 A 
ATOM     29  C   UNL     1      -1.660  -2.931   7.770  0.00  0.00    +0.028 A 
ATOM     30  C   UNL     1      -2.757  -3.065   8.598  0.00  0.00    +0.002 A 
ATOM     31  C   UNL     1      -2.816  -2.366   9.789  0.00  0.00    +0.000 A 
ATOM     32  C   UNL     1      -1.777  -1.530  10.156  0.00  0.00    +0.002 A 
ATOM     33  C   UNL     1      -0.674  -1.396   9.335  0.00  0.00    +0.028 A 
ENDBRANCH   6  28
BRANCH  15  34
ATOM     34  C   UNL     1       8.270  -1.526   4.706  0.00  0.00    -0.006 A 
ATOM     35  C   UNL     1       9.346  -2.073   5.322  0.00  0.00    +0.011 A 
ATOM     36  C   UNL     1      10.589  -1.496   5.140  0.00  0.00    +0.008 A 
ATOM     37  C   UNL     1      10.694  -0.400   4.349  0.00  0.00    +0.045 A 
ATOM     38  S   UNL     1       9.005  -0.156   3.828  0.00  0.00    -0.101 S 
ENDBRANCH  15  34
TORSDOF 5
