REMARK  Name = ZINC19835225
REMARK  2 active torsions:
REMARK  status: ('A' for Active; 'I' for Inactive)
REMARK    1  A    between atoms: C_5  and  C_6
REMARK    2  A    between atoms: C_12  and  C_14
REMARK                            x       y       z     vdW  Elec       q    Type
REMARK                         _______ _______ _______ _____ _____    ______ ____
ROOT
ATOM      1  C   UNL     1      -2.474   0.157   1.244  0.00  0.00    +0.255 C 
ATOM      2  O   UNL     1      -1.567   0.139   2.056  0.00  0.00    -0.269 OA
ATOM      3  N   UNL     1      -2.417   0.994   0.189  0.00  0.00    -0.273 N 
ATOM      4  C   UNL     1      -3.461   0.998  -0.858  0.00  0.00    +0.178 C 
ATOM      5  S   UNL     1      -3.255   2.692  -1.564  0.00  0.00    -0.139 S 
ATOM      6  C   UNL     1      -1.442   2.835  -1.236  0.00  0.00    +0.104 C 
ATOM      7  C   UNL     1      -1.326   1.940   0.022  0.00  0.00    +0.200 C 
ENDROOT
BRANCH   1  12
ATOM      8  C   UNL     1      -3.937  -1.567   2.470  0.00  0.00    +0.024 A 
ATOM      9  C   UNL     1      -5.102  -2.313   2.395  0.00  0.00    -0.036 A 
ATOM     10  C   UNL     1      -5.852  -2.169   1.263  0.00  0.00    -0.006 A 
ATOM     11  S   UNL     1      -4.995  -1.024   0.304  0.00  0.00    -0.088 S 
ATOM     12  C   UNL     1      -3.627  -0.732   1.413  0.00  0.00    +0.075 A 
ATOM     13  C   UNL     1      -7.139  -2.864   0.938  0.00  0.00    +0.043 C 
ATOM     14  C   UNL     1      -7.307  -4.047   1.903  0.00  0.00    +0.005 C 
ATOM     15  C   UNL     1      -7.037  -3.561   3.329  0.00  0.00    +0.005 C 
ATOM     16  C   UNL     1      -5.548  -3.262   3.505  0.00  0.00    +0.036 C 
ENDBRANCH   1  12
BRANCH   7  17
ATOM     17  C   UNL     1      -0.033   1.170  -0.055  0.00  0.00    +0.377 C 
ATOM     18  O   UNL     1      -0.050  -0.037  -0.092  0.00  0.00    -0.244 OA
ATOM     19  O   UNL     1       1.138   1.826  -0.088  0.00  0.00    -0.244 OA
ENDBRANCH   7  17
TORSDOF 2
