REMARK  Name = ZINC39749506
REMARK  9 active torsions:
REMARK  status: ('A' for Active; 'I' for Inactive)
REMARK    1  A    between atoms: C_1  and  C_2
REMARK    2  A    between atoms: C_4  and  C_9
REMARK    3  A    between atoms: C_5  and  C_8
REMARK    4  A    between atoms: C_9  and  C_10
REMARK    5  A    between atoms: C_13  and  N_16
REMARK    6  A    between atoms: N_16  and  C_17
REMARK    7  A    between atoms: C_17  and  N_19
REMARK    8  A    between atoms: C_20  and  C_22
REMARK    9  A    between atoms: C_25  and  C_27
REMARK                            x       y       z     vdW  Elec       q    Type
REMARK                         _______ _______ _______ _____ _____    ______ ____
ROOT
ATOM      1  N   UNL     1      -3.745  -2.691  -5.105  0.00  0.00    -0.297 N 
ATOM      2  H   UNL     1      -4.305  -2.217  -5.740  0.00  0.00    +0.154 HD
ENDROOT
BRANCH   1   6
ATOM      3  C   UNL     1      -0.531  -0.744  -3.307  0.00  0.00    -0.043 A 
ATOM      4  C   UNL     1      -0.389  -2.046  -3.750  0.00  0.00    +0.006 A 
ATOM      5  C   UNL     1      -1.452  -2.694  -4.346  0.00  0.00    +0.023 A 
ATOM      6  C   UNL     1      -2.666  -2.037  -4.501  0.00  0.00    +0.033 A 
ATOM      7  C   UNL     1      -2.806  -0.729  -4.054  0.00  0.00    +0.023 A 
ATOM      8  C   UNL     1      -1.740  -0.088  -3.454  0.00  0.00    +0.006 A 
BRANCH   3   9
ATOM      9  C   UNL     1       0.631  -0.039  -2.656  0.00  0.00    +0.069 C 
BRANCH   9  12
ATOM     10  C   UNL     1      -0.048   2.006  -0.403  0.00  0.00    +0.030 C 
ATOM     11  C   UNL     1      -0.194   0.503  -0.152  0.00  0.00    +0.095 C 
ATOM     12  C   UNL     1       0.602  -0.288  -1.170  0.00  0.00    -0.031 C 
ATOM     13  C   UNL     1       1.259  -1.226  -0.536  0.00  0.00    -0.002 C 
ATOM     14  N   UNL     1       1.007  -1.190   0.839  0.00  0.00    -0.357 NA
ATOM     15  N   UNL     1       0.428   0.125   1.142  0.00  0.00    -0.253 NA
ATOM     16  C   UNL     1       2.173  -2.220  -1.204  0.00  0.00    +0.060 C 
ATOM     17  H   UNL     1       0.352  -1.916   1.087  0.00  0.00    +0.140 HD
ATOM     18  H   UNL     1       1.146   0.784   1.404  0.00  0.00    +0.143 HD
ATOM     19  H   UNL     1       1.869  -1.312   1.349  0.00  0.00    +0.140 HD
ENDBRANCH   9  12
ENDBRANCH   3   9
ENDBRANCH   1   6
BRANCH   1  20
ATOM     20  C   UNL     1      -4.006  -3.978  -4.806  0.00  0.00    +0.141 C 
ATOM     21  S   UNL     1      -3.108  -4.772  -3.583  0.00  0.00    -0.018 S 
BRANCH  20  22
ATOM     22  N   UNL     1      -4.974  -4.641  -5.469  0.00  0.00    -0.261 N 
ATOM     23  C   UNL     1      -5.235  -5.929  -5.169  0.00  0.00    +0.285 C 
ATOM     24  O   UNL     1      -4.597  -6.494  -4.300  0.00  0.00    -0.266 OA
ATOM     25  H   UNL     1      -5.483  -4.192  -6.162  0.00  0.00    +0.157 HD
BRANCH  23  26
ATOM     26  C   UNL     1      -6.287  -6.649  -5.889  0.00  0.00    +0.190 A 
ATOM     27  C   UNL     1      -6.659  -7.960  -5.680  0.00  0.00    +0.055 A 
ATOM     28  C   UNL     1      -7.694  -8.234  -6.579  0.00  0.00    +0.051 A 
ATOM     29  C   UNL     1      -7.915  -7.093  -7.298  0.00  0.00    +0.137 A 
ATOM     30  O   UNL     1      -7.065  -6.144  -6.870  0.00  0.00    -0.450 OA
BRANCH  29  31
ATOM     31  C   UNL     1      -8.923  -6.928  -8.363  0.00  0.00    +0.036 A 
ATOM     32  C   UNL     1      -9.013  -7.865  -9.395  0.00  0.00    +0.014 A 
ATOM     33  C   UNL     1      -9.957  -7.706 -10.387  0.00  0.00    +0.021 A 
ATOM     34  C   UNL     1     -10.816  -6.620 -10.362  0.00  0.00    +0.042 A 
ATOM     35  C   UNL     1     -10.733  -5.686  -9.343  0.00  0.00    +0.040 A 
ATOM     36  C   UNL     1      -9.796  -5.837  -8.340  0.00  0.00    +0.053 A 
ATOM     37 CL   UNL     1      -9.698  -4.670  -7.059  0.00  0.00    -0.083 Cl
ATOM     38 CL   UNL     1     -12.002  -6.427 -11.615  0.00  0.00    -0.083 Cl
ENDBRANCH  29  31
ENDBRANCH  23  26
ENDBRANCH  20  22
ENDBRANCH   1  20
TORSDOF 7
