REMARK  Name = ZINC02447353
REMARK  9 active torsions:
REMARK  status: ('A' for Active; 'I' for Inactive)
REMARK    1  A    between atoms: C_1  and  C_2
REMARK    2  A    between atoms: C_5  and  N_8
REMARK    3  A    between atoms: C_9  and  C_28
REMARK    4  A    between atoms: C_12  and  S_13
REMARK    5  A    between atoms: S_13  and  C_14
REMARK    6  A    between atoms: C_14  and  C_15
REMARK    7  A    between atoms: N_17  and  C_18
REMARK    8  A    between atoms: C_21  and  S_24
REMARK    9  A    between atoms: S_24  and  N_27
REMARK                            x       y       z     vdW  Elec       q    Type
REMARK                         _______ _______ _______ _____ _____    ______ ____
ROOT
ATOM      1  S   UNL     1       2.759   1.767  -0.015  0.00  0.00    -0.076 S 
ENDROOT
BRANCH   1   6
ATOM      2  N   UNL     1      -0.017   1.398  -0.005  0.00  0.00    -0.270 N 
ATOM      3  C   UNL     1      -1.127   2.218  -0.006  0.00  0.00    +0.176 A 
ATOM      4  N   UNL     1      -0.688   3.458  -0.003  0.00  0.00    -0.127 NA
ATOM      5  N   UNL     1       0.597   3.470  -0.008  0.00  0.00    -0.122 NA
ATOM      6  C   UNL     1       1.062   2.241  -0.009  0.00  0.00    +0.197 A 
BRANCH   2  11
ATOM      7  C   UNL     1       0.057  -4.277  -0.004  0.00  0.00    +0.044 C 
ATOM      8  C   UNL     1       0.038  -2.770  -0.004  0.00  0.00    -0.050 A 
ATOM      9  C   UNL     1       0.540  -2.073   1.079  0.00  0.00    +0.005 A 
ATOM     10  C   UNL     1       0.523  -0.692   1.082  0.00  0.00    +0.026 A 
ATOM     11  C   UNL     1       0.002  -0.003  -0.005  0.00  0.00    +0.051 A 
ATOM     12  C   UNL     1      -0.506  -0.706  -1.089  0.00  0.00    +0.026 A 
ATOM     13  C   UNL     1      -0.482  -2.087  -1.089  0.00  0.00    +0.005 A 
ENDBRANCH   2  11
BRANCH   3  14
ATOM     14  C   UNL     1      -2.534   1.786  -0.007  0.00  0.00    +0.057 A 
ATOM     15  C   UNL     1      -3.662   2.517   0.268  0.00  0.00    +0.019 A 
ATOM     16  C   UNL     1      -4.887   1.891   0.203  0.00  0.00    +0.008 A 
ATOM     17  C   UNL     1      -4.941   0.575  -0.130  0.00  0.00    +0.046 A 
ATOM     18  S   UNL     1      -3.217   0.178  -0.373  0.00  0.00    -0.094 S 
ENDBRANCH   3  14
ENDBRANCH   1   6
BRANCH   1  19
ATOM     19  C   UNL     1       3.542   3.399  -0.020  0.00  0.00    +0.173 C 
BRANCH  19  20
ATOM     20  C   UNL     1       5.040   3.237  -0.025  0.00  0.00    +0.227 C 
ATOM     21  O   UNL     1       5.530   2.128  -0.025  0.00  0.00    -0.275 OA
ATOM     22  N   UNL     1       5.835   4.326  -0.029  0.00  0.00    -0.285 N 
ATOM     23  H   UNL     1       5.445   5.211  -0.096  0.00  0.00    +0.155 HD
BRANCH  22  24
ATOM     24  C   UNL     1       7.223   4.178   0.064  0.00  0.00    +0.034 A 
ATOM     25  C   UNL     1       7.979   5.118   0.753  0.00  0.00    +0.025 A 
ATOM     26  C   UNL     1       9.348   4.966   0.848  0.00  0.00    +0.030 A 
ATOM     27  C   UNL     1       9.969   3.886   0.248  0.00  0.00    +0.105 A 
ATOM     28  C   UNL     1       9.220   2.952  -0.444  0.00  0.00    +0.030 A 
ATOM     29  C   UNL     1       7.850   3.094  -0.538  0.00  0.00    +0.025 A 
BRANCH  27  30
ATOM     30  S   UNL     1      11.717   3.700   0.365  0.00  0.00    +0.056 S 
ATOM     31  O   UNL     1      12.124   4.411   1.526  0.00  0.00    -0.153 OA
ATOM     32  O   UNL     1      11.991   2.318   0.183  0.00  0.00    -0.153 OA
BRANCH  30  33
ATOM     33  N   UNL     1      12.381   4.489  -0.930  0.00  0.00    -0.204 NA
ATOM     34  H   UNL     1      13.264   4.885  -0.856  0.00  0.00    +0.144 HD
ATOM     35  H   UNL     1      11.888   4.554  -1.763  0.00  0.00    +0.144 HD
ENDBRANCH  30  33
ENDBRANCH  27  30
ENDBRANCH  22  24
ENDBRANCH  19  20
ENDBRANCH   1  19
TORSDOF 8
