REMARK  Name = ZINC10786724
REMARK  8 active torsions:
REMARK  status: ('A' for Active; 'I' for Inactive)
REMARK    1  A    between atoms: C_1  and  C_2
REMARK    2  A    between atoms: C_2  and  C_4
REMARK    3  A    between atoms: C_2  and  S_20
REMARK    4  A    between atoms: C_10  and  C_15
REMARK    5  A    between atoms: S_20  and  C_21
REMARK    6  A    between atoms: N_26  and  C_27
REMARK    7  A    between atoms: C_30  and  O_33
REMARK    8  A    between atoms: O_33  and  C_34
REMARK                            x       y       z     vdW  Elec       q    Type
REMARK                         _______ _______ _______ _____ _____    ______ ____
ROOT
ATOM      1  C   UNL     1      -4.127   8.175  -5.265  0.00  0.00    +0.027 C 
ATOM      2  C   UNL     1      -4.622   7.276  -4.130  0.00  0.00    +0.116 C 
ENDROOT
BRANCH   2   3
ATOM      3  C   UNL     1      -3.441   6.639  -3.443  0.00  0.00    +0.124 A 
ATOM      4  N   UNL     1      -3.040   5.397  -3.820  0.00  0.00    -0.309 N 
ATOM      5  H   UNL     1      -3.519   4.937  -4.527  0.00  0.00    +0.170 HD
ATOM      6  C   UNL     1      -1.991   4.793  -3.232  0.00  0.00    +0.260 A 
ATOM      7  O   UNL     1      -1.644   3.678  -3.582  0.00  0.00    -0.267 OA
ATOM      8  C   UNL     1      -1.290   5.479  -2.191  0.00  0.00    +0.080 A 
ATOM      9  C   UNL     1      -0.138   5.041  -1.410  0.00  0.00    +0.010 A 
ATOM     10  C   UNL     1       0.359   5.871  -0.460  0.00  0.00    +0.057 A 
ATOM     11  S   UNL     1      -0.698   7.303  -0.570  0.00  0.00    -0.076 S 
ATOM     12  C   UNL     1      -1.776   6.756  -1.869  0.00  0.00    +0.116 A 
ATOM     13  N   UNL     1      -2.821   7.290  -2.496  0.00  0.00    -0.225 NA
BRANCH   9  14
ATOM     14  C   UNL     1       0.473   3.716  -1.647  0.00  0.00    +0.021 A 
ATOM     15  C   UNL     1       1.789   3.396  -1.848  0.00  0.00    +0.016 A 
ATOM     16  C   UNL     1       2.126   2.074  -2.051  0.00  0.00    +0.008 A 
ATOM     17  C   UNL     1       1.147   1.134  -2.045  0.00  0.00    +0.046 A 
ATOM     18  S   UNL     1      -0.314   2.117  -1.752  0.00  0.00    -0.097 S 
ENDBRANCH   9  14
ENDBRANCH   2   3
BRANCH   2  19
ATOM     19  S   UNL     1      -5.698   5.982  -4.807  0.00  0.00    -0.086 S 
BRANCH  19  20
ATOM     20  C   UNL     1      -7.085   6.868  -5.436  0.00  0.00    +0.161 A 
ATOM     21  N   UNL     1      -7.322   8.166  -5.428  0.00  0.00    -0.133 NA
ATOM     22  N   UNL     1      -8.482   8.653  -5.983  0.00  0.00    -0.125 NA
ATOM     23  C   UNL     1      -9.357   7.820  -6.513  0.00  0.00    +0.187 A 
ATOM     24  S   UNL     1      -8.550   6.249  -6.250  0.00  0.00    -0.024 S 
ATOM     25  N   UNL     1     -10.579   8.092  -7.117  0.00  0.00    -0.292 N 
ATOM     26  H   UNL     1     -11.160   7.364  -7.386  0.00  0.00    +0.154 HD
BRANCH  25  27
ATOM     27  C   UNL     1     -10.972   9.418  -7.335  0.00  0.00    +0.033 A 
ATOM     28  C   UNL     1     -12.321   9.738  -7.417  0.00  0.00    +0.027 A 
ATOM     29  C   UNL     1     -12.708  11.047  -7.628  0.00  0.00    +0.047 A 
ATOM     30  C   UNL     1     -11.749  12.040  -7.768  0.00  0.00    +0.120 A 
ATOM     31  C   UNL     1     -10.402  11.720  -7.692  0.00  0.00    +0.047 A 
ATOM     32  C   UNL     1     -10.013  10.413  -7.476  0.00  0.00    +0.027 A 
BRANCH  30  33
ATOM     33  O   UNL     1     -12.131  13.328  -7.980  0.00  0.00    -0.495 OA
ATOM     34  C   UNL     1     -13.535  13.586  -8.047  0.00  0.00    +0.277 C 
ENDBRANCH  30  33
ENDBRANCH  25  27
ENDBRANCH  19  20
ENDBRANCH   2  19
TORSDOF 6
