REMARK  Name = ZINC63374152
REMARK  8 active torsions:
REMARK  status: ('A' for Active; 'I' for Inactive)
REMARK    1  A    between atoms: C_1  and  C_2
REMARK    2  A    between atoms: C_13  and  C_31
REMARK    3  A    between atoms: N_20  and  C_23
REMARK    4  A    between atoms: C_23  and  C_24
REMARK    5  A    between atoms: C_35  and  O_39
REMARK    6  A    between atoms: C_36  and  O_37
REMARK    7  A    between atoms: O_37  and  C_38
REMARK    8  A    between atoms: O_39  and  C_40
REMARK                            x       y       z     vdW  Elec       q    Type
REMARK                         _______ _______ _______ _____ _____    ______ ____
ROOT
ATOM      1  C   UNL     1      -0.019   1.526   0.010  0.00  0.00    +0.044 C 
ATOM      2  C   UNL     1       0.002  -0.004   0.002  0.00  0.00    +0.135 C 
ATOM      3  C   UNL     1       0.498  -0.386  -1.357  0.00  0.00    +0.139 C 
ATOM      4  C   UNL     1       1.585  -1.439  -1.225  0.00  0.00    -0.027 C 
ATOM      5  C   UNL     1       1.260  -2.423  -2.051  0.00  0.00    -0.000 A 
ATOM      6  C   UNL     1       1.955  -3.666  -2.422  0.00  0.00    +0.010 A 
ATOM      7  C   UNL     1       1.313  -4.469  -3.312  0.00  0.00    +0.001 A 
ATOM      8  C   UNL     1       0.064  -4.165  -3.862  0.00  0.00    +0.002 A 
ATOM      9  C   UNL     1      -0.644  -3.043  -3.581  0.00  0.00    +0.026 A 
ATOM     10  C   UNL     1      -0.070  -2.116  -2.663  0.00  0.00    +0.043 A 
ATOM     11  N   UNL     1      -0.510  -0.988  -2.228  0.00  0.00    -0.375 N 
ATOM     12  C   UNL     1       2.705  -1.279  -0.227  0.00  0.00    +0.069 C 
ATOM     13  C   UNL     1       2.038  -1.169   1.147  0.00  0.00    +0.121 C 
ATOM     14  N   UNL     1       0.822  -0.378   1.140  0.00  0.00    -0.283 N 
ATOM     15  C   UNL     1       0.343   0.038   2.360  0.00  0.00    +0.234 C 
ATOM     16  O   UNL     1       0.982  -0.114   3.379  0.00  0.00    -0.274 OA
ATOM     17  C   UNL     1      -1.021   0.697   2.368  0.00  0.00    +0.204 C 
ATOM     18  N   UNL     1      -1.920  -0.069   1.485  0.00  0.00    -0.287 N 
ATOM     19  C   UNL     1      -1.426  -0.413   0.258  0.00  0.00    +0.242 C 
ATOM     20  O   UNL     1      -2.089  -1.004  -0.568  0.00  0.00    -0.273 OA
ATOM     21  H   UNL     1      -1.372  -0.603  -2.451  0.00  0.00    +0.160 HD
ENDROOT
BRANCH  12  22
ATOM     22  C   UNL     1       3.612  -2.481  -0.270  0.00  0.00    +0.007 A 
ATOM     23  C   UNL     1       3.107  -3.740   0.001  0.00  0.00    +0.008 A 
ATOM     24  C   UNL     1       3.937  -4.844  -0.037  0.00  0.00    +0.004 A 
ATOM     25  C   UNL     1       5.276  -4.696  -0.347  0.00  0.00    +0.049 A 
ATOM     26  C   UNL     1       5.789  -3.439  -0.620  0.00  0.00    +0.162 A 
ATOM     27  C   UNL     1       4.952  -2.327  -0.587  0.00  0.00    +0.165 A 
BRANCH  27  28
ATOM     28  O   UNL     1       5.450  -1.091  -0.860  0.00  0.00    -0.491 OA
ATOM     29  C   UNL     1       5.960  -0.339   0.243  0.00  0.00    +0.277 C 
ENDBRANCH  27  28
BRANCH  26  30
ATOM     30  O   UNL     1       7.106  -3.291  -0.925  0.00  0.00    -0.491 OA
ATOM     31  C   UNL     1       7.904  -4.477  -0.945  0.00  0.00    +0.277 C 
ENDBRANCH  26  30
ENDBRANCH  12  22
BRANCH  18  32
ATOM     32  C   UNL     1      -3.274  -0.442   1.902  0.00  0.00    +0.143 C 
BRANCH  32  33
ATOM     33  C   UNL     1      -4.240   0.644   1.503  0.00  0.00    -0.030 A 
ATOM     34  C   UNL     1      -4.503   1.687   2.371  0.00  0.00    +0.008 A 
ATOM     35  C   UNL     1      -5.388   2.684   2.006  0.00  0.00    +0.038 A 
ATOM     36  C   UNL     1      -6.011   2.637   0.770  0.00  0.00    +0.123 A 
ATOM     37  C   UNL     1      -5.746   1.592  -0.098  0.00  0.00    +0.038 A 
ATOM     38  C   UNL     1      -4.857   0.599   0.267  0.00  0.00    +0.008 A 
ATOM     39  F   UNL     1      -6.877   3.611   0.412  0.00  0.00    -0.205 F 
ENDBRANCH  32  33
ENDBRANCH  18  32
TORSDOF 5
