REMARK  Name = ZINC05813804
REMARK  7 active torsions:
REMARK  status: ('A' for Active; 'I' for Inactive)
REMARK    1  A    between atoms: C_6  and  C_12
REMARK    2  A    between atoms: C_7  and  O_11
REMARK    3  A    between atoms: C_12  and  C_14
REMARK    4  A    between atoms: C_12  and  N_23
REMARK    5  A    between atoms: C_17  and  N_20
REMARK    6  A    between atoms: N_23  and  C_25
REMARK    7  A    between atoms: C_26  and  O_30
REMARK                            x       y       z     vdW  Elec       q    Type
REMARK                         _______ _______ _______ _____ _____    ______ ____
ROOT
ATOM      1  C   UNL     1       2.466   3.887  -0.003  0.00  0.00    +0.136 C 
ENDROOT
BRANCH   1   7
ATOM      2  C   UNL     1      -3.039   0.604  -0.581  0.00  0.00    +0.020 A 
ATOM      3  C   UNL     1      -1.773   0.117  -0.422  0.00  0.00    +0.011 A 
ATOM      4  C   UNL     1      -0.715   1.039  -0.314  0.00  0.00    +0.004 A 
ATOM      5  C   UNL     1       0.613   0.612  -0.150  0.00  0.00    +0.010 A 
ATOM      6  C   UNL     1       1.611   1.533  -0.055  0.00  0.00    +0.010 A 
ATOM      7  C   UNL     1       1.336   2.896  -0.112  0.00  0.00    +0.021 A 
ATOM      8  C   UNL     1       0.056   3.349  -0.265  0.00  0.00    +0.148 A 
ATOM      9  C   UNL     1      -1.004   2.424  -0.367  0.00  0.00    +0.113 A 
ATOM     10  N   UNL     1      -2.266   2.836  -0.517  0.00  0.00    -0.251 NA
ATOM     11  C   UNL     1      -3.253   1.980  -0.631  0.00  0.00    +0.111 A 
BRANCH   8  12
ATOM     12  O   UNL     1      -0.194   4.684  -0.317  0.00  0.00    -0.504 OA
ATOM     13  H   UNL     1      -0.167   5.054  -1.210  0.00  0.00    +0.292 HD
ENDBRANCH   8  12
ENDBRANCH   1   7
BRANCH   1  14
ATOM     14  C   UNL     1       2.608   4.331   1.430  0.00  0.00    -0.023 A 
ATOM     15  C   UNL     1       3.162   3.478   2.366  0.00  0.00    +0.008 A 
ATOM     16  C   UNL     1       3.297   3.887   3.680  0.00  0.00    +0.033 A 
ATOM     17  C   UNL     1       2.869   5.145   4.060  0.00  0.00    +0.126 A 
ATOM     18  C   UNL     1       2.310   5.996   3.125  0.00  0.00    +0.033 A 
ATOM     19  C   UNL     1       2.180   5.589   1.810  0.00  0.00    +0.008 A 
BRANCH  17  20
ATOM     20  N   UNL     1       3.008   5.581   5.467  0.00  0.00    +0.056 N 
ATOM     21  O   UNL     1       2.630   6.689   5.802  0.00  0.00    -0.126 OA
ATOM     22  O   UNL     1       3.500   4.831   6.291  0.00  0.00    -0.126 OA
ENDBRANCH  17  20
ENDBRANCH   1  14
BRANCH   1  23
ATOM     23  N   UNL     1       3.712   3.257  -0.445  0.00  0.00    -0.317 N 
ATOM     24  H   UNL     1       4.298   2.835   0.203  0.00  0.00    +0.148 HD
BRANCH  23  25
ATOM     25  C   UNL     1       4.055   3.263  -1.794  0.00  0.00    +0.139 A 
ATOM     26  C   UNL     1       5.285   2.741  -2.199  0.00  0.00    +0.155 A 
ATOM     27  C   UNL     1       5.609   2.750  -3.547  0.00  0.00    +0.050 A 
ATOM     28  C   UNL     1       4.696   3.292  -4.443  0.00  0.00    +0.021 A 
ATOM     29  C   UNL     1       3.501   3.795  -3.971  0.00  0.00    +0.084 A 
ATOM     30  N   UNL     1       3.146   3.799  -2.657  0.00  0.00    -0.347 N 
ATOM     31  H   UNL     1       2.249   4.182  -2.336  0.00  0.00    +0.167 HD
BRANCH  26  32
ATOM     32  O   UNL     1       6.150   2.226  -1.285  0.00  0.00    -0.503 OA
ATOM     33  H   UNL     1       6.030   1.281  -1.118  0.00  0.00    +0.292 HD
ENDBRANCH  26  32
ENDBRANCH  23  25
ENDBRANCH   1  23
TORSDOF 7
