REMARK  Name = ZINC04554831
REMARK  8 active torsions:
REMARK  status: ('A' for Active; 'I' for Inactive)
REMARK    1  A    between atoms: C_1  and  C_2
REMARK    2  A    between atoms: C_2  and  O_3
REMARK    3  A    between atoms: O_3  and  C_4
REMARK    4  A    between atoms: C_14  and  O_28
REMARK    5  A    between atoms: C_16  and  C_19
REMARK    6  A    between atoms: C_22  and  O_26
REMARK    7  A    between atoms: C_23  and  O_25
REMARK    8  A    between atoms: O_26  and  C_27
REMARK                            x       y       z     vdW  Elec       q    Type
REMARK                         _______ _______ _______ _____ _____    ______ ____
ROOT
ATOM      1  C   UNL     1       0.776  -1.798  -1.335  0.00  0.00    +0.403 C 
ATOM      2  O   UNL     1       0.312  -2.549  -0.500  0.00  0.00    -0.226 OA
ATOM      3  N   UNL     1       1.395  -2.298  -2.422  0.00  0.00    -0.262 N 
ATOM      4  C   UNL     1       1.520  -3.749  -2.628  0.00  0.00    +0.116 C 
ATOM      5  C   UNL     1       0.736  -4.159  -3.877  0.00  0.00    +0.056 C 
ATOM      6  C   UNL     1       1.081  -3.213  -5.017  0.00  0.00    -0.020 A 
ATOM      7  C   UNL     1       1.628  -1.998  -4.785  0.00  0.00    +0.013 A 
ATOM      8  S   UNL     1       1.840  -1.278  -6.389  0.00  0.00    -0.076 S 
ATOM      9  C   UNL     1       1.239  -2.510  -7.322  0.00  0.00    +0.080 A 
ATOM     10  C   UNL     1       0.863  -3.513  -6.421  0.00  0.00    +0.068 A 
ATOM     11  C   UNL     1       0.295  -4.764  -6.987  0.00  0.00    +0.220 C 
ATOM     12  N   UNL     1      -0.049  -4.758  -8.246  0.00  0.00    -0.223 NA
ATOM     13  C   UNL     1       0.026  -3.592  -9.118  0.00  0.00    +0.224 C 
ATOM     14  N   UNL     1       1.077  -2.655  -8.682  0.00  0.00    -0.313 N 
ATOM     15  C   UNL     1       1.968  -1.411  -3.453  0.00  0.00    +0.153 C 
ATOM     16  H   UNL     1       1.624  -2.167  -9.318  0.00  0.00    +0.149 HD
ENDROOT
BRANCH  13  17
ATOM     17  C   UNL     1      -1.302  -2.881  -9.104  0.00  0.00    -0.002 A 
ATOM     18  C   UNL     1      -1.354  -1.513  -9.300  0.00  0.00    +0.011 A 
ATOM     19  C   UNL     1      -2.571  -0.856  -9.288  0.00  0.00    +0.050 A 
ATOM     20  C   UNL     1      -3.741  -1.568  -9.079  0.00  0.00    +0.161 A 
ATOM     21  C   UNL     1      -3.688  -2.944  -8.881  0.00  0.00    +0.159 A 
ATOM     22  C   UNL     1      -2.466  -3.598  -8.899  0.00  0.00    +0.056 A 
BRANCH  21  23
ATOM     23  O   UNL     1      -4.834  -3.647  -8.675  0.00  0.00    -0.503 OA
ATOM     24  H   UNL     1      -5.243  -3.978  -9.486  0.00  0.00    +0.292 HD
ENDBRANCH  21  23
BRANCH  20  25
ATOM     25  O   UNL     1      -4.938  -0.923  -9.066  0.00  0.00    -0.491 OA
ATOM     26  C   UNL     1      -4.915   0.491  -9.275  0.00  0.00    +0.277 C 
ENDBRANCH  20  25
ENDBRANCH  13  17
BRANCH  11  27
ATOM     27  O   UNL     1       0.139  -5.870  -6.223  0.00  0.00    -0.492 OA
ATOM     28  H   UNL     1      -0.240  -6.624  -6.696  0.00  0.00    +0.294 HD
ENDBRANCH  11  27
BRANCH   1  29
ATOM     29  O   UNL     1       0.671  -0.465  -1.174  0.00  0.00    -0.451 OA
BRANCH  29  31
ATOM     30  C   UNL     1      -0.019   1.526   0.010  0.00  0.00    +0.048 C 
ATOM     31  C   UNL     1       0.002  -0.004   0.002  0.00  0.00    +0.230 C 
ENDBRANCH  29  31
ENDBRANCH   1  29
TORSDOF 6
