REMARK  Name = ZINC09072522
REMARK  3 active torsions:
REMARK  status: ('A' for Active; 'I' for Inactive)
REMARK    1  A    between atoms: C_1  and  C_2
REMARK    2  A    between atoms: N_12  and  C_15
REMARK    3  A    between atoms: C_15  and  C_16
REMARK                            x       y       z     vdW  Elec       q    Type
REMARK                         _______ _______ _______ _____ _____    ______ ____
ROOT
ATOM      1  C   UNL     1       1.034  -2.213   0.439  0.00  0.00    +0.019 C 
ATOM      2  C   UNL     1       1.307  -0.751   0.080  0.00  0.00    +0.090 C 
ATOM      3  C   UNL     1       2.032  -0.687  -1.266  0.00  0.00    +0.126 C 
ATOM      4  N   UNL     1       1.962   0.673  -1.802  0.00  0.00    -0.272 N 
ATOM      5  C   UNL     1       2.164   1.751  -0.931  0.00  0.00    +0.057 A 
ATOM      6  C   UNL     1       3.335   2.491  -0.982  0.00  0.00    +0.025 A 
ATOM      7  C   UNL     1       3.530   3.532  -0.094  0.00  0.00    +0.002 A 
ATOM      8  C   UNL     1       2.564   3.837   0.847  0.00  0.00    +0.002 A 
ATOM      9  C   UNL     1       1.387   3.112   0.897  0.00  0.00    +0.025 A 
ATOM     10  C   UNL     1       1.179   2.076   0.002  0.00  0.00    +0.058 A 
ATOM     11  N   UNL     1      -0.016   1.348   0.009  0.00  0.00    -0.266 N 
ATOM     12  C   UNL     1       0.002  -0.004   0.002  0.00  0.00    +0.224 C 
ATOM     13  O   UNL     1      -1.041  -0.620  -0.068  0.00  0.00    -0.275 OA
ATOM     14  C   UNL     1       1.708   0.884  -3.109  0.00  0.00    +0.332 C 
ATOM     15  O   UNL     1       1.652   2.016  -3.541  0.00  0.00    -0.279 OA
ENDROOT
BRANCH  11  16
ATOM     16  C   UNL     1      -1.298   2.056   0.019  0.00  0.00    +0.140 C 
BRANCH  16  17
ATOM     17  C   UNL     1      -1.731   2.292   1.444  0.00  0.00    -0.015 C 
ATOM     18  C   UNL     1      -2.008   3.505   1.852  0.00  0.00    +0.005 C 
ENDBRANCH  16  17
ENDBRANCH  11  16
TORSDOF 2
