REMARK  Name = ZINC10969349
REMARK  7 active torsions:
REMARK  status: ('A' for Active; 'I' for Inactive)
REMARK    1  A    between atoms: C_1  and  N_2
REMARK    2  A    between atoms: N_7  and  C_10
REMARK    3  A    between atoms: N_11  and  C_25
REMARK    4  A    between atoms: C_14  and  C_17
REMARK    5  A    between atoms: C_20  and  O_24
REMARK    6  A    between atoms: C_22  and  O_23
REMARK    7  A    between atoms: C_25  and  C_26
REMARK                            x       y       z     vdW  Elec       q    Type
REMARK                         _______ _______ _______ _____ _____    ______ ____
ROOT
ATOM      1  C   UNL     1      -2.466   4.472   1.515  0.00  0.00    +0.155 C 
ATOM      2  N   UNL     1      -1.155   3.839   1.685  0.00  0.00    -0.281 N 
ATOM      3  C   UNL     1      -0.046   4.385   1.076  0.00  0.00    +0.155 A 
ATOM      4  C   UNL     1       1.169   3.785   1.243  0.00  0.00    +0.152 A 
ATOM      5  C   UNL     1       1.260   2.619   2.036  0.00  0.00    +0.282 A 
ATOM      6  O   UNL     1       2.335   2.067   2.198  0.00  0.00    -0.265 OA
ATOM      7  N   UNL     1       0.146   2.122   2.611  0.00  0.00    -0.262 N 
ATOM      8  C   UNL     1      -1.043   2.724   2.430  0.00  0.00    +0.333 A 
ATOM      9  O   UNL     1      -2.035   2.255   2.954  0.00  0.00    -0.246 OA
ATOM     10  C   UNL     1       0.231   0.913   3.434  0.00  0.00    +0.157 C 
ATOM     11  N   UNL     1       2.114   4.529   0.531  0.00  0.00    -0.298 N 
ATOM     12  C   UNL     1       1.452   5.579  -0.062  0.00  0.00    +0.239 A 
ATOM     13  N   UNL     1       0.128   5.487   0.274  0.00  0.00    -0.244 N 
ATOM     14  C   UNL     1      -0.488   6.553  -0.340  0.00  0.00    +0.175 A 
ATOM     15  N   UNL     1       0.444   7.213  -0.991  0.00  0.00    -0.127 NA
ATOM     16  N   UNL     1       1.584   6.640  -0.828  0.00  0.00    -0.110 NA
ENDROOT
BRANCH  14  17
ATOM     17  C   UNL     1      -1.925   6.892  -0.280  0.00  0.00    +0.061 A 
ATOM     18  C   UNL     1      -2.848   6.166  -1.035  0.00  0.00    +0.019 A 
ATOM     19  C   UNL     1      -4.188   6.481  -0.973  0.00  0.00    +0.046 A 
ATOM     20  C   UNL     1      -4.623   7.527  -0.169  0.00  0.00    +0.120 A 
ATOM     21  C   UNL     1      -3.713   8.258   0.581  0.00  0.00    +0.091 A 
ATOM     22  C   UNL     1      -2.365   7.946   0.530  0.00  0.00    +0.131 A 
BRANCH  22  23
ATOM     23  O   UNL     1      -1.472   8.661   1.263  0.00  0.00    -0.506 OA
ATOM     24  H   UNL     1      -1.110   9.430   0.801  0.00  0.00    +0.292 HD
ENDBRANCH  22  23
BRANCH  20  25
ATOM     25  O   UNL     1      -5.945   7.837  -0.117  0.00  0.00    -0.507 OA
ATOM     26  H   UNL     1      -6.223   8.487  -0.776  0.00  0.00    +0.292 HD
ENDBRANCH  20  25
ENDBRANCH  14  17
BRANCH  11  27
ATOM     27  C   UNL     1       3.547   4.243   0.435  0.00  0.00    +0.162 C 
BRANCH  27  28
ATOM     28  C   UNL     1       3.802   3.345  -0.749  0.00  0.00    -0.009 A 
ATOM     29  C   UNL     1       3.882   1.977  -0.573  0.00  0.00    +0.008 A 
ATOM     30  C   UNL     1       4.110   1.152  -1.658  0.00  0.00    +0.020 A 
ATOM     31  C   UNL     1       4.269   1.697  -2.920  0.00  0.00    +0.042 A 
ATOM     32  C   UNL     1       4.194   3.067  -3.096  0.00  0.00    +0.040 A 
ATOM     33  C   UNL     1       3.961   3.892  -2.010  0.00  0.00    +0.047 A 
ATOM     34 CL   UNL     1       3.867   5.611  -2.229  0.00  0.00    -0.083 Cl
ATOM     35 CL   UNL     1       4.563   0.662  -4.282  0.00  0.00    -0.083 Cl
ENDBRANCH  27  28
ENDBRANCH  11  27
TORSDOF 5
