REMARK  Name = ZINC23637495
REMARK  13 active torsions:
REMARK  status: ('A' for Active; 'I' for Inactive)
REMARK    1  A    between atoms: C_1  and  C_2
REMARK    2  A    between atoms: C_2  and  C_3
REMARK    3  A    between atoms: C_3  and  C_4
REMARK    4  A    between atoms: C_5  and  C_32
REMARK    5  A    between atoms: C_6  and  C_14
REMARK    6  A    between atoms: C_14  and  O_16
REMARK    7  A    between atoms: O_16  and  C_17
REMARK    8  A    between atoms: C_17  and  C_18
REMARK    9  A    between atoms: N_20  and  C_21
REMARK   10  A    between atoms: C_21  and  C_22
REMARK   11  A    between atoms: C_25  and  S_28
REMARK   12  A    between atoms: S_28  and  N_31
REMARK   13  A    between atoms: C_32  and  C_33
REMARK                            x       y       z     vdW  Elec       q    Type
REMARK                         _______ _______ _______ _____ _____    ______ ____
ROOT
ATOM      1  O   UNL     1       1.358   2.768   3.818  0.00  0.00    -0.452 OA
ENDROOT
BRANCH   1   2
ATOM      2  C   UNL     1       1.419   3.099   2.514  0.00  0.00    +0.341 C 
ATOM      3  O   UNL     1       2.407   2.824   1.863  0.00  0.00    -0.245 OA
BRANCH   2   6
ATOM      4  C   UNL     1      -1.807   3.776   0.687  0.00  0.00    +0.046 A 
ATOM      5  C   UNL     1      -0.749   3.086   1.275  0.00  0.00    -0.012 A 
ATOM      6  C   UNL     1       0.284   3.796   1.874  0.00  0.00    +0.073 A 
ATOM      7  C   UNL     1       0.214   5.213   1.847  0.00  0.00    +0.015 A 
ATOM      8  C   UNL     1       1.217   6.003   2.424  0.00  0.00    +0.011 A 
ATOM      9  C   UNL     1       1.112   7.361   2.383  0.00  0.00    +0.001 A 
ATOM     10  C   UNL     1       0.019   7.974   1.774  0.00  0.00    +0.002 A 
ATOM     11  C   UNL     1      -0.972   7.237   1.204  0.00  0.00    +0.028 A 
ATOM     12  C   UNL     1      -0.898   5.832   1.227  0.00  0.00    +0.072 A 
ATOM     13  N   UNL     1      -1.858   5.085   0.675  0.00  0.00    -0.251 NA
BRANCH   5  14
ATOM     14  C   UNL     1      -0.729   1.579   1.267  0.00  0.00    +0.034 C 
ATOM     15  C   UNL     1      -0.013   1.086   0.008  0.00  0.00    +0.009 C 
ENDBRANCH   5  14
BRANCH   4  16
ATOM     16  C   UNL     1      -2.924   2.994   0.045  0.00  0.00    +0.055 C 
BRANCH  16  18
ATOM     17  C   UNL     1      -5.146   1.919   0.432  0.00  0.00    +0.004 C 
ATOM     18  C   UNL     1      -4.012   2.713   1.084  0.00  0.00    +0.003 C 
ENDBRANCH  16  18
ENDBRANCH   4  16
ENDBRANCH   2   6
ENDBRANCH   1   2
BRANCH   1  19
ATOM     19  C   UNL     1       2.510   2.084   4.379  0.00  0.00    +0.328 C 
BRANCH  19  20
ATOM     20  C   UNL     1       2.262   1.797   5.838  0.00  0.00    +0.251 C 
ATOM     21  O   UNL     1       1.218   2.134   6.353  0.00  0.00    -0.272 OA
ATOM     22  N   UNL     1       3.201   1.165   6.569  0.00  0.00    -0.308 N 
ATOM     23  H   UNL     1       4.149   0.858   6.101  0.00  0.00    +0.149 HD
BRANCH  22  24
ATOM     24  C   UNL     1       2.960   0.885   7.987  0.00  0.00    +0.139 C 
BRANCH  24  25
ATOM     25  C   UNL     1       4.155   0.176   8.569  0.00  0.00    -0.030 A 
ATOM     26  C   UNL     1       4.217  -1.205   8.551  0.00  0.00    +0.007 A 
ATOM     27  C   UNL     1       5.315  -1.855   9.081  0.00  0.00    +0.029 A 
ATOM     28  C   UNL     1       6.348  -1.125   9.638  0.00  0.00    +0.105 A 
ATOM     29  C   UNL     1       6.285   0.256   9.661  0.00  0.00    +0.029 A 
ATOM     30  C   UNL     1       5.188   0.906   9.127  0.00  0.00    +0.007 A 
BRANCH  28  31
ATOM     31  S   UNL     1       7.747  -1.954  10.318  0.00  0.00    +0.056 S 
ATOM     32  O   UNL     1       7.815  -3.223   9.683  0.00  0.00    -0.153 OA
ATOM     33  O   UNL     1       8.823  -1.027  10.286  0.00  0.00    -0.153 OA
BRANCH  31  34
ATOM     34  N   UNL     1       7.417  -2.241  11.915  0.00  0.00    -0.204 NA
ATOM     35  H   UNL     1       8.269  -2.760  12.378  0.00  0.00    +0.144 HD
ATOM     36  H   UNL     1       6.517  -2.869  11.997  0.00  0.00    +0.144 HD
ENDBRANCH  31  34
ENDBRANCH  28  31
ENDBRANCH  24  25
ENDBRANCH  22  24
ENDBRANCH  19  20
ENDBRANCH   1  19
TORSDOF 11
