REMARK  Name = ZINC01983951
REMARK  14 active torsions:
REMARK  status: ('A' for Active; 'I' for Inactive)
REMARK    1  A    between atoms: C_1  and  C_2
REMARK    2  A    between atoms: C_2  and  O_3
REMARK    3  A    between atoms: O_3  and  C_4
REMARK    4  A    between atoms: C_4  and  C_6
REMARK    5  A    between atoms: C_10  and  N_11
REMARK    6  A    between atoms: C_12  and  C_14
REMARK    7  A    between atoms: C_14  and  C_15
REMARK    8  A    between atoms: C_15  and  C_16
REMARK    9  A    between atoms: C_16  and  O_17
REMARK   10  A    between atoms: O_17  and  C_18
REMARK   11  A    between atoms: C_21  and  C_25
REMARK   12  A    between atoms: C_25  and  C_26
REMARK   13  A    between atoms: C_25  and  C_27
REMARK   14  A    between atoms: C_25  and  C_28
REMARK                            x       y       z     vdW  Elec       q    Type
REMARK                         _______ _______ _______ _____ _____    ______ ____
ROOT
ATOM      1  N   UNL     1       3.220   6.575   0.007  0.00  0.00    -0.279 N 
ATOM      2  C   UNL     1       2.163   5.739   0.012  0.00  0.00    +0.218 C 
ATOM      3  O   UNL     1       1.036   6.187   0.025  0.00  0.00    -0.275 OA
ATOM      4  H   UNL     1       4.242   6.168  -0.005  0.00  0.00    +0.155 HD
ENDROOT
BRANCH   1   9
ATOM      5  C   UNL     1       3.972   8.957   0.018  0.00  0.00    +0.091 A 
ATOM      6  C   UNL     1       3.493  10.329   0.024  0.00  0.00    -0.021 A 
ATOM      7  C   UNL     1       2.150  10.470   0.038  0.00  0.00    -0.004 A 
ATOM      8  S   UNL     1       1.522   8.815   0.035  0.00  0.00    -0.077 S 
ATOM      9  C   UNL     1       3.020   7.946   0.016  0.00  0.00    +0.086 A 
ATOM     10  C   UNL     1       1.377  11.752   0.054  0.00  0.00    +0.043 C 
ATOM     11  C   UNL     1       2.336  12.892   0.429  0.00  0.00    +0.005 C 
ATOM     12  C   UNL     1       3.603  12.769  -0.421  0.00  0.00    +0.005 C 
ATOM     13  C   UNL     1       4.410  11.547   0.021  0.00  0.00    +0.037 C 
BRANCH   5  14
ATOM     14  C   UNL     1       5.404   8.652   0.010  0.00  0.00    +0.342 C 
ATOM     15  O   UNL     1       5.995   8.532  -1.047  0.00  0.00    -0.245 OA
BRANCH  14  16
ATOM     16  O   UNL     1       6.069   8.504   1.174  0.00  0.00    -0.461 OA
BRANCH  16  18
ATOM     17  C   UNL     1       8.065   8.072   2.501  0.00  0.00    +0.048 C 
ATOM     18  C   UNL     1       7.487   8.203   1.090  0.00  0.00    +0.229 C 
ENDBRANCH  16  18
ENDBRANCH  14  16
ENDBRANCH   5  14
ENDBRANCH   1   9
BRANCH   2  19
ATOM     19  C   UNL     1       2.381   4.248   0.002  0.00  0.00    +0.099 C 
BRANCH  19  20
ATOM     20  C   UNL     1       1.027   3.535   0.011  0.00  0.00    +0.050 C 
BRANCH  20  21
ATOM     21  C   UNL     1       1.248   2.021   0.001  0.00  0.00    +0.229 C 
BRANCH  21  22
ATOM     22  O   UNL     1      -0.016   1.355   0.009  0.00  0.00    -0.491 OA
BRANCH  22  23
ATOM     23  C   UNL     1       0.002  -0.004   0.002  0.00  0.00    +0.134 A 
ATOM     24  C   UNL     1       1.212  -0.682  -0.013  0.00  0.00    +0.047 A 
ATOM     25  C   UNL     1       1.228  -2.064  -0.020  0.00  0.00    +0.008 A 
ATOM     26  C   UNL     1       0.040  -2.771  -0.012  0.00  0.00    -0.041 A 
ATOM     27  C   UNL     1      -1.168  -2.098   0.004  0.00  0.00    +0.023 A 
ATOM     28  C   UNL     1      -1.190  -0.716   0.015  0.00  0.00    +0.060 A 
ATOM     29 BR   UNL     1      -2.841   0.205   0.043  0.00  0.00    -0.047 Br
BRANCH  26  30
ATOM     30  C   UNL     1       0.061  -4.278  -0.019  0.00  0.00    -0.013 C 
ATOM     31  C   UNL     1       0.802  -4.783   1.220  0.00  0.00    +0.015 C 
ATOM     32  C   UNL     1      -1.374  -4.808  -0.007  0.00  0.00    +0.015 C 
ATOM     33  C   UNL     1       0.777  -4.771  -1.278  0.00  0.00    +0.015 C 
ENDBRANCH  26  30
ENDBRANCH  22  23
ENDBRANCH  21  22
ENDBRANCH  20  21
ENDBRANCH  19  20
ENDBRANCH   2  19
TORSDOF 10
