REMARK  Name = ZINC02621492
REMARK  10 active torsions:
REMARK  status: ('A' for Active; 'I' for Inactive)
REMARK    1  A    between atoms: C_1  and  C_2
REMARK    2  A    between atoms: C_5  and  S_9
REMARK    3  A    between atoms: C_7  and  C_8
REMARK    4  A    between atoms: S_9  and  N_12
REMARK    5  A    between atoms: N_12  and  C_13
REMARK    6  A    between atoms: C_13  and  C_14
REMARK    7  A    between atoms: N_16  and  N_17
REMARK    8  A    between atoms: C_18  and  C_20
REMARK    9  A    between atoms: C_20  and  O_21
REMARK   10  A    between atoms: O_21  and  C_22
REMARK                            x       y       z     vdW  Elec       q    Type
REMARK                         _______ _______ _______ _____ _____    ______ ____
ROOT
ATOM      1  C   UNL     1       4.127   8.655   0.009  0.00  0.00    +0.245 C 
ATOM      2  O   UNL     1       5.253   8.205  -0.004  0.00  0.00    -0.273 OA
ATOM      3  N   UNL     1       3.068   7.821   0.015  0.00  0.00    -0.233 N 
ATOM      4  H   UNL     1       2.168   8.181   0.025  0.00  0.00    +0.173 HD
ENDROOT
BRANCH   3   5
ATOM      5  N   UNL     1       3.268   6.434   0.005  0.00  0.00    -0.232 N 
ATOM      6  C   UNL     1       2.209   5.601   0.011  0.00  0.00    +0.267 C 
ATOM      7  O   UNL     1       1.083   6.051   0.024  0.00  0.00    -0.271 OA
ATOM      8  H   UNL     1       4.169   6.074  -0.005  0.00  0.00    +0.173 HD
BRANCH   6   9
ATOM      9  C   UNL     1       2.425   4.109   0.001  0.00  0.00    +0.326 C 
BRANCH   9  10
ATOM     10  O   UNL     1       1.159   3.445   0.009  0.00  0.00    -0.483 OA
BRANCH  10  11
ATOM     11  C   UNL     1       1.176   2.086   0.002  0.00  0.00    +0.121 A 
ATOM     12  C   UNL     1      -0.017   1.377   0.010  0.00  0.00    +0.047 A 
ATOM     13  C   UNL     1       0.002  -0.004   0.002  0.00  0.00    +0.019 A 
ATOM     14  C   UNL     1       1.209  -0.680  -0.013  0.00  0.00    +0.018 A 
ATOM     15  C   UNL     1       2.399   0.025  -0.020  0.00  0.00    +0.019 A 
ATOM     16  C   UNL     1       2.385   1.406  -0.013  0.00  0.00    +0.047 A 
ATOM     17 BR   UNL     1       1.232  -2.571  -0.022  0.00  0.00    -0.050 Br
ENDBRANCH  10  11
ENDBRANCH   9  10
ENDBRANCH   6   9
ENDBRANCH   3   5
BRANCH   1  18
ATOM     18  C   UNL     1       3.912  10.146   0.019  0.00  0.00    +0.203 C 
BRANCH  18  19
ATOM     19  N   UNL     1       5.209  10.827   0.011  0.00  0.00    -0.181 NA
ATOM     20  H   UNL     1       6.018  10.333   0.217  0.00  0.00    +0.149 HD
BRANCH  19  21
ATOM     21  S   UNL     1       5.295  12.440  -0.353  0.00  0.00    +0.059 S 
ATOM     22  O   UNL     1       6.664  12.807  -0.253  0.00  0.00    -0.153 OA
ATOM     23  O   UNL     1       4.541  12.630  -1.542  0.00  0.00    -0.153 OA
BRANCH  21  28
ATOM     24  C   UNL     1       2.390  15.412   4.022  0.00  0.00    +0.044 C 
ATOM     25  C   UNL     1       3.116  14.670   2.929  0.00  0.00    -0.047 A 
ATOM     26  C   UNL     1       2.428  14.244   1.808  0.00  0.00    +0.005 A 
ATOM     27  C   UNL     1       3.094  13.568   0.803  0.00  0.00    +0.029 A 
ATOM     28  C   UNL     1       4.447  13.308   0.925  0.00  0.00    +0.106 A 
ATOM     29  C   UNL     1       5.135  13.734   2.046  0.00  0.00    +0.032 A 
ATOM     30  C   UNL     1       4.469  14.415   3.048  0.00  0.00    -0.046 A 
ATOM     31  C   UNL     1       5.219  14.879   4.270  0.00  0.00    +0.044 C 
ENDBRANCH  21  28
ENDBRANCH  19  21
ENDBRANCH  18  19
ENDBRANCH   1  18
TORSDOF 8
