REMARK  Name = ZINC44707847
REMARK  9 active torsions:
REMARK  status: ('A' for Active; 'I' for Inactive)
REMARK    1  A    between atoms: C_1  and  C_2
REMARK    2  A    between atoms: C_8  and  C_12
REMARK    3  A    between atoms: C_12  and  C_13
REMARK    4  A    between atoms: C_13  and  N_14
REMARK    5  A    between atoms: C_15  and  C_17
REMARK    6  A    between atoms: C_28  and  C_30
REMARK    7  A    between atoms: C_31  and  C_41
REMARK    8  A    between atoms: C_34  and  C_35
REMARK    9  A    between atoms: C_37  and  C_40
REMARK                            x       y       z     vdW  Elec       q    Type
REMARK                         _______ _______ _______ _____ _____    ______ ____
ROOT
ATOM      1  C   UNL     1      -2.531  -2.013   7.793  0.00  0.00    +0.100 C 
ATOM      2  C   UNL     1      -1.673  -0.774   8.135  0.00  0.00    +0.121 C 
ATOM      3  N   UNL     1      -2.642   0.344   8.209  0.00  0.00    -0.296 N 
ATOM      4  C   UNL     1      -3.830  -0.242   8.874  0.00  0.00    +0.115 C 
ATOM      5  C   UNL     1      -3.945  -1.661   8.283  0.00  0.00    -0.004 C 
ATOM      6  C   UNL     1      -4.926  -1.666   7.114  0.00  0.00    -0.010 C 
ATOM      7  C   UNL     1      -6.335  -1.369   7.635  0.00  0.00    -0.082 C 
ATOM      8  N   UNL     1      -6.717  -2.383   8.624  0.00  0.00    +0.379 N 
ATOM      9  C   UNL     1      -5.824  -2.310   9.787  0.00  0.00    -0.082 C 
ATOM     10  C   UNL     1      -4.394  -2.646   9.358  0.00  0.00    -0.010 C 
ATOM     11  C   UNL     1      -2.480   1.608   7.771  0.00  0.00    +0.252 C 
ATOM     12  O   UNL     1      -3.377   2.418   7.906  0.00  0.00    -0.270 OA
ATOM     13  H   UNL     1      -7.668  -2.221   8.921  0.00  0.00    -0.086 HD
ATOM     14  H   UNL     1      -6.649  -3.300   8.208  0.00  0.00    -0.086 HD
ENDROOT
BRANCH  11  15
ATOM     15  C   UNL     1      -1.216   2.008   7.129  0.00  0.00    +0.108 A 
ATOM     16  C   UNL     1      -0.920   1.944   5.744  0.00  0.00    +0.093 A 
ATOM     17  N   UNL     1       0.290   2.384   5.568  0.00  0.00    -0.082 NA
ATOM     18  O   UNL     1       0.831   2.751   6.822  0.00  0.00    -0.352 OA
ATOM     19  C   UNL     1      -0.097   2.524   7.765  0.00  0.00    +0.201 A 
ATOM     20  C   UNL     1      -1.848   1.451   4.664  0.00  0.00    +0.070 C 
BRANCH  19  21
ATOM     21  C   UNL     1       0.049   2.775   9.215  0.00  0.00    +0.152 A 
ATOM     22  C   UNL     1       1.193   3.307   9.861  0.00  0.00    +0.079 A 
ATOM     23  C   UNL     1       0.931   3.381  11.177  0.00  0.00    +0.135 A 
ATOM     24  O   UNL     1      -0.313   2.924  11.386  0.00  0.00    -0.359 OA
ATOM     25  N   UNL     1      -0.861   2.549  10.135  0.00  0.00    -0.075 NA
ATOM     26  C   UNL     1       1.874   3.890  12.237  0.00  0.00    +0.089 C 
ENDBRANCH  19  21
ENDBRANCH  11  15
BRANCH   1  28
ATOM     27  N   UNL     1      -2.786  -3.487   5.823  0.00  0.00    -0.315 N 
ATOM     28  C   UNL     1      -2.535  -2.253   6.305  0.00  0.00    +0.218 C 
ATOM     29  O   UNL     1      -2.313  -1.337   5.542  0.00  0.00    -0.275 OA
ATOM     30  H   UNL     1      -2.963  -4.220   6.433  0.00  0.00    +0.149 HD
BRANCH  27  31
ATOM     31  C   UNL     1      -2.790  -3.721   4.377  0.00  0.00    +0.109 C 
BRANCH  31  32
ATOM     32  C   UNL     1      -3.099  -5.193   4.099  0.00  0.00    +0.056 C 
BRANCH  32  40
ATOM     33  C   UNL     1       1.758  -6.281   1.263  0.00  0.00    +0.044 C 
ATOM     34  C   UNL     1       0.282  -6.135   0.992  0.00  0.00    -0.050 A 
ATOM     35  C   UNL     1      -0.198  -6.283  -0.302  0.00  0.00    +0.005 A 
ATOM     36  C   UNL     1      -1.543  -6.153  -0.571  0.00  0.00    +0.026 A 
ATOM     37  C   UNL     1      -2.430  -5.870   0.462  0.00  0.00    +0.047 A 
ATOM     38  C   UNL     1      -1.938  -5.721   1.772  0.00  0.00    +0.003 A 
ATOM     39  C   UNL     1      -0.572  -5.862   2.023  0.00  0.00    +0.013 A 
ATOM     40  C   UNL     1      -3.104  -5.434   2.611  0.00  0.00    -0.021 A 
ATOM     41  C   UNL     1      -4.176  -5.426   1.805  0.00  0.00    +0.087 A 
ATOM     42  N   UNL     1      -3.793  -5.684   0.517  0.00  0.00    -0.360 N 
ATOM     43  H   UNL     1      -4.393  -5.731  -0.244  0.00  0.00    +0.165 HD
ENDBRANCH  32  40
ENDBRANCH  31  32
ENDBRANCH  27  31
ENDBRANCH   1  28
TORSDOF 6
