REMARK  Name = ZINC34773093
REMARK  9 active torsions:
REMARK  status: ('A' for Active; 'I' for Inactive)
REMARK    1  A    between atoms: C_1  and  C_2
REMARK    2  A    between atoms: C_2  and  S_3
REMARK    3  A    between atoms: S_3  and  C_4
REMARK    4  A    between atoms: C_11  and  N_13
REMARK    5  A    between atoms: N_13  and  C_14
REMARK    6  A    between atoms: C_17  and  O_20
REMARK    7  A    between atoms: O_20  and  C_21
REMARK    8  A    between atoms: C_23  and  C_26
REMARK    9  A    between atoms: C_23  and  C_27
REMARK                            x       y       z     vdW  Elec       q    Type
REMARK                         _______ _______ _______ _____ _____    ______ ____
ROOT
ATOM      1  C   UNL     1       1.034  -2.367  -1.226  0.00  0.00    +0.191 A 
ATOM      2  N   UNL     1       1.404  -3.069  -2.275  0.00  0.00    -0.221 NA
ATOM      3  C   UNL     1       1.175  -4.405  -2.347  0.00  0.00    +0.090 A 
ATOM      4  C   UNL     1       1.508  -5.292  -3.400  0.00  0.00    +0.015 A 
ATOM      5  C   UNL     1       1.179  -6.599  -3.251  0.00  0.00    +0.001 A 
ATOM      6  S   UNL     1       0.396  -6.689  -1.665  0.00  0.00    -0.088 S 
ATOM      7  C   UNL     1       0.524  -4.973  -1.234  0.00  0.00    +0.078 A 
ATOM      8  C   UNL     1       0.149  -4.201  -0.147  0.00  0.00    +0.142 A 
ATOM      9  N   UNL     1       0.425  -2.897  -0.172  0.00  0.00    -0.206 NA
ATOM     10  C   UNL     1       1.437  -7.694  -4.237  0.00  0.00    +0.077 C 
ATOM     11  C   UNL     1       1.810  -7.036  -5.577  0.00  0.00    +0.069 C 
ATOM     12  O   UNL     1       2.752  -5.988  -5.328  0.00  0.00    -0.369 OA
ATOM     13  C   UNL     1       2.214  -4.836  -4.675  0.00  0.00    +0.198 C 
ATOM     14  C   UNL     1       0.554  -6.452  -6.228  0.00  0.00    +0.041 C 
ATOM     15  C   UNL     1       2.435  -8.079  -6.505  0.00  0.00    +0.041 C 
ENDROOT
BRANCH   8  16
ATOM     16  N   UNL     1      -0.490  -4.771   0.942  0.00  0.00    -0.298 N 
ATOM     17  H   UNL     1      -0.607  -5.733   0.987  0.00  0.00    +0.154 HD
BRANCH  16  18
ATOM     18  C   UNL     1      -0.969  -3.959   1.977  0.00  0.00    +0.033 A 
ATOM     19  C   UNL     1      -1.506  -2.711   1.689  0.00  0.00    +0.027 A 
ATOM     20  C   UNL     1      -1.978  -1.910   2.710  0.00  0.00    +0.047 A 
ATOM     21  C   UNL     1      -1.916  -2.352   4.023  0.00  0.00    +0.120 A 
ATOM     22  C   UNL     1      -1.379  -3.598   4.312  0.00  0.00    +0.047 A 
ATOM     23  C   UNL     1      -0.912  -4.402   3.291  0.00  0.00    +0.027 A 
BRANCH  21  24
ATOM     24  O   UNL     1      -2.381  -1.563   5.029  0.00  0.00    -0.495 OA
ATOM     25  C   UNL     1      -2.285  -2.081   6.357  0.00  0.00    +0.277 C 
ENDBRANCH  21  24
ENDBRANCH  16  18
ENDBRANCH   8  16
BRANCH   1  26
ATOM     26  S   UNL     1       1.371  -0.638  -1.216  0.00  0.00    -0.086 S 
BRANCH  26  28
ATOM     27  C   UNL     1       0.950   1.433   0.521  0.00  0.00    +0.016 C 
ATOM     28  C   UNL     1       0.719  -0.073   0.380  0.00  0.00    +0.074 C 
ENDBRANCH  26  28
ENDBRANCH   1  26
TORSDOF 5
