REMARK  Name = ZINC67479514
REMARK  9 active torsions:
REMARK  status: ('A' for Active; 'I' for Inactive)
REMARK    1  A    between atoms: C_4  and  C_7
REMARK    2  A    between atoms: C_7  and  C_8
REMARK    3  A    between atoms: C_8  and  C_9
REMARK    4  A    between atoms: C_9  and  C_10
REMARK    5  A    between atoms: N_12  and  N_13
REMARK    6  A    between atoms: N_16  and  C_17
REMARK    7  A    between atoms: C_17  and  C_18
REMARK    8  A    between atoms: C_18  and  C_20
REMARK    9  A    between atoms: C_18  and  O_30
REMARK                            x       y       z     vdW  Elec       q    Type
REMARK                         _______ _______ _______ _____ _____    ______ ____
ROOT
ATOM      1  N   UNL     1       7.540  -2.845   4.342  0.00  0.00    -0.218 N 
ATOM      2  C   UNL     1       8.699  -3.493   4.573  0.00  0.00    +0.316 C 
ATOM      3  O   UNL     1       9.065  -3.697   5.715  0.00  0.00    -0.251 OA
ATOM      4  N   UNL     1       9.453  -3.916   3.539  0.00  0.00    -0.295 N 
ATOM      5  H   UNL     1       6.998  -2.541   5.087  0.00  0.00    +0.174 HD
ATOM      6  H   UNL     1       9.161  -3.753   2.628  0.00  0.00    +0.150 HD
ENDROOT
BRANCH   1   9
ATOM      7  C   UNL     1       5.960  -1.962   2.796  0.00  0.00    +0.229 C 
ATOM      8  O   UNL     1       5.282  -1.582   3.727  0.00  0.00    -0.274 OA
ATOM      9  N   UNL     1       7.119  -2.611   3.027  0.00  0.00    -0.233 N 
ATOM     10  H   UNL     1       7.661  -2.915   2.283  0.00  0.00    +0.173 HD
BRANCH   7  11
ATOM     11  C   UNL     1       5.507  -1.710   1.381  0.00  0.00    +0.097 C 
BRANCH  11  12
ATOM     12  C   UNL     1       4.171  -0.963   1.399  0.00  0.00    +0.014 C 
BRANCH  12  13
ATOM     13  C   UNL     1       3.711  -0.707  -0.038  0.00  0.00    +0.035 C 
BRANCH  13  17
ATOM     14  C   UNL     1      -0.017   1.378   0.010  0.00  0.00    +0.000 A 
ATOM     15  C   UNL     1       1.171   2.086   0.002  0.00  0.00    +0.000 A 
ATOM     16  C   UNL     1       2.377   1.411  -0.013  0.00  0.00    +0.003 A 
ATOM     17  C   UNL     1       2.396   0.029  -0.020  0.00  0.00    -0.047 A 
ATOM     18  C   UNL     1       1.208  -0.679  -0.012  0.00  0.00    +0.003 A 
ATOM     19  C   UNL     1       0.002  -0.004   0.002  0.00  0.00    +0.000 A 
ENDBRANCH  13  17
ENDBRANCH  12  13
ENDBRANCH  11  12
ENDBRANCH   7  11
ENDBRANCH   1   9
BRANCH   4  20
ATOM     20  C   UNL     1      10.712  -4.620   3.790  0.00  0.00    +0.142 C 
BRANCH  20  21
ATOM     21  C   UNL     1      11.366  -4.987   2.456  0.00  0.00    +0.162 C 
BRANCH  21  22
ATOM     22  C   UNL     1      12.598  -5.817   2.712  0.00  0.00    -0.017 A 
ATOM     23  C   UNL     1      13.782  -5.189   3.091  0.00  0.00    +0.007 A 
ATOM     24  C   UNL     1      14.912  -5.910   3.329  0.00  0.00    +0.009 A 
ATOM     25  C   UNL     1      14.887  -7.308   3.192  0.00  0.00    -0.018 A 
ATOM     26  C   UNL     1      16.034  -8.085   3.429  0.00  0.00    +0.008 A 
ATOM     27  C   UNL     1      15.972  -9.438   3.287  0.00  0.00    +0.001 A 
ATOM     28  C   UNL     1      14.787 -10.066   2.908  0.00  0.00    +0.001 A 
ATOM     29  C   UNL     1      13.657  -9.345   2.669  0.00  0.00    +0.008 A 
ATOM     30  C   UNL     1      13.682  -7.947   2.806  0.00  0.00    -0.018 A 
ATOM     31  C   UNL     1      12.534  -7.170   2.574  0.00  0.00    +0.014 A 
ENDBRANCH  21  22
BRANCH  21  32
ATOM     32  O   UNL     1      11.732  -3.793   1.761  0.00  0.00    -0.386 OA
ATOM     33  H   UNL     1      12.359  -3.235   2.241  0.00  0.00    +0.210 HD
ENDBRANCH  21  32
ENDBRANCH  20  21
ENDBRANCH   4  20
TORSDOF 9
