REMARK  Name = ZINC11527358
REMARK  5 active torsions:
REMARK  status: ('A' for Active; 'I' for Inactive)
REMARK    1  A    between atoms: C_1  and  C_2
REMARK    2  A    between atoms: C_3  and  O_25
REMARK    3  A    between atoms: C_12  and  C_13
REMARK    4  A    between atoms: C_13  and  S_14
REMARK    5  A    between atoms: S_14  and  C_15
REMARK                            x       y       z     vdW  Elec       q    Type
REMARK                         _______ _______ _______ _____ _____    ______ ____
ROOT
ATOM      1  C   UNL     1      -0.018   1.503   0.010  0.00  0.00    +0.051 C 
ATOM      2  C   UNL     1       0.002  -0.004   0.002  0.00  0.00    +0.034 A 
ATOM      3  C   UNL     1       0.006  -0.693  -1.200  0.00  0.00    +0.123 A 
ATOM      4  C   UNL     1       0.024  -2.086  -1.219  0.00  0.00    +0.046 A 
ATOM      5  C   UNL     1       0.039  -2.792  -0.051  0.00  0.00    +0.015 A 
ATOM      6  C   UNL     1       0.036  -2.113   1.173  0.00  0.00    +0.022 A 
ATOM      7  C   UNL     1       0.023  -0.706   1.198  0.00  0.00    +0.146 A 
ATOM      8  O   UNL     1       0.025  -0.054   2.380  0.00  0.00    -0.422 OA
ATOM      9  C   UNL     1       0.045  -0.719   3.546  0.00  0.00    +0.338 A 
ATOM     10  O   UNL     1       0.046  -0.089   4.588  0.00  0.00    -0.245 OA
ATOM     11  C   UNL     1       0.065  -2.128   3.595  0.00  0.00    +0.097 A 
ATOM     12  C   UNL     1       0.051  -2.845   2.441  0.00  0.00    -0.020 A 
ENDROOT
BRANCH   3  13
ATOM     13  O   UNL     1      -0.009  -0.004  -2.370  0.00  0.00    -0.506 OA
ATOM     14  H   UNL     1       0.870   0.207  -2.713  0.00  0.00    +0.292 HD
ENDBRANCH   3  13
BRANCH  12  15
ATOM     15  C   UNL     1       0.071  -4.351   2.466  0.00  0.00    +0.113 C 
BRANCH  15  16
ATOM     16  S   UNL     1      -1.575  -4.984   2.040  0.00  0.00    -0.083 S 
BRANCH  16  17
ATOM     17  C   UNL     1      -1.390  -6.735   2.111  0.00  0.00    +0.168 A 
ATOM     18  N   UNL     1      -0.281  -7.364   2.417  0.00  0.00    -0.222 NA
ATOM     19  C   UNL     1      -0.491  -8.705   2.377  0.00  0.00    +0.091 A 
ATOM     20  C   UNL     1       0.330  -9.812   2.611  0.00  0.00    +0.050 A 
ATOM     21  C   UNL     1      -0.186 -11.084   2.488  0.00  0.00    +0.043 A 
ATOM     22  C   UNL     1      -1.514 -11.274   2.134  0.00  0.00    +0.022 A 
ATOM     23  C   UNL     1      -2.337 -10.191   1.900  0.00  0.00    +0.029 A 
ATOM     24  C   UNL     1      -1.834  -8.904   2.019  0.00  0.00    +0.067 A 
ATOM     25  N   UNL     1      -2.382  -7.641   1.862  0.00  0.00    -0.333 N 
ATOM     26 CL   UNL     1       0.834 -12.459   2.778  0.00  0.00    -0.083 Cl
ATOM     27  H   UNL     1      -3.299  -7.437   1.618  0.00  0.00    +0.168 HD
ENDBRANCH  16  17
ENDBRANCH  15  16
ENDBRANCH  12  15
TORSDOF 4
