REMARK  Name = ZINC01298027
REMARK  5 active torsions:
REMARK  status: ('A' for Active; 'I' for Inactive)
REMARK    1  A    between atoms: C_4  and  C_7
REMARK    2  A    between atoms: C_7  and  C_9
REMARK    3  A    between atoms: C_7  and  N_17
REMARK    4  A    between atoms: C_14  and  O_15
REMARK    5  A    between atoms: C_21  and  C_23
REMARK                            x       y       z     vdW  Elec       q    Type
REMARK                         _______ _______ _______ _____ _____    ______ ____
ROOT
ATOM      1  C   UNL     1       0.002  -0.004   0.002  0.00  0.00    +0.139 C 
ENDROOT
BRANCH   1   2
ATOM      2  N   UNL     1      -0.018   1.461   0.010  0.00  0.00    -0.288 N 
ATOM      3  C   UNL     1      -1.194   2.119   0.019  0.00  0.00    +0.307 C 
ATOM      4  O   UNL     1      -2.238   1.497   0.021  0.00  0.00    -0.252 OA
ATOM      5  N   UNL     1      -1.212   3.466   0.027  0.00  0.00    -0.233 N 
ATOM      6  C   UNL     1      -2.389   4.124   0.036  0.00  0.00    +0.325 C 
ATOM      7  O   UNL     1      -3.430   3.504   0.037  0.00  0.00    -0.266 OA
ATOM      8  H   UNL     1       0.816   1.957   0.005  0.00  0.00    +0.151 HD
ATOM      9  H   UNL     1      -0.379   3.963   0.025  0.00  0.00    +0.159 HD
BRANCH   6  10
ATOM     10  C   UNL     1      -2.409   5.631   0.044  0.00  0.00    +0.470 C 
ATOM     11  F   UNL     1      -3.734   6.080   0.053  0.00  0.00    -0.162 F 
ATOM     12  F   UNL     1      -1.750   6.100   1.186  0.00  0.00    -0.162 F 
ATOM     13  F   UNL     1      -1.761   6.113  -1.099  0.00  0.00    -0.162 F 
ENDBRANCH   6  10
ENDBRANCH   1   2
BRANCH   1  14
ATOM     14  C   UNL     1       1.291  -0.486  -0.613  0.00  0.00    +0.020 A 
ATOM     15  C   UNL     1       2.412   0.321  -0.590  0.00  0.00    +0.029 A 
ATOM     16  C   UNL     1       3.595  -0.120  -1.155  0.00  0.00    +0.042 A 
ATOM     17  C   UNL     1       3.658  -1.371  -1.744  0.00  0.00    +0.023 A 
ATOM     18  C   UNL     1       2.539  -2.180  -1.769  0.00  0.00    +0.047 A 
ATOM     19  C   UNL     1       1.353  -1.741  -1.199  0.00  0.00    +0.122 A 
ATOM     20 CL   UNL     1       5.003   0.896  -1.124  0.00  0.00    -0.084 Cl
BRANCH  19  21
ATOM     21  O   UNL     1       0.253  -2.539  -1.218  0.00  0.00    -0.506 OA
ATOM     22  H   UNL     1      -0.305  -2.420  -2.000  0.00  0.00    +0.292 HD
ENDBRANCH  19  21
ENDBRANCH   1  14
BRANCH   1  26
ATOM     23  C   UNL     1      -0.291  -1.455   4.009  0.00  0.00    +0.000 A 
ATOM     24  C   UNL     1      -0.976  -2.092   2.992  0.00  0.00    +0.000 A 
ATOM     25  C   UNL     1      -0.880  -1.623   1.695  0.00  0.00    +0.006 A 
ATOM     26  C   UNL     1      -0.101  -0.516   1.416  0.00  0.00    -0.023 A 
ATOM     27  C   UNL     1       0.587   0.119   2.433  0.00  0.00    +0.006 A 
ATOM     28  C   UNL     1       0.489  -0.348   3.730  0.00  0.00    +0.000 A 
ENDBRANCH   1  26
TORSDOF 5
