REMARK  Name = ZINC10757485
REMARK  9 active torsions:
REMARK  status: ('A' for Active; 'I' for Inactive)
REMARK    1  A    between atoms: C_1  and  C_2
REMARK    2  A    between atoms: N_11  and  C_15
REMARK    3  A    between atoms: C_15  and  C_16
REMARK    4  A    between atoms: C_16  and  O_18
REMARK    5  A    between atoms: O_18  and  C_19
REMARK    6  A    between atoms: C_19  and  C_20
REMARK    7  A    between atoms: N_22  and  C_23
REMARK    8  A    between atoms: C_28  and  S_29
REMARK    9  A    between atoms: S_29  and  C_30
REMARK                            x       y       z     vdW  Elec       q    Type
REMARK                         _______ _______ _______ _____ _____    ______ ____
ROOT
ATOM      1  O   UNL     1      -1.789  11.921   0.050  0.00  0.00    -0.454 OA
ENDROOT
BRANCH   1   2
ATOM      2  C   UNL     1      -1.098  13.071   0.066  0.00  0.00    +0.326 C 
ATOM      3  O   UNL     1       0.110  13.051   0.033  0.00  0.00    -0.249 OA
BRANCH   2   4
ATOM      4  C   UNL     1      -1.828  14.388   0.124  0.00  0.00    +0.238 C 
BRANCH   4  14
ATOM      5  C   UNL     1      -1.285  18.723   0.881  0.00  0.00    +0.010 C 
ATOM      6  C   UNL     1       0.163  18.465   1.300  0.00  0.00    +0.018 C 
ATOM      7  C   UNL     1       0.263  18.479   2.828  0.00  0.00    +0.006 C 
ATOM      8  C   UNL     1       1.708  18.201   3.246  0.00  0.00    +0.000 C 
ATOM      9  C   UNL     1       2.133  16.825   2.729  0.00  0.00    +0.003 C 
ATOM     10  C   UNL     1       2.042  16.804   1.202  0.00  0.00    +0.035 C 
ATOM     11  C   UNL     1       0.611  17.107   0.771  0.00  0.00    +0.115 C 
ATOM     12  C   UNL     1      -0.329  16.023   1.249  0.00  0.00    +0.247 C 
ATOM     13  O   UNL     1      -0.558  15.704   2.396  0.00  0.00    -0.273 OA
ATOM     14  N   UNL     1      -0.857  15.485   0.130  0.00  0.00    -0.213 N 
ATOM     15  C   UNL     1      -0.388  16.081  -0.973  0.00  0.00    +0.310 C 
ATOM     16  O   UNL     1      -0.719  15.773  -2.100  0.00  0.00    -0.252 OA
ATOM     17  N   UNL     1       0.493  17.061  -0.692  0.00  0.00    -0.285 N 
ATOM     18  H   UNL     1       0.958  17.624  -1.330  0.00  0.00    +0.151 HD
ENDBRANCH   4  14
ENDBRANCH   2   4
ENDBRANCH   1   2
BRANCH   1  19
ATOM     19  C   UNL     1      -1.020  10.690  -0.006  0.00  0.00    +0.328 C 
BRANCH  19  20
ATOM     20  C   UNL     1      -1.959   9.511  -0.016  0.00  0.00    +0.255 C 
ATOM     21  O   UNL     1      -3.158   9.690   0.021  0.00  0.00    -0.272 OA
ATOM     22  N   UNL     1      -1.466   8.258  -0.066  0.00  0.00    -0.282 N 
ATOM     23  H   UNL     1      -0.508   8.115  -0.128  0.00  0.00    +0.155 HD
BRANCH  22  24
ATOM     24  C   UNL     1      -2.337   7.161  -0.028  0.00  0.00    +0.047 A 
ATOM     25  C   UNL     1      -3.674   7.323  -0.355  0.00  0.00    +0.024 A 
ATOM     26  C   UNL     1      -4.532   6.239  -0.317  0.00  0.00    +0.002 A 
ATOM     27  C   UNL     1      -4.060   4.991   0.048  0.00  0.00    +0.001 A 
ATOM     28  C   UNL     1      -2.727   4.819   0.370  0.00  0.00    +0.017 A 
ATOM     29  C   UNL     1      -1.860   5.902   0.339  0.00  0.00    +0.034 A 
BRANCH  29  30
ATOM     30  S   UNL     1      -0.162   5.687   0.756  0.00  0.00    -0.088 S 
BRANCH  30  31
ATOM     31  C   UNL     1      -0.039   6.330   2.391  0.00  0.00    +0.013 A 
ATOM     32  C   UNL     1       1.172   6.277   3.072  0.00  0.00    +0.015 A 
ATOM     33  C   UNL     1       1.264   6.782   4.354  0.00  0.00    +0.001 A 
ATOM     34  C   UNL     1       0.153   7.340   4.961  0.00  0.00    +0.000 A 
ATOM     35  C   UNL     1      -1.054   7.389   4.289  0.00  0.00    +0.001 A 
ATOM     36  C   UNL     1      -1.153   6.892   3.004  0.00  0.00    +0.015 A 
ENDBRANCH  30  31
ENDBRANCH  29  30
ENDBRANCH  22  24
ENDBRANCH  19  20
ENDBRANCH   1  19
TORSDOF 8
