REMARK  Name = ZINC13111091
REMARK  7 active torsions:
REMARK  status: ('A' for Active; 'I' for Inactive)
REMARK    1  A    between atoms: C_1  and  O_2
REMARK    2  A    between atoms: O_2  and  C_3
REMARK    3  A    between atoms: C_6  and  C_9
REMARK    4  A    between atoms: C_11  and  C_15
REMARK    5  A    between atoms: C_17  and  O_22
REMARK    6  A    between atoms: C_20  and  O_21
REMARK    7  A    between atoms: O_22  and  C_23
REMARK                            x       y       z     vdW  Elec       q    Type
REMARK                         _______ _______ _______ _____ _____    ______ ____
ROOT
ATOM      1  C   UNL     1      -4.960  -2.618   0.035  0.00  0.00    +0.066 A 
ATOM      2  C   UNL     1      -5.161  -3.968   0.041  0.00  0.00    +0.058 A 
ATOM      3  C   UNL     1      -6.547  -4.196   0.049  0.00  0.00    +0.097 A 
ATOM      4  N   UNL     1      -7.158  -3.029   0.049  0.00  0.00    -0.173 NA
ATOM      5  N   UNL     1      -6.186  -2.021   0.046  0.00  0.00    -0.276 N 
ATOM      6  H   UNL     1      -6.355  -1.065   0.050  0.00  0.00    +0.189 HD
ENDROOT
BRANCH   1  10
ATOM      7  C   UNL     1      -1.200  -0.637   0.010  0.00  0.00    +0.120 A 
ATOM      8  C   UNL     1      -2.374   0.105   0.019  0.00  0.00    +0.046 A 
ATOM      9  C   UNL     1      -3.595  -0.534   0.028  0.00  0.00    +0.013 A 
ATOM     10  C   UNL     1      -3.651  -1.929   0.026  0.00  0.00    +0.000 A 
ATOM     11  C   UNL     1      -2.470  -2.671   0.016  0.00  0.00    +0.013 A 
ATOM     12  C   UNL     1      -1.252  -2.025   0.003  0.00  0.00    +0.046 A 
BRANCH   7  14
ATOM     13  C   UNL     1      -0.017   1.425   0.010  0.00  0.00    +0.277 C 
ATOM     14  O   UNL     1       0.002  -0.004   0.002  0.00  0.00    -0.495 OA
ENDBRANCH   7  14
ENDBRANCH   1  10
BRANCH   3  15
ATOM     15  C   UNL     1      -7.210  -5.523   0.056  0.00  0.00    +0.047 A 
ATOM     16  C   UNL     1      -8.600  -5.611   0.058  0.00  0.00    +0.059 A 
ATOM     17  C   UNL     1      -9.213  -6.852   0.064  0.00  0.00    +0.121 A 
ATOM     18  C   UNL     1      -8.445  -8.008   0.069  0.00  0.00    +0.049 A 
ATOM     19  C   UNL     1      -7.065  -7.927   0.067  0.00  0.00    +0.049 A 
ATOM     20  C   UNL     1      -6.442  -6.690   0.055  0.00  0.00    +0.126 A 
BRANCH  20  21
ATOM     21  O   UNL     1      -5.085  -6.612   0.047  0.00  0.00    -0.506 OA
ATOM     22  H   UNL     1      -4.687  -6.587   0.929  0.00  0.00    +0.292 HD
ENDBRANCH  20  21
BRANCH  17  23
ATOM     23  O   UNL     1     -10.570  -6.939   0.066  0.00  0.00    -0.495 OA
ATOM     24  C   UNL     1     -11.136  -8.251   0.073  0.00  0.00    +0.277 C 
ENDBRANCH  17  23
ENDBRANCH   3  15
TORSDOF 5
