REMARK  Name = ZINC04018823
REMARK  4 active torsions:
REMARK  status: ('A' for Active; 'I' for Inactive)
REMARK    1  A    between atoms: C_3  and  C_6
REMARK    2  A    between atoms: C_9  and  C_30
REMARK    3  A    between atoms: C_14  and  C_16
REMARK    4  A    between atoms: N_18  and  C_19
REMARK                            x       y       z     vdW  Elec       q    Type
REMARK                         _______ _______ _______ _____ _____    ______ ____
ROOT
ATOM      1  C   UNL     1       3.761   1.845  -0.024  0.00  0.00    +0.111 C 
ATOM      2  C   UNL     1       4.347   1.768   1.390  0.00  0.00    +0.063 C 
ATOM      3  C   UNL     1       4.262   0.329   1.912  0.00  0.00    +0.215 C 
ATOM      4  N   UNL     1       4.812  -0.576   0.899  0.00  0.00    -0.238 N 
ATOM      5  C   UNL     1       4.957  -0.243  -0.418  0.00  0.00    +0.119 A 
ATOM      6  C   UNL     1       5.492  -1.298  -1.062  0.00  0.00    +0.078 A 
ATOM      7  C   UNL     1       5.686  -2.326  -0.111  0.00  0.00    +0.149 A 
ATOM      8  N   UNL     1       5.273  -1.882   1.063  0.00  0.00    -0.164 NA
ATOM      9  N   UNL     1       4.581   1.010  -0.923  0.00  0.00    -0.322 N 
ATOM     10  H   UNL     1       4.843   1.311  -1.807  0.00  0.00    +0.148 HD
ENDROOT
BRANCH   1  13
ATOM     11  C   UNL     1      -0.016   1.351   0.009  0.00  0.00    +0.008 A 
ATOM     12  C   UNL     1       1.183   2.038   0.002  0.00  0.00    +0.013 A 
ATOM     13  C   UNL     1       2.343   1.336  -0.013  0.00  0.00    +0.010 A 
ATOM     14  S   UNL     1       1.754  -0.349  -0.017  0.00  0.00    -0.100 S 
ATOM     15  C   UNL     1       0.002  -0.004   0.002  0.00  0.00    +0.045 A 
ENDBRANCH   1  13
BRANCH   7  16
ATOM     16  C   UNL     1       6.250  -3.663  -0.383  0.00  0.00    +0.265 C 
ATOM     17  O   UNL     1       6.596  -3.959  -1.510  0.00  0.00    -0.268 OA
ATOM     18  N   UNL     1       6.381  -4.556   0.619  0.00  0.00    -0.304 N 
ATOM     19  H   UNL     1       6.105  -4.319   1.518  0.00  0.00    +0.150 HD
BRANCH  18  20
ATOM     20  C   UNL     1       6.941  -5.882   0.349  0.00  0.00    +0.036 C 
ATOM     21  C   UNL     1       8.361  -5.734  -0.202  0.00  0.00    +0.029 C 
ATOM     22  C   UNL     1       8.945  -7.120  -0.484  0.00  0.00    -0.008 C 
ATOM     23  C   UNL     1       8.984  -7.930   0.813  0.00  0.00    +0.007 C 
ATOM     24  C   UNL     1       7.565  -8.078   1.365  0.00  0.00    -0.008 C 
ATOM     25  C   UNL     1       6.980  -6.693   1.646  0.00  0.00    +0.029 C 
ATOM     26  C   UNL     1       6.691  -8.801   0.338  0.00  0.00    +0.007 C 
ATOM     27  C   UNL     1       6.653  -7.991  -0.960  0.00  0.00    -0.008 C 
ATOM     28  C   UNL     1       8.072  -7.843  -1.511  0.00  0.00    +0.007 C 
ATOM     29  C   UNL     1       6.068  -6.605  -0.678  0.00  0.00    +0.029 C 
ENDBRANCH  18  20
ENDBRANCH   7  16
BRANCH   3  30
ATOM     30  C   UNL     1       5.068   0.205   3.206  0.00  0.00    +0.412 C 
ATOM     31  F   UNL     1       4.547   1.079   4.166  0.00  0.00    -0.168 F 
ATOM     32  F   UNL     1       4.989  -1.109   3.681  0.00  0.00    -0.168 F 
ATOM     33  F   UNL     1       6.405   0.531   2.956  0.00  0.00    -0.168 F 
ENDBRANCH   3  30
TORSDOF 4
