REMARK  Name = ZINC21231164
REMARK  4 active torsions:
REMARK  status: ('A' for Active; 'I' for Inactive)
REMARK    1  A    between atoms: C_1  and  O_2
REMARK    2  A    between atoms: O_2  and  C_3
REMARK    3  A    between atoms: C_7  and  C_9
REMARK    4  A    between atoms: C_14  and  C_24
REMARK                            x       y       z     vdW  Elec       q    Type
REMARK                         _______ _______ _______ _____ _____    ______ ____
ROOT
ATOM      1  C   UNL     1       2.436   4.032  -0.257  0.00  0.00    +0.032 C 
ATOM      2  C   UNL     1       3.317   3.646  -1.443  0.00  0.00    +0.059 C 
ATOM      3  C   UNL     1       4.648   4.375  -1.357  0.00  0.00    +0.017 C 
ATOM      4  C   UNL     1       5.191   4.664  -0.162  0.00  0.00    +0.036 C 
ATOM      5  C   UNL     1       6.503   5.376   0.065  0.00  0.00    +0.138 C 
ATOM      6  N   UNL     1       7.320   5.524  -1.120  0.00  0.00    -0.331 N 
ATOM      7  C   UNL     1       6.894   6.304  -2.194  0.00  0.00    +0.049 A 
ATOM      8  C   UNL     1       7.533   7.487  -2.526  0.00  0.00    +0.025 A 
ATOM      9  C   UNL     1       7.008   8.285  -3.528  0.00  0.00    +0.002 A 
ATOM     10  C   UNL     1       5.856   7.907  -4.193  0.00  0.00    +0.002 A 
ATOM     11  C   UNL     1       5.228   6.713  -3.878  0.00  0.00    +0.025 A 
ATOM     12  C   UNL     1       5.762   5.906  -2.889  0.00  0.00    +0.052 A 
ATOM     13  N   UNL     1       5.211   4.674  -2.556  0.00  0.00    -0.316 N 
ATOM     14  C   UNL     1       4.517   4.309   1.030  0.00  0.00    +0.163 C 
ATOM     15  O   UNL     1       5.042   4.561   2.097  0.00  0.00    -0.292 OA
ATOM     16  C   UNL     1       3.178   3.635   1.025  0.00  0.00    +0.088 C 
ATOM     17  H   UNL     1       8.294   5.016  -1.183  0.00  0.00    +0.147 HD
ATOM     18  H   UNL     1       5.254   3.913  -3.349  0.00  0.00    +0.152 HD
ENDROOT
BRANCH   5  19
ATOM     19  C   UNL     1       6.212   6.747   0.619  0.00  0.00    +0.002 A 
ATOM     20  C   UNL     1       5.031   7.385   0.594  0.00  0.00    +0.089 A 
ATOM     21  N   UNL     1       5.149   8.609   1.194  0.00  0.00    -0.360 N 
ATOM     22  H   UNL     1       4.273   9.270   1.271  0.00  0.00    +0.165 HD
ATOM     23  C   UNL     1       6.444   8.797   1.623  0.00  0.00    +0.047 A 
ATOM     24  C   UNL     1       7.167   7.639   1.281  0.00  0.00    +0.005 A 
ATOM     25  C   UNL     1       8.523   7.547   1.597  0.00  0.00    +0.010 A 
ATOM     26  C   UNL     1       9.143   8.583   2.237  0.00  0.00    +0.001 A 
ATOM     27  C   UNL     1       8.435   9.728   2.575  0.00  0.00    +0.002 A 
ATOM     28  C   UNL     1       7.095   9.840   2.273  0.00  0.00    +0.026 A 
ENDBRANCH   5  19
BRANCH   1  33
ATOM     29  C   UNL     1      -1.271   3.325  -0.455  0.00  0.00    +0.120 A 
ATOM     30  C   UNL     1      -1.285   1.938  -0.484  0.00  0.00    +0.045 A 
ATOM     31  C   UNL     1      -0.097   1.236  -0.432  0.00  0.00    +0.004 A 
ATOM     32  C   UNL     1       1.106   1.914  -0.360  0.00  0.00    +0.004 A 
ATOM     33  C   UNL     1       1.123   3.296  -0.335  0.00  0.00    -0.040 A 
ATOM     34  C   UNL     1      -0.063   4.003  -0.383  0.00  0.00    +0.049 A 
BRANCH  29  36
ATOM     35  C   UNL     1      -3.644   3.255  -0.575  0.00  0.00    +0.277 C 
ATOM     36  O   UNL     1      -2.439   4.019  -0.502  0.00  0.00    -0.495 OA
ENDBRANCH  29  36
ENDBRANCH   1  33
TORSDOF 3
