REMARK  Name = ZINC36101846
REMARK  9 active torsions:
REMARK  status: ('A' for Active; 'I' for Inactive)
REMARK    1  A    between atoms: C_1  and  O_2
REMARK    2  A    between atoms: O_2  and  C_3
REMARK    3  A    between atoms: C_6  and  C_9
REMARK    4  A    between atoms: C_11  and  C_35
REMARK    5  A    between atoms: C_12  and  N_34
REMARK    6  A    between atoms: C_13  and  C_26
REMARK    7  A    between atoms: N_15  and  S_16
REMARK    8  A    between atoms: S_16  and  C_19
REMARK    9  A    between atoms: C_26  and  C_28
REMARK                            x       y       z     vdW  Elec       q    Type
REMARK                         _______ _______ _______ _____ _____    ______ ____
ROOT
ATOM      1  C   UNL     1      -4.784  -2.560   0.178  0.00  0.00    +0.153 C 
ATOM      2  C   UNL     1      -4.679  -2.889  -1.288  0.00  0.00    +0.071 C 
ATOM      3  C   UNL     1      -4.877  -4.205  -1.467  0.00  0.00    +0.044 C 
ATOM      4  C   UNL     1      -5.130  -4.862  -0.135  0.00  0.00    +0.196 C 
ATOM      5  N   UNL     1      -5.069  -3.811   0.892  0.00  0.00    -0.148 NA
ENDROOT
BRANCH   1   9
ATOM      6  C   UNL     1      -1.094  -0.908   1.563  0.00  0.00    +0.120 A 
ATOM      7  C   UNL     1      -2.169  -0.075   1.291  0.00  0.00    +0.046 A 
ATOM      8  C   UNL     1      -3.361  -0.611   0.844  0.00  0.00    +0.009 A 
ATOM      9  C   UNL     1      -3.482  -1.977   0.666  0.00  0.00    -0.023 A 
ATOM     10  C   UNL     1      -2.412  -2.809   0.937  0.00  0.00    +0.009 A 
ATOM     11  C   UNL     1      -1.216  -2.277   1.379  0.00  0.00    +0.046 A 
BRANCH   6  13
ATOM     12  C   UNL     1       0.134   1.036   2.170  0.00  0.00    +0.277 C 
ATOM     13  O   UNL     1       0.080  -0.382   2.003  0.00  0.00    -0.495 OA
ENDBRANCH   6  13
ENDBRANCH   1   9
BRANCH   5  14
ATOM     14  S   UNL     1      -5.278  -3.998   2.525  0.00  0.00    +0.063 S 
ATOM     15  O   UNL     1      -4.974  -5.355   2.820  0.00  0.00    -0.153 OA
ATOM     16  O   UNL     1      -4.604  -2.913   3.148  0.00  0.00    -0.153 OA
BRANCH  14  17
ATOM     17  C   UNL     1      -6.995  -3.783   2.858  0.00  0.00    +0.106 A 
ATOM     18  C   UNL     1      -7.492  -2.525   3.141  0.00  0.00    +0.030 A 
ATOM     19  C   UNL     1      -8.838  -2.355   3.402  0.00  0.00    +0.022 A 
ATOM     20  C   UNL     1      -9.689  -3.446   3.381  0.00  0.00    +0.041 A 
ATOM     21  C   UNL     1      -9.192  -4.705   3.098  0.00  0.00    +0.022 A 
ATOM     22  C   UNL     1      -7.846  -4.873   2.831  0.00  0.00    +0.030 A 
ATOM     23 CL   UNL     1     -11.380  -3.234   3.710  0.00  0.00    -0.084 Cl
ENDBRANCH  14  17
ENDBRANCH   5  14
BRANCH   3  24
ATOM     24  N   UNL     1      -4.852  -4.852  -2.675  0.00  0.00    -0.359 N 
ATOM     25  H   UNL     1      -4.767  -4.342  -3.496  0.00  0.00    +0.142 HD
ATOM     26  H   UNL     1      -4.921  -5.819  -2.710  0.00  0.00    +0.142 HD
ENDBRANCH   3  24
BRANCH   4  27
ATOM     27  C   UNL     1      -4.074  -5.904   0.131  0.00  0.00    +0.187 C 
ATOM     28  O   UNL     1      -3.135  -5.646   0.853  0.00  0.00    -0.290 OA
BRANCH  27  29
ATOM     29  C   UNL     1      -4.183  -7.235  -0.487  0.00  0.00    +0.019 A 
ATOM     30  C   UNL     1      -5.322  -7.579  -1.221  0.00  0.00    +0.011 A 
ATOM     31  C   UNL     1      -5.417  -8.828  -1.797  0.00  0.00    +0.001 A 
ATOM     32  C   UNL     1      -4.387  -9.741  -1.650  0.00  0.00    +0.000 A 
ATOM     33  C   UNL     1      -3.256  -9.409  -0.924  0.00  0.00    +0.001 A 
ATOM     34  C   UNL     1      -3.145  -8.162  -0.347  0.00  0.00    +0.011 A 
ENDBRANCH  27  29
ENDBRANCH   4  27
BRANCH   2  35
ATOM     35  C   UNL     1      -4.410  -1.944  -2.330  0.00  0.00    +0.098 C 
ATOM     36  N   UNL     1      -4.197  -1.195  -3.156  0.00  0.00    -0.191 NA
ENDBRANCH   2  35
TORSDOF 8
