REMARK  Name = ZINC14999056
REMARK  10 active torsions:
REMARK  status: ('A' for Active; 'I' for Inactive)
REMARK    1  A    between atoms: C_1  and  O_2
REMARK    2  A    between atoms: O_2  and  C_3
REMARK    3  A    between atoms: C_5  and  C_11
REMARK    4  A    between atoms: C_7  and  O_9
REMARK    5  A    between atoms: O_9  and  C_10
REMARK    6  A    between atoms: N_13  and  C_14
REMARK    7  A    between atoms: N_13  and  C_33
REMARK    8  A    between atoms: C_14  and  C_15
REMARK    9  A    between atoms: C_23  and  N_24
REMARK   10  A    between atoms: C_33  and  C_34
REMARK                            x       y       z     vdW  Elec       q    Type
REMARK                         _______ _______ _______ _____ _____    ______ ____
ROOT
ATOM      1  C   UNL     1      -1.616   1.349  -0.235  0.00  0.00    +0.146 C 
ENDROOT
BRANCH   1   2
ATOM      2  C   UNL     1      -1.018   2.732  -0.254  0.00  0.00    +0.008 A 
ATOM      3  C   UNL     1      -0.312   3.185   0.820  0.00  0.00    +0.018 A 
ATOM      4  C   UNL     1       0.227   4.487   0.764  0.00  0.00    -0.001 A 
ATOM      5  C   UNL     1       0.960   5.019   1.834  0.00  0.00    +0.014 A 
ATOM      6  C   UNL     1       1.468   6.284   1.751  0.00  0.00    -0.043 A 
ATOM      7  C   UNL     1       1.264   7.057   0.609  0.00  0.00    -0.042 A 
ATOM      8  C   UNL     1       0.555   6.566  -0.449  0.00  0.00    +0.030 A 
ATOM      9  C   UNL     1       0.020   5.270  -0.398  0.00  0.00    +0.048 A 
ATOM     10  C   UNL     1      -1.182   3.553  -1.379  0.00  0.00    +0.104 A 
ATOM     11  C   UNL     1       1.929   8.407   0.787  0.00  0.00    +0.036 C 
ATOM     12  C   UNL     1       2.174   8.541   2.304  0.00  0.00    +0.009 C 
ATOM     13  C   UNL     1       2.281   7.070   2.758  0.00  0.00    +0.036 C 
ATOM     14  N   UNL     1      -0.688   4.811  -1.487  0.00  0.00    -0.343 N 
ATOM     15  H   UNL     1      -0.832   5.385  -2.326  0.00  0.00    +0.167 HD
BRANCH  10  16
ATOM     16  N   UNL     1      -1.897   3.076  -2.467  0.00  0.00    -0.312 N 
ATOM     17  C   UNL     1      -3.336   3.020  -2.168  0.00  0.00    +0.134 C 
ATOM     18  C   UNL     1      -4.092   2.546  -3.412  0.00  0.00    +0.178 C 
ATOM     19  O   UNL     1      -3.575   1.278  -3.824  0.00  0.00    -0.377 OA
ATOM     20  C   UNL     1      -2.177   1.296  -4.124  0.00  0.00    +0.178 C 
ATOM     21  C   UNL     1      -1.401   1.757  -2.887  0.00  0.00    +0.134 C 
ENDBRANCH  10  16
ENDBRANCH   1   2
BRANCH   1  24
ATOM     22  C   UNL     1      -2.785   1.046   1.881  0.00  0.00    +0.247 C 
ATOM     23  O   UNL     1      -3.703   1.709   1.438  0.00  0.00    -0.270 OA
ATOM     24  N   UNL     1      -1.672   0.860   1.145  0.00  0.00    -0.291 N 
BRANCH  22  27
ATOM     25  C   UNL     1      -3.415   0.647   5.567  0.00  0.00    +0.124 A 
ATOM     26  C   UNL     1      -3.318   1.216   4.308  0.00  0.00    +0.059 A 
ATOM     27  C   UNL     1      -2.891   0.444   3.227  0.00  0.00    +0.044 A 
ATOM     28  C   UNL     1      -2.569  -0.900   3.419  0.00  0.00    +0.059 A 
ATOM     29  C   UNL     1      -2.664  -1.460   4.683  0.00  0.00    +0.124 A 
ATOM     30  C   UNL     1      -3.089  -0.688   5.755  0.00  0.00    +0.091 A 
BRANCH  25  32
ATOM     31  C   UNL     1      -3.908   0.749   7.891  0.00  0.00    +0.277 C 
ATOM     32  O   UNL     1      -3.830   1.399   6.621  0.00  0.00    -0.495 OA
ENDBRANCH  25  32
BRANCH  29  33
ATOM     33  O   UNL     1      -2.346  -2.767   4.872  0.00  0.00    -0.495 OA
ATOM     34  C   UNL     1      -2.472  -3.280   6.200  0.00  0.00    +0.277 C 
ENDBRANCH  29  33
ENDBRANCH  22  27
BRANCH  24  35
ATOM     35  C   UNL     1      -0.518   0.169   1.724  0.00  0.00    +0.140 C 
BRANCH  35  36
ATOM     36  C   UNL     1      -0.377  -1.214   1.084  0.00  0.00    +0.136 C 
ATOM     37  C   UNL     1       0.806  -1.981   1.715  0.00  0.00    +0.035 C 
ATOM     38  C   UNL     1       1.428  -2.752   0.529  0.00  0.00    +0.031 C 
ATOM     39  C   UNL     1       0.547  -2.360  -0.677  0.00  0.00    +0.160 C 
ATOM     40  O   UNL     1      -0.036  -1.089  -0.313  0.00  0.00    -0.375 OA
ENDBRANCH  35  36
ENDBRANCH  24  35
ENDBRANCH   1  24
TORSDOF 8
