REMARK  Name = ZINC39534176
REMARK  12 active torsions:
REMARK  status: ('A' for Active; 'I' for Inactive)
REMARK    1  A    between atoms: C_1  and  C_2
REMARK    2  A    between atoms: C_2  and  O_3
REMARK    3  A    between atoms: O_3  and  C_4
REMARK    4  A    between atoms: N_7  and  C_11
REMARK    5  A    between atoms: C_11  and  C_13
REMARK    6  A    between atoms: C_11  and  C_25
REMARK    7  A    between atoms: C_13  and  N_14
REMARK    8  A    between atoms: N_14  and  S_15
REMARK    9  A    between atoms: S_15  and  O_18
REMARK   10  A    between atoms: O_18  and  C_19
REMARK   11  A    between atoms: C_28  and  C_31
REMARK   12  A    between atoms: C_36  and  O_37
REMARK                            x       y       z     vdW  Elec       q    Type
REMARK                         _______ _______ _______ _____ _____    ______ ____
ROOT
ATOM      1  C   UNL     1       1.813  -4.100  -4.118  0.00  0.00    -0.060 C 
ENDROOT
BRANCH   1   4
ATOM      2  C   UNL     1      -0.262  -2.018  -1.784  0.00  0.00    +0.169 C 
ATOM      3  C   UNL     1       0.634  -2.349  -2.980  0.00  0.00    -0.030 C 
ATOM      4  N   UNL     1       0.968  -3.779  -2.961  0.00  0.00    +0.386 N 
ATOM      5  C   UNL     1       1.692  -4.098  -1.723  0.00  0.00    -0.063 C 
ATOM      6  C   UNL     1       0.804  -3.782  -0.517  0.00  0.00    +0.065 C 
ATOM      7  N   UNL     1       0.441  -2.358  -0.539  0.00  0.00    -0.295 NA
ATOM      8  H   UNL     1       1.255  -1.775  -0.413  0.00  0.00    +0.124 HD
ATOM      9  H   UNL     1       0.119  -4.323  -3.004  0.00  0.00    -0.081 HD
BRANCH   2  10
ATOM     10  O   UNL     1      -0.571  -0.623  -1.792  0.00  0.00    -0.364 OA
BRANCH  10  12
ATOM     11  C   UNL     1      -1.828   1.261  -0.948  0.00  0.00    +0.034 C 
ATOM     12  C   UNL     1      -1.580  -0.246  -0.853  0.00  0.00    +0.158 C 
ENDBRANCH  10  12
ENDBRANCH   2  10
ENDBRANCH   1   4
BRANCH   1  13
ATOM     13  C   UNL     1       1.135  -3.633  -5.381  0.00  0.00    -0.063 A 
ATOM     14  C   UNL     1      -0.233  -3.786  -5.525  0.00  0.00    +0.002 A 
ATOM     15  C   UNL     1      -0.859  -3.361  -6.678  0.00  0.00    +0.009 A 
ATOM     16  C   UNL     1      -0.112  -2.777  -7.699  0.00  0.00    -0.014 A 
ATOM     17  C   UNL     1       1.265  -2.625  -7.549  0.00  0.00    +0.009 A 
ATOM     18  C   UNL     1       1.881  -3.049  -6.388  0.00  0.00    +0.002 A 
BRANCH  16  19
ATOM     19  C   UNL     1      -0.780  -2.319  -8.942  0.00  0.00    +0.024 A 
ATOM     20  C   UNL     1      -1.648  -3.168  -9.624  0.00  0.00    +0.012 A 
ATOM     21  C   UNL     1      -2.267  -2.738 -10.780  0.00  0.00    +0.001 A 
ATOM     22  C   UNL     1      -2.028  -1.464 -11.265  0.00  0.00    +0.004 A 
ATOM     23  C   UNL     1      -1.168  -0.613 -10.597  0.00  0.00    +0.046 A 
ATOM     24  C   UNL     1      -0.545  -1.031  -9.432  0.00  0.00    +0.125 A 
BRANCH  24  25
ATOM     25  O   UNL     1       0.296  -0.193  -8.771  0.00  0.00    -0.506 OA
ATOM     26  H   UNL     1       1.218  -0.256  -9.056  0.00  0.00    +0.292 HD
ENDBRANCH  24  25
ENDBRANCH  16  19
ENDBRANCH   1  13
BRANCH   1  27
ATOM     27  C   UNL     1       2.033  -5.612  -4.186  0.00  0.00    -0.121 C 
BRANCH  27  28
ATOM     28  N   UNL     1       2.850  -6.039  -3.048  0.00  0.00    +0.491 NA
BRANCH  28  29
ATOM     29  S   UNL     1       3.248  -7.636  -2.866  0.00  0.00    +0.066 S 
ATOM     30  O   UNL     1       2.034  -8.329  -2.607  0.00  0.00    -0.159 OA
ATOM     31  O   UNL     1       4.098  -7.970  -3.955  0.00  0.00    -0.159 OA
BRANCH  29  32
ATOM     32  O   UNL     1       4.091  -7.749  -1.605  0.00  0.00    -0.362 OA
BRANCH  32  33
ATOM     33  C   UNL     1       3.379  -7.646  -0.452  0.00  0.00    +0.154 A 
ATOM     34  C   UNL     1       3.175  -6.404   0.130  0.00  0.00    +0.048 A 
ATOM     35  C   UNL     1       2.450  -6.302   1.302  0.00  0.00    +0.004 A 
ATOM     36  C   UNL     1       1.928  -7.437   1.894  0.00  0.00    +0.000 A 
ATOM     37  C   UNL     1       2.130  -8.677   1.316  0.00  0.00    +0.004 A 
ATOM     38  C   UNL     1       2.849  -8.783   0.141  0.00  0.00    +0.048 A 
ENDBRANCH  32  33
ENDBRANCH  29  32
ENDBRANCH  28  29
ENDBRANCH  27  28
ENDBRANCH   1  27
TORSDOF 11
