REMARK  Name = ZINC16009809
REMARK  5 active torsions:
REMARK  status: ('A' for Active; 'I' for Inactive)
REMARK    1  A    between atoms: C_1  and  C_2
REMARK    2  A    between atoms: C_16  and  C_19
REMARK    3  A    between atoms: C_19  and  C_20
REMARK    4  A    between atoms: C_20  and  C_21
REMARK    5  A    between atoms: N_26  and  C_29
REMARK                            x       y       z     vdW  Elec       q    Type
REMARK                         _______ _______ _______ _____ _____    ______ ____
ROOT
ATOM      1  C   UNL     1       1.064   1.680   0.837  0.00  0.00    +0.047 C 
ATOM      2  C   UNL     1       0.867   0.201   0.629  0.00  0.00    -0.011 A 
ATOM      3  C   UNL     1       0.878  -0.322  -0.649  0.00  0.00    +0.046 A 
ATOM      4  C   UNL     1       0.697  -1.680  -0.849  0.00  0.00    +0.021 A 
ATOM      5  C   UNL     1       0.504  -2.516   0.236  0.00  0.00    +0.009 A 
ATOM      6  C   UNL     1       0.493  -1.999   1.512  0.00  0.00    +0.004 A 
ATOM      7  C   UNL     1       0.679  -0.636   1.727  0.00  0.00    +0.043 A 
ATOM      8  N   UNL     1       0.632  -0.351   3.093  0.00  0.00    -0.283 N 
ATOM      9  C   UNL     1       0.428  -1.457   3.835  0.00  0.00    +0.243 C 
ATOM     10  O   UNL     1       0.342  -1.512   5.044  0.00  0.00    -0.273 OA
ATOM     11  C   UNL     1       0.315  -2.608   2.873  0.00  0.00    +0.136 C 
ATOM     12  C   UNL     1      -1.032  -3.329   2.997  0.00  0.00    +0.123 C 
ATOM     13  C   UNL     1      -0.736  -4.561   3.898  0.00  0.00    +0.107 C 
ATOM     14  C   UNL     1       0.767  -4.455   4.232  0.00  0.00    +0.068 C 
ATOM     15  N   UNL     1       1.346  -3.626   3.150  0.00  0.00    -0.295 NA
ATOM     16  C   UNL     1      -1.555  -4.288   5.140  0.00  0.00    +0.232 C 
ATOM     17  O   UNL     1      -1.615  -5.010   6.112  0.00  0.00    -0.274 OA
ATOM     18  N   UNL     1      -2.202  -3.125   5.000  0.00  0.00    -0.210 N 
ATOM     19  C   UNL     1      -1.985  -2.495   3.823  0.00  0.00    +0.233 C 
ATOM     20  O   UNL     1      -2.468  -1.438   3.479  0.00  0.00    -0.274 OA
ATOM     21 CL   UNL     1       1.120   0.728  -2.010  0.00  0.00    -0.083 Cl
ATOM     22  H   UNL     1       0.734   0.539   3.465  0.00  0.00    +0.155 HD
ATOM     23  H   UNL     1       1.526  -4.190   2.333  0.00  0.00    +0.123 HD
ENDROOT
BRANCH  18  24
ATOM     24  C   UNL     1      -3.044  -2.602   5.990  0.00  0.00    +0.044 A 
ATOM     25  C   UNL     1      -2.499  -2.172   7.205  0.00  0.00    +0.024 A 
ATOM     26  C   UNL     1      -3.291  -1.661   8.184  0.00  0.00    +0.010 A 
ATOM     27  C   UNL     1      -4.678  -1.560   7.979  0.00  0.00    -0.018 A 
ATOM     28  C   UNL     1      -5.525  -1.036   8.970  0.00  0.00    +0.008 A 
ATOM     29  C   UNL     1      -6.863  -0.953   8.737  0.00  0.00    +0.001 A 
ATOM     30  C   UNL     1      -7.410  -1.381   7.529  0.00  0.00    +0.001 A 
ATOM     31  C   UNL     1      -6.621  -1.894   6.546  0.00  0.00    +0.008 A 
ATOM     32  C   UNL     1      -5.234  -1.995   6.749  0.00  0.00    -0.016 A 
ATOM     33  C   UNL     1      -4.388  -2.514   5.755  0.00  0.00    +0.032 A 
ENDBRANCH  18  24
BRANCH  14  34
ATOM     34  C   UNL     1       1.406  -5.845   4.262  0.00  0.00    +0.028 C 
BRANCH  34  35
ATOM     35  C   UNL     1       2.862  -5.727   4.715  0.00  0.00    +0.097 C 
BRANCH  35  36
ATOM     36  C   UNL     1       3.491  -7.097   4.745  0.00  0.00    +0.211 C 
ATOM     37  O   UNL     1       2.838  -8.070   4.434  0.00  0.00    -0.276 OA
ATOM     38  N   UNL     1       4.779  -7.239   5.117  0.00  0.00    -0.329 N 
ATOM     39  H   UNL     1       5.301  -6.460   5.365  0.00  0.00    +0.145 HD
ATOM     40  H   UNL     1       5.183  -8.120   5.136  0.00  0.00    +0.145 HD
ENDBRANCH  35  36
ENDBRANCH  34  35
ENDBRANCH  14  34
TORSDOF 4
