REMARK  Name = ZINC12558054
REMARK  12 active torsions:
REMARK  status: ('A' for Active; 'I' for Inactive)
REMARK    1  A    between atoms: C_1  and  C_2
REMARK    2  A    between atoms: C_5  and  N_9
REMARK    3  A    between atoms: C_6  and  C_8
REMARK    4  A    between atoms: C_13  and  S_15
REMARK    5  A    between atoms: S_15  and  C_16
REMARK    6  A    between atoms: C_16  and  C_17
REMARK    7  A    between atoms: N_19  and  C_20
REMARK    8  A    between atoms: C_20  and  C_22
REMARK    9  A    between atoms: C_20  and  C_33
REMARK   10  A    between atoms: C_22  and  C_23
REMARK   11  A    between atoms: C_33  and  O_35
REMARK   12  A    between atoms: O_35  and  C_36
REMARK                            x       y       z     vdW  Elec       q    Type
REMARK                         _______ _______ _______ _____ _____    ______ ____
ROOT
ATOM      1  C   UNL     1       4.285   2.201   3.378  0.00  0.00    +0.224 C 
ATOM      2  O   UNL     1       4.223   1.214   4.080  0.00  0.00    -0.275 OA
ATOM      3  N   UNL     1       4.665   2.089   2.090  0.00  0.00    -0.301 N 
ATOM      4  H   UNL     1       4.715   2.878   1.528  0.00  0.00    +0.150 HD
ENDROOT
BRANCH   1   5
ATOM      5  C   UNL     1       3.937   3.553   3.946  0.00  0.00    +0.172 C 
BRANCH   5   6
ATOM      6  S   UNL     1       3.468   3.374   5.689  0.00  0.00    -0.088 S 
BRANCH   6  11
ATOM      7  N   UNL     1       2.065   8.421   8.175  0.00  0.00    -0.292 N 
ATOM      8  C   UNL     1       2.440   7.345   7.378  0.00  0.00    +0.187 A 
ATOM      9  N   UNL     1       2.802   7.330   6.110  0.00  0.00    -0.125 NA
ATOM     10  N   UNL     1       3.143   6.141   5.508  0.00  0.00    -0.133 NA
ATOM     11  C   UNL     1       3.095   5.018   6.201  0.00  0.00    +0.160 A 
ATOM     12  S   UNL     1       2.561   5.613   7.798  0.00  0.00    -0.024 S 
ATOM     13  H   UNL     1       1.905   8.290   9.122  0.00  0.00    +0.154 HD
BRANCH   7  18
ATOM     14  C   UNL     1       1.473  13.575   5.884  0.00  0.00    +0.044 C 
ATOM     15  C   UNL     1       1.630  12.205   6.493  0.00  0.00    -0.050 A 
ATOM     16  C   UNL     1       1.809  11.104   5.676  0.00  0.00    +0.005 A 
ATOM     17  C   UNL     1       1.958   9.848   6.230  0.00  0.00    +0.024 A 
ATOM     18  C   UNL     1       1.919   9.691   7.610  0.00  0.00    +0.036 A 
ATOM     19  C   UNL     1       1.740  10.799   8.428  0.00  0.00    -0.029 A 
ATOM     20  C   UNL     1       1.595  12.053   7.867  0.00  0.00    +0.008 A 
ATOM     21  C   UNL     1       1.702  10.634   9.925  0.00  0.00    +0.045 C 
ENDBRANCH   7  18
ENDBRANCH   6  11
ENDBRANCH   5   6
ENDBRANCH   1   5
BRANCH   3  22
ATOM     22  C   UNL     1       5.004   0.774   1.538  0.00  0.00    +0.186 C 
BRANCH  22  23
ATOM     23  C   UNL     1       6.446   0.458   1.841  0.00  0.00    +0.328 C 
ATOM     24  O   UNL     1       7.122   1.250   2.455  0.00  0.00    -0.249 OA
BRANCH  23  25
ATOM     25  O   UNL     1       6.979  -0.702   1.428  0.00  0.00    -0.467 OA
ATOM     26  C   UNL     1       8.374  -0.940   1.756  0.00  0.00    +0.280 C 
ENDBRANCH  23  25
ENDBRANCH  22  23
BRANCH  22  27
ATOM     27  C   UNL     1       4.792   0.788   0.022  0.00  0.00    +0.071 C 
BRANCH  27  28
ATOM     28  C   UNL     1       3.328   0.982  -0.279  0.00  0.00    -0.020 A 
ATOM     29  C   UNL     1       2.428   0.016  -0.519  0.00  0.00    +0.087 A 
ATOM     30  N   UNL     1       1.198   0.572  -0.751  0.00  0.00    -0.360 N 
ATOM     31  H   UNL     1       0.390   0.073  -0.948  0.00  0.00    +0.165 HD
ATOM     32  C   UNL     1       1.280   1.943  -0.663  0.00  0.00    +0.047 A 
ATOM     33  C   UNL     1       2.618   2.261  -0.363  0.00  0.00    +0.003 A 
ATOM     34  C   UNL     1       3.001   3.595  -0.213  0.00  0.00    +0.010 A 
ATOM     35  C   UNL     1       2.072   4.587  -0.358  0.00  0.00    +0.001 A 
ATOM     36  C   UNL     1       0.752   4.279  -0.654  0.00  0.00    +0.002 A 
ATOM     37  C   UNL     1       0.352   2.969  -0.802  0.00  0.00    +0.026 A 
ENDBRANCH  27  28
ENDBRANCH  22  27
ENDBRANCH   3  22
TORSDOF 9
