REMARK  Name = ZINC29233331
REMARK  11 active torsions:
REMARK  status: ('A' for Active; 'I' for Inactive)
REMARK    1  A    between atoms: C_6  and  N_7
REMARK    2  A    between atoms: N_11  and  C_14
REMARK    3  A    between atoms: C_14  and  C_15
REMARK    4  A    between atoms: C_15  and  C_16
REMARK    5  A    between atoms: C_16  and  C_17
REMARK    6  A    between atoms: C_17  and  C_18
REMARK    7  A    between atoms: C_18  and  C_19
REMARK    8  A    between atoms: C_19  and  C_20
REMARK    9  A    between atoms: C_20  and  C_21
REMARK   10  A    between atoms: C_21  and  N_22
REMARK   11  A    between atoms: N_26  and  C_27
REMARK                            x       y       z     vdW  Elec       q    Type
REMARK                         _______ _______ _______ _____ _____    ______ ____
ROOT
ATOM      1  C   UNL     1      -2.229  -8.009  -4.742  0.00  0.00    +0.000 C 
ENDROOT
BRANCH   1   2
ATOM      2  C   UNL     1      -2.796  -6.814  -5.512  0.00  0.00    +0.002 C 
BRANCH   2   3
ATOM      3  C   UNL     1      -2.637  -5.545  -4.673  0.00  0.00    +0.021 C 
BRANCH   3   4
ATOM      4  C   UNL     1      -3.204  -4.350  -5.442  0.00  0.00    +0.121 C 
BRANCH   4   9
ATOM      5  N   UNL     1      -2.629   0.241  -2.407  0.00  0.00    -0.355 N 
ATOM      6  C   UNL     1      -2.767  -0.863  -3.138  0.00  0.00    +0.042 A 
ATOM      7  C   UNL     1      -1.747  -1.269  -4.038  0.00  0.00    +0.043 A 
ATOM      8  C   UNL     1      -1.917  -2.393  -4.763  0.00  0.00    +0.087 A 
ATOM      9  N   UNL     1      -3.051  -3.134  -4.639  0.00  0.00    -0.353 N 
ATOM     10  C   UNL     1      -4.047  -2.772  -3.785  0.00  0.00    +0.087 A 
ATOM     11  C   UNL     1      -3.935  -1.663  -3.028  0.00  0.00    +0.043 A 
ATOM     12  H   UNL     1      -3.290   0.463  -1.732  0.00  0.00    +0.166 HD
BRANCH   5  18
ATOM     13  C   UNL     1      -1.299   1.581  -3.880  0.00  0.00    +0.027 A 
ATOM     14  C   UNL     1      -0.214   2.410  -4.075  0.00  0.00    +0.022 A 
ATOM     15  C   UNL     1       0.618   2.729  -3.014  0.00  0.00    +0.041 A 
ATOM     16  C   UNL     1       0.367   2.218  -1.751  0.00  0.00    +0.022 A 
ATOM     17  C   UNL     1      -0.713   1.388  -1.541  0.00  0.00    +0.027 A 
ATOM     18  C   UNL     1      -1.558   1.062  -2.607  0.00  0.00    +0.040 A 
ATOM     19 CL   UNL     1       1.981   3.773  -3.269  0.00  0.00    -0.084 Cl
ENDBRANCH   5  18
ENDBRANCH   4   9
ENDBRANCH   3   4
ENDBRANCH   2   3
ENDBRANCH   1   2
BRANCH   1  20
ATOM     20  C   UNL     1      -2.388  -9.278  -5.581  0.00  0.00    +0.000 C 
BRANCH  20  21
ATOM     21  C   UNL     1      -1.822 -10.473  -4.811  0.00  0.00    +0.002 C 
BRANCH  21  22
ATOM     22  C   UNL     1      -1.981 -11.742  -5.651  0.00  0.00    +0.021 C 
BRANCH  22  23
ATOM     23  C   UNL     1      -1.414 -12.937  -4.881  0.00  0.00    +0.121 C 
BRANCH  23  24
ATOM     24  N   UNL     1      -1.567 -14.152  -5.684  0.00  0.00    -0.353 N 
ATOM     25  C   UNL     1      -2.703 -14.891  -5.564  0.00  0.00    +0.087 A 
ATOM     26  C   UNL     1      -2.874 -16.014  -6.290  0.00  0.00    +0.043 A 
ATOM     27  C   UNL     1      -1.851 -16.422  -7.187  0.00  0.00    +0.042 A 
ATOM     28  N   UNL     1      -1.990 -17.527  -7.918  0.00  0.00    -0.355 N 
ATOM     29  C   UNL     1      -0.678 -15.629  -7.288  0.00  0.00    +0.043 A 
ATOM     30  C   UNL     1      -0.571 -14.514  -6.538  0.00  0.00    +0.087 A 
ATOM     31  H   UNL     1      -2.827 -18.017  -7.902  0.00  0.00    +0.166 HD
BRANCH  28  32
ATOM     32  C   UNL     1      -0.956 -17.968  -8.689  0.00  0.00    +0.040 A 
ATOM     33  C   UNL     1       0.293 -18.223  -8.111  0.00  0.00    +0.027 A 
ATOM     34  C   UNL     1       1.334 -18.669  -8.898  0.00  0.00    +0.022 A 
ATOM     35  C   UNL     1       1.146 -18.866 -10.255  0.00  0.00    +0.041 A 
ATOM     36  C   UNL     1      -0.087 -18.616 -10.834  0.00  0.00    +0.022 A 
ATOM     37  C   UNL     1      -1.139 -18.175 -10.060  0.00  0.00    +0.027 A 
ATOM     38 CL   UNL     1       2.463 -19.428 -11.237  0.00  0.00    -0.084 Cl
ENDBRANCH  28  32
ENDBRANCH  23  24
ENDBRANCH  22  23
ENDBRANCH  21  22
ENDBRANCH  20  21
ENDBRANCH   1  20
TORSDOF 11
