REMARK  Name = ZINC63589319
REMARK  6 active torsions:
REMARK  status: ('A' for Active; 'I' for Inactive)
REMARK    1  A    between atoms: C_7  and  C_10
REMARK    2  A    between atoms: C_10  and  C_11
REMARK    3  A    between atoms: C_11  and  N_12
REMARK    4  A    between atoms: N_14  and  C_15
REMARK    5  A    between atoms: N_22  and  C_23
REMARK    6  A    between atoms: C_23  and  C_25
REMARK                            x       y       z     vdW  Elec       q    Type
REMARK                         _______ _______ _______ _____ _____    ______ ____
ROOT
ATOM      1  N   UNL     1      -2.013  -3.425  -2.674  0.00  0.00    -0.357 N 
ATOM      2  C   UNL     1      -1.397  -4.599  -2.997  0.00  0.00    +0.194 C 
ATOM      3  N   UNL     1      -0.428  -4.620  -3.958  0.00  0.00    -0.326 N 
ATOM      4  N   UNL     1      -1.741  -5.718  -2.378  0.00  0.00    -0.143 NA
ATOM      5  H   UNL     1      -2.651  -3.397  -1.944  0.00  0.00    +0.162 HD
ATOM      6  H   UNL     1      -0.451  -5.294  -4.655  0.00  0.00    +0.169 HD
ENDROOT
BRANCH   3   7
ATOM      7  C   UNL     1       0.600  -3.670  -3.937  0.00  0.00    +0.077 A 
ATOM      8  C   UNL     1       1.220  -3.342  -2.738  0.00  0.00    +0.028 A 
ATOM      9  C   UNL     1       2.233  -2.404  -2.720  0.00  0.00    +0.002 A 
ATOM     10  C   UNL     1       2.631  -1.790  -3.894  0.00  0.00    +0.003 A 
ATOM     11  C   UNL     1       2.016  -2.112  -5.090  0.00  0.00    +0.040 A 
ATOM     12  C   UNL     1       1.005  -3.055  -5.116  0.00  0.00    +0.147 A 
ATOM     13  F   UNL     1       0.409  -3.375  -6.285  0.00  0.00    -0.203 F 
ENDBRANCH   3   7
BRANCH   4  14
ATOM     14  C   UNL     1      -1.048  -6.845  -2.597  0.00  0.00    +0.270 C 
ATOM     15  O   UNL     1      -0.061  -6.824  -3.310  0.00  0.00    -0.268 OA
BRANCH  14  16
ATOM     16  C   UNL     1      -1.482  -8.113  -1.972  0.00  0.00    +0.043 A 
ATOM     17  C   UNL     1      -2.674  -8.163  -1.246  0.00  0.00    +0.017 A 
ATOM     18  C   UNL     1      -3.077  -9.346  -0.665  0.00  0.00    +0.050 A 
ATOM     19  C   UNL     1      -2.302 -10.490  -0.798  0.00  0.00    +0.166 A 
ATOM     20  C   UNL     1      -1.110 -10.446  -1.522  0.00  0.00    +0.167 A 
ATOM     21  C   UNL     1      -0.704  -9.264  -2.111  0.00  0.00    +0.062 A 
ATOM     22  O   UNL     1      -0.542 -11.687  -1.502  0.00  0.00    -0.453 OA
ATOM     23  C   UNL     1      -1.186 -12.387  -0.421  0.00  0.00    +0.466 C 
ATOM     24  O   UNL     1      -2.478 -11.758  -0.327  0.00  0.00    -0.453 OA
ENDBRANCH  14  16
ENDBRANCH   4  14
BRANCH   1  25
ATOM     25  C   UNL     1      -1.709  -2.207  -3.430  0.00  0.00    +0.120 C 
BRANCH  25  26
ATOM     26  C   UNL     1      -2.472  -1.028  -2.824  0.00  0.00    +0.054 C 
BRANCH  26  33
ATOM     27  C   UNL     1      -4.876   0.818  -6.270  0.00  0.00    +0.001 A 
ATOM     28  C   UNL     1      -4.305   1.988  -6.790  0.00  0.00    +0.002 A 
ATOM     29  C   UNL     1      -3.157   2.513  -6.314  0.00  0.00    +0.026 A 
ATOM     30  C   UNL     1      -2.468   1.881  -5.241  0.00  0.00    +0.043 A 
ATOM     31  N   UNL     1      -1.358   2.189  -4.615  0.00  0.00    -0.380 N 
ATOM     32  C   UNL     1      -1.110   1.180  -3.579  0.00  0.00    +0.144 C 
ATOM     33  C   UNL     1      -2.257   0.199  -3.673  0.00  0.00    -0.040 C 
ATOM     34  C   UNL     1      -3.051   0.644  -4.674  0.00  0.00    -0.001 A 
ATOM     35  C   UNL     1      -4.303   0.140  -5.250  0.00  0.00    +0.010 A 
ATOM     36  H   UNL     1      -0.794   2.955  -4.806  0.00  0.00    +0.160 HD
ENDBRANCH  26  33
ENDBRANCH  25  26
ENDBRANCH   1  25
TORSDOF 6
