REMARK  Name = ZINC18467190
REMARK  5 active torsions:
REMARK  status: ('A' for Active; 'I' for Inactive)
REMARK    1  A    between atoms: C_1  and  C_2
REMARK    2  A    between atoms: C_9  and  C_14
REMARK    3  A    between atoms: C_14  and  S_15
REMARK    4  A    between atoms: S_15  and  C_16
REMARK    5  A    between atoms: C_19  and  C_21
REMARK                            x       y       z     vdW  Elec       q    Type
REMARK                         _______ _______ _______ _____ _____    ______ ____
ROOT
ATOM      1  S   UNL     1       0.018   1.821   4.444  0.00  0.00    -0.058 S 
ENDROOT
BRANCH   1   2
ATOM      2  C   UNL     1       0.022   2.585   6.031  0.00  0.00    +0.278 A 
ATOM      3  N   UNL     1       0.047   1.970   7.189  0.00  0.00    -0.101 NA
ATOM      4  N   UNL     1       0.042   2.839   8.137  0.00  0.00    -0.106 NA
ATOM      5  C   UNL     1       0.014   4.045   7.623  0.00  0.00    +0.251 A 
ATOM      6  O   UNL     1       0.006   3.910   6.278  0.00  0.00    -0.411 OA
BRANCH   5   7
ATOM      7  C   UNL     1      -0.001   5.315   8.374  0.00  0.00    +0.063 A 
ATOM      8  C   UNL     1      -0.036   6.568   7.849  0.00  0.00    +0.097 A 
ATOM      9  N   UNL     1      -0.039   7.488   8.856  0.00  0.00    -0.360 N 
ATOM     10  H   UNL     1      -0.062   8.450   8.729  0.00  0.00    +0.165 HD
ATOM     11  C   UNL     1      -0.005   6.856  10.081  0.00  0.00    +0.047 A 
ATOM     12  C   UNL     1       0.014   5.472   9.838  0.00  0.00    +0.012 A 
ATOM     13  C   UNL     1       0.043   4.577  10.906  0.00  0.00    +0.011 A 
ATOM     14  C   UNL     1       0.050   5.056  12.197  0.00  0.00    +0.001 A 
ATOM     15  C   UNL     1       0.028   6.423  12.438  0.00  0.00    +0.002 A 
ATOM     16  C   UNL     1       0.007   7.319  11.392  0.00  0.00    +0.026 A 
ENDBRANCH   5   7
ENDBRANCH   1   2
BRANCH   1  17
ATOM     17  C   UNL     1       0.046   0.044   4.812  0.00  0.00    +0.153 C 
BRANCH  17  26
ATOM     18  C   UNL     1      -0.018   1.503   0.010  0.00  0.00    +0.046 C 
ATOM     19  C   UNL     1       0.002  -0.004   0.002  0.00  0.00    -0.024 A 
ATOM     20  C   UNL     1       0.006  -0.689  -1.192  0.00  0.00    +0.005 A 
ATOM     21  C   UNL     1       0.025  -2.078  -1.216  0.00  0.00    +0.001 A 
ATOM     22  C   UNL     1       0.040  -2.798  -0.042  0.00  0.00    +0.015 A 
ATOM     23  C   UNL     1       0.037  -2.124   1.177  0.00  0.00    +0.065 A 
ATOM     24  C   UNL     1       0.023  -0.712   1.205  0.00  0.00    +0.081 A 
ATOM     25  N   UNL     1       0.025  -0.077   2.404  0.00  0.00    -0.233 NA
ATOM     26  C   UNL     1       0.045  -0.736   3.523  0.00  0.00    +0.121 A 
ATOM     27  N   UNL     1       0.065  -2.093   3.591  0.00  0.00    -0.310 N 
ATOM     28  H   UNL     1       0.080  -2.530   4.456  0.00  0.00    +0.170 HD
ATOM     29  C   UNL     1       0.053  -2.840   2.462  0.00  0.00    +0.259 A 
ATOM     30  O   UNL     1       0.069  -4.056   2.508  0.00  0.00    -0.267 OA
ENDBRANCH  17  26
ENDBRANCH   1  17
TORSDOF 4
