REMARK  Name = ZINC11368965
REMARK  9 active torsions:
REMARK  status: ('A' for Active; 'I' for Inactive)
REMARK    1  A    between atoms: C_1  and  C_2
REMARK    2  A    between atoms: C_3  and  O_29
REMARK    3  A    between atoms: C_12  and  C_13
REMARK    4  A    between atoms: C_13  and  S_14
REMARK    5  A    between atoms: S_14  and  C_15
REMARK    6  A    between atoms: C_18  and  C_21
REMARK    7  A    between atoms: N_19  and  N_20
REMARK    8  A    between atoms: C_26  and  O_27
REMARK    9  A    between atoms: O_27  and  C_28
REMARK                            x       y       z     vdW  Elec       q    Type
REMARK                         _______ _______ _______ _____ _____    ______ ____
ROOT
ATOM      1  S   UNL     1      -1.608  -4.987   2.228  0.00  0.00    -0.080 S 
ENDROOT
BRANCH   1   2
ATOM      2  C   UNL     1      -1.403  -6.736   2.185  0.00  0.00    +0.209 A 
ATOM      3  N   UNL     1      -0.275  -7.393   2.338  0.00  0.00    -0.121 NA
ATOM      4  N   UNL     1      -0.485  -8.657   2.250  0.00  0.00    -0.127 NA
ATOM      5  C   UNL     1      -1.760  -8.886   2.036  0.00  0.00    +0.185 A 
ATOM      6  N   UNL     1      -2.388  -7.663   1.993  0.00  0.00    -0.224 N 
BRANCH   5   7
ATOM      7  C   UNL     1      -2.400 -10.209   1.876  0.00  0.00    +0.062 A 
ATOM      8  C   UNL     1      -3.296 -10.432   0.830  0.00  0.00    +0.015 A 
ATOM      9  C   UNL     1      -3.890 -11.668   0.685  0.00  0.00    +0.001 A 
ATOM     10  C   UNL     1      -3.602 -12.689   1.575  0.00  0.00    +0.004 A 
ATOM     11  C   UNL     1      -2.717 -12.479   2.616  0.00  0.00    +0.046 A 
ATOM     12  C   UNL     1      -2.106 -11.245   2.770  0.00  0.00    +0.131 A 
BRANCH  12  13
ATOM     13  O   UNL     1      -1.231 -11.040   3.789  0.00  0.00    -0.494 OA
ATOM     14  C   UNL     1      -0.981 -12.144   4.661  0.00  0.00    +0.277 C 
ENDBRANCH  12  13
ENDBRANCH   5   7
BRANCH   6  15
ATOM     15  N   UNL     1      -3.719  -7.425   1.797  0.00  0.00    -0.295 N 
ATOM     16  H   UNL     1      -3.941  -7.407   0.813  0.00  0.00    +0.163 HD
ATOM     17  H   UNL     1      -4.283  -8.105   2.283  0.00  0.00    +0.163 HD
ENDBRANCH   6  15
ENDBRANCH   1   2
BRANCH   1  18
ATOM     18  C   UNL     1       0.069  -4.355   2.515  0.00  0.00    +0.113 C 
BRANCH  18  30
ATOM     19  C   UNL     1      -0.320   1.619   0.401  0.00  0.00    +0.051 C 
ATOM     20  C   UNL     1      -0.289   0.115   0.309  0.00  0.00    +0.034 A 
ATOM     21  C   UNL     1      -0.405  -0.509  -0.923  0.00  0.00    +0.123 A 
ATOM     22  C   UNL     1      -0.378  -1.899  -1.018  0.00  0.00    +0.046 A 
ATOM     23  C   UNL     1      -0.236  -2.666   0.103  0.00  0.00    +0.015 A 
ATOM     24  C   UNL     1      -0.117  -2.053   1.355  0.00  0.00    +0.022 A 
ATOM     25  C   UNL     1      -0.139  -0.649   1.456  0.00  0.00    +0.146 A 
ATOM     26  O   UNL     1      -0.018  -0.061   2.666  0.00  0.00    -0.422 OA
ATOM     27  C   UNL     1       0.128  -0.785   3.786  0.00  0.00    +0.338 A 
ATOM     28  O   UNL     1       0.232  -0.211   4.855  0.00  0.00    -0.245 OA
ATOM     29  C   UNL     1       0.163  -2.195   3.757  0.00  0.00    +0.097 A 
ATOM     30  C   UNL     1       0.035  -2.850   2.574  0.00  0.00    -0.020 A 
BRANCH  21  31
ATOM     31  O   UNL     1      -0.546   0.240  -2.046  0.00  0.00    -0.506 OA
ATOM     32  H   UNL     1       0.291   0.481  -2.466  0.00  0.00    +0.292 HD
ENDBRANCH  21  31
ENDBRANCH  18  30
ENDBRANCH   1  18
TORSDOF 7
