REMARK  Name = ZINC30928024
REMARK  10 active torsions:
REMARK  status: ('A' for Active; 'I' for Inactive)
REMARK    1  A    between atoms: C_4  and  C_7
REMARK    2  A    between atoms: C_7  and  C_8
REMARK    3  A    between atoms: C_8  and  C_10
REMARK    4  A    between atoms: C_8  and  N_25
REMARK    5  A    between atoms: C_10  and  N_12
REMARK    6  A    between atoms: C_15  and  C_18
REMARK    7  A    between atoms: C_18  and  N_19
REMARK    8  A    between atoms: C_26  and  O_28
REMARK    9  A    between atoms: O_28  and  C_29
REMARK   10  A    between atoms: C_29  and  C_30
REMARK                            x       y       z     vdW  Elec       q    Type
REMARK                         _______ _______ _______ _____ _____    ______ ____
ROOT
ATOM      1  C   UNL     1       4.171  -0.963   1.399  0.00  0.00    +0.168 C 
ENDROOT
BRANCH   1   2
ATOM      2  N   UNL     1       4.451   0.315   2.057  0.00  0.00    -0.269 N 
ATOM      3  C   UNL     1       3.451   1.007   2.638  0.00  0.00    +0.401 C 
ATOM      4  O   UNL     1       2.317   0.571   2.616  0.00  0.00    -0.226 OA
ATOM      5  H   UNL     1       5.356   0.664   2.075  0.00  0.00    +0.153 HD
BRANCH   3   6
ATOM      6  O   UNL     1       3.708   2.182   3.243  0.00  0.00    -0.446 OA
BRANCH   6   7
ATOM      7  C   UNL     1       2.600   2.861   3.838  0.00  0.00    +0.269 C 
BRANCH   7   8
ATOM      8  C   UNL     1       3.077   4.147   4.463  0.00  0.00    -0.010 A 
ATOM      9  C   UNL     1       3.502   4.161   5.778  0.00  0.00    +0.007 A 
ATOM     10  C   UNL     1       3.938   5.341   6.351  0.00  0.00    +0.000 A 
ATOM     11  C   UNL     1       3.951   6.507   5.608  0.00  0.00    +0.000 A 
ATOM     12  C   UNL     1       3.527   6.493   4.293  0.00  0.00    +0.000 A 
ATOM     13  C   UNL     1       3.094   5.312   3.719  0.00  0.00    +0.007 A 
ENDBRANCH   7   8
ENDBRANCH   6   7
ENDBRANCH   3   6
ENDBRANCH   1   2
BRANCH   1  14
ATOM     14  C   UNL     1       5.422  -1.804   1.383  0.00  0.00    +0.259 C 
ATOM     15  O   UNL     1       6.449  -1.377   1.876  0.00  0.00    -0.272 OA
BRANCH  14  16
ATOM     16  N   UNL     1       5.402  -3.012   0.833  0.00  0.00    -0.155 NA
ATOM     17  C   UNL     1       6.510  -3.757   0.819  0.00  0.00    +0.163 A 
ATOM     18  N   UNL     1       6.684  -5.002   0.301  0.00  0.00    -0.341 N 
ATOM     19  C   UNL     1       7.908  -5.586   0.395  0.00  0.00    +0.008 A 
ATOM     20  C   UNL     1       8.876  -4.888   0.999  0.00  0.00    +0.067 A 
ATOM     21  S   UNL     1       8.030  -3.380   1.431  0.00  0.00    -0.061 S 
ATOM     22  H   UNL     1       5.947  -5.466  -0.127  0.00  0.00    +0.167 HD
BRANCH  19  23
ATOM     23  C   UNL     1       8.163  -6.965  -0.159  0.00  0.00    -0.024 C 
BRANCH  23  24
ATOM     24  N   UNL     1       7.365  -7.947   0.586  0.00  0.00    +0.383 N 
ATOM     25  C   UNL     1       7.821  -7.989   1.981  0.00  0.00    -0.078 C 
ATOM     26  C   UNL     1       6.941  -8.952   2.780  0.00  0.00    -0.019 C 
ATOM     27  C   UNL     1       7.037 -10.352   2.168  0.00  0.00    -0.004 C 
ATOM     28  C   UNL     1       6.630 -10.282   0.693  0.00  0.00    -0.019 C 
ATOM     29  C   UNL     1       7.522  -9.271  -0.029  0.00  0.00    -0.078 C 
ATOM     30  H   UNL     1       6.393  -7.679   0.560  0.00  0.00    -0.081 HD
ENDBRANCH  23  24
ENDBRANCH  19  23
ENDBRANCH  14  16
ENDBRANCH   1  14
BRANCH   1  31
ATOM     31  C   UNL     1       3.711  -0.707  -0.038  0.00  0.00    +0.067 C 
BRANCH  31  35
ATOM     32  C   UNL     1      -0.017   1.378   0.010  0.00  0.00    +0.000 A 
ATOM     33  C   UNL     1       1.171   2.086   0.002  0.00  0.00    +0.000 A 
ATOM     34  C   UNL     1       2.377   1.411  -0.013  0.00  0.00    +0.004 A 
ATOM     35  C   UNL     1       2.396   0.029  -0.020  0.00  0.00    -0.045 A 
ATOM     36  C   UNL     1       1.208  -0.679  -0.012  0.00  0.00    +0.004 A 
ATOM     37  C   UNL     1       0.002  -0.004   0.002  0.00  0.00    +0.000 A 
ENDBRANCH  31  35
ENDBRANCH   1  31
TORSDOF 10
