REMARK  Name = ZINC20274695
REMARK  13 active torsions:
REMARK  status: ('A' for Active; 'I' for Inactive)
REMARK    1  A    between atoms: C_1  and  O_2
REMARK    2  A    between atoms: O_2  and  C_3
REMARK    3  A    between atoms: C_8  and  C_9
REMARK    4  A    between atoms: C_11  and  N_37
REMARK    5  A    between atoms: C_12  and  C_33
REMARK    6  A    between atoms: C_15  and  C_29
REMARK    7  A    between atoms: C_17  and  C_21
REMARK    8  A    between atoms: C_26  and  O_27
REMARK    9  A    between atoms: O_27  and  C_28
REMARK   10  A    between atoms: C_29  and  O_31
REMARK   11  A    between atoms: O_31  and  C_32
REMARK   12  A    between atoms: C_33  and  O_35
REMARK   13  A    between atoms: O_35  and  C_36
REMARK                            x       y       z     vdW  Elec       q    Type
REMARK                         _______ _______ _______ _____ _____    ______ ____
ROOT
ATOM      1  C   UNL     1      -0.267   1.115  -1.247  0.00  0.00    +0.023 C 
ATOM      2  C   UNL     1      -0.054  -0.077  -0.581  0.00  0.00    +0.024 A 
ATOM      3  C   UNL     1       1.202  -0.842  -0.495  0.00  0.00    +0.065 A 
ATOM      4  C   UNL     1       0.935  -1.984   0.228  0.00  0.00    +0.155 A 
ATOM      5  N   UNL     1      -0.418  -2.028   0.586  0.00  0.00    -0.270 N 
ATOM      6  C   UNL     1      -1.034  -0.854   0.187  0.00  0.00    +0.079 A 
ATOM      7  C   UNL     1      -2.340  -0.497   0.474  0.00  0.00    +0.118 C 
ATOM      8  S   UNL     1      -3.284  -1.587   1.500  0.00  0.00    -0.098 S 
ATOM      9  C   UNL     1      -2.526  -3.207   1.184  0.00  0.00    +0.174 C 
ATOM     10  C   UNL     1      -1.026  -3.072   1.185  0.00  0.00    +0.250 C 
ATOM     11  O   UNL     1      -0.353  -3.919   1.734  0.00  0.00    -0.271 OA
ENDROOT
BRANCH   1  17
ATOM     12  C   UNL     1       1.081   3.019  -2.114  0.00  0.00    +0.127 A 
ATOM     13  C   UNL     1       2.062   3.510  -2.960  0.00  0.00    +0.046 A 
ATOM     14  C   UNL     1       2.719   2.660  -3.829  0.00  0.00    +0.004 A 
ATOM     15  C   UNL     1       2.408   1.309  -3.860  0.00  0.00    +0.001 A 
ATOM     16  C   UNL     1       1.440   0.798  -3.025  0.00  0.00    +0.011 A 
ATOM     17  C   UNL     1       0.764   1.648  -2.138  0.00  0.00    +0.017 A 
BRANCH  12  19
ATOM     18  C   UNL     1       0.807   5.233  -1.298  0.00  0.00    +0.277 C 
ATOM     19  O   UNL     1       0.432   3.854  -1.265  0.00  0.00    -0.495 OA
ENDBRANCH  12  19
ENDBRANCH   1  17
BRANCH   9  20
ATOM     20  C   UNL     1      -2.943  -4.174   2.262  0.00  0.00    +0.017 A 
ATOM     21  C   UNL     1      -3.310  -3.704   3.508  0.00  0.00    +0.009 A 
ATOM     22  C   UNL     1      -3.698  -4.591   4.496  0.00  0.00    +0.001 A 
ATOM     23  C   UNL     1      -3.709  -5.950   4.243  0.00  0.00    +0.004 A 
ATOM     24  C   UNL     1      -3.338  -6.426   3.000  0.00  0.00    +0.046 A 
ATOM     25  C   UNL     1      -2.953  -5.537   2.005  0.00  0.00    +0.125 A 
BRANCH  25  26
ATOM     26  O   UNL     1      -2.587  -6.003   0.782  0.00  0.00    -0.495 OA
ATOM     27  C   UNL     1      -2.622  -7.418   0.589  0.00  0.00    +0.277 C 
ENDBRANCH  25  26
ENDBRANCH   9  20
BRANCH   3  28
ATOM     28  N   UNL     1       2.421  -0.479  -1.036  0.00  0.00    -0.356 N 
ATOM     29  H   UNL     1       3.296  -1.134  -0.908  0.00  0.00    +0.142 HD
ATOM     30  H   UNL     1       2.517   0.463  -1.595  0.00  0.00    +0.142 HD
ENDBRANCH   3  28
BRANCH   7  31
ATOM     31  C   UNL     1      -2.900   0.696  -0.034  0.00  0.00    +0.347 C 
ATOM     32  O   UNL     1      -2.912   1.703   0.651  0.00  0.00    -0.244 OA
BRANCH  31  33
ATOM     33  O   UNL     1      -3.422   0.721  -1.279  0.00  0.00    -0.464 OA
ATOM     34  C   UNL     1      -3.971   1.961  -1.728  0.00  0.00    +0.280 C 
ENDBRANCH  31  33
ENDBRANCH   7  31
BRANCH   4  35
ATOM     35  C   UNL     1       1.889  -2.972   0.554  0.00  0.00    +0.358 C 
ATOM     36  O   UNL     1       1.585  -4.150   0.507  0.00  0.00    -0.243 OA
BRANCH  35  37
ATOM     37  O   UNL     1       3.138  -2.611   0.920  0.00  0.00    -0.463 OA
ATOM     38  C   UNL     1       4.051  -3.663   1.237  0.00  0.00    +0.280 C 
ENDBRANCH  35  37
ENDBRANCH   4  35
TORSDOF 9
