REMARK  Name = ZINC39452916
REMARK  4 active torsions:
REMARK  status: ('A' for Active; 'I' for Inactive)
REMARK    1  A    between atoms: C_1  and  O_2
REMARK    2  A    between atoms: O_2  and  C_3
REMARK    3  A    between atoms: C_14  and  C_20
REMARK    4  A    between atoms: C_20  and  C_21
REMARK                            x       y       z     vdW  Elec       q    Type
REMARK                         _______ _______ _______ _____ _____    ______ ____
ROOT
ATOM      1  C   UNL     1      -1.295  -0.603   0.011  0.00  0.00    +0.210 C 
ATOM      2  C   UNL     1      -1.176  -2.091   0.361  0.00  0.00    +0.132 C 
ATOM      3  C   UNL     1      -2.507  -2.762   0.149  0.00  0.00    +0.187 C 
ATOM      4  O   UNL     1      -2.811  -3.724   0.826  0.00  0.00    -0.290 OA
ATOM      5  C   UNL     1      -3.407  -2.284  -0.831  0.00  0.00    +0.127 A 
ATOM      6  C   UNL     1      -3.091  -1.155  -1.560  0.00  0.00    +0.084 A 
ATOM      7  C   UNL     1      -4.025  -0.658  -2.586  0.00  0.00    +0.100 A 
ATOM      8  C   UNL     1      -5.239  -1.368  -2.780  0.00  0.00    +0.069 A 
ATOM      9  C   UNL     1      -6.156  -0.942  -3.730  0.00  0.00    +0.025 A 
ATOM     10  C   UNL     1      -5.837   0.202  -4.478  0.00  0.00    +0.005 A 
ATOM     11  C   UNL     1      -6.703   0.712  -5.460  0.00  0.00    -0.034 A 
ATOM     12  C   UNL     1      -6.343   1.824  -6.157  0.00  0.00    +0.004 A 
ATOM     13  C   UNL     1      -5.133   2.473  -5.920  0.00  0.00    +0.002 A 
ATOM     14  C   UNL     1      -4.253   2.028  -4.983  0.00  0.00    +0.028 A 
ATOM     15  C   UNL     1      -4.565   0.883  -4.226  0.00  0.00    +0.072 A 
ATOM     16  N   UNL     1      -3.732   0.415  -3.296  0.00  0.00    -0.245 NA
ATOM     17  C   UNL     1      -5.504  -2.559  -1.956  0.00  0.00    +0.276 A 
ATOM     18  O   UNL     1      -6.538  -3.182  -2.104  0.00  0.00    -0.266 OA
ATOM     19  N   UNL     1      -4.606  -2.958  -1.039  0.00  0.00    -0.213 N 
ATOM     20 CL   UNL     1      -4.948  -4.343  -0.097  0.00  0.00    +0.022 Cl
ATOM     21  N   UNL     1      -1.903  -0.491  -1.324  0.00  0.00    -0.315 N 
ATOM     22  H   UNL     1      -1.480   0.035  -2.020  0.00  0.00    +0.149 HD
ENDROOT
BRANCH   1  24
ATOM     23  C   UNL     1      -0.017   1.425   0.010  0.00  0.00    +0.196 C 
ATOM     24  O   UNL     1       0.002  -0.004   0.002  0.00  0.00    -0.362 OA
ENDBRANCH   1  24
BRANCH  11  25
ATOM     25  C   UNL     1      -8.019   0.033  -5.740  0.00  0.00    +0.071 C 
BRANCH  25  26
ATOM     26  C   UNL     1      -9.059   0.535  -4.772  0.00  0.00    -0.043 A 
ATOM     27  C   UNL     1      -9.243  -0.106  -3.561  0.00  0.00    +0.004 A 
ATOM     28  C   UNL     1     -10.197   0.355  -2.673  0.00  0.00    +0.000 A 
ATOM     29  C   UNL     1     -10.966   1.457  -2.995  0.00  0.00    +0.000 A 
ATOM     30  C   UNL     1     -10.782   2.098  -4.206  0.00  0.00    +0.000 A 
ATOM     31  C   UNL     1      -9.825   1.640  -5.092  0.00  0.00    +0.004 A 
ENDBRANCH  25  26
ENDBRANCH  11  25
TORSDOF 3
