REMARK  Name = ZINC38654569
REMARK  8 active torsions:
REMARK  status: ('A' for Active; 'I' for Inactive)
REMARK    1  A    between atoms: C_3  and  N_34
REMARK    2  A    between atoms: C_6  and  C_7
REMARK    3  A    between atoms: C_12  and  O_21
REMARK    4  A    between atoms: C_16  and  N_20
REMARK    5  A    between atoms: C_17  and  C_18
REMARK    6  A    between atoms: O_21  and  C_22
REMARK    7  A    between atoms: C_22  and  C_24
REMARK    8  A    between atoms: C_25  and  C_26
REMARK                            x       y       z     vdW  Elec       q    Type
REMARK                         _______ _______ _______ _____ _____    ______ ____
ROOT
ATOM      1  C   UNL     1      -1.305  -0.827  -0.026  0.00  0.00    +0.098 C 
ATOM      2  C   UNL     1      -1.359  -1.680   1.214  0.00  0.00    +0.008 A 
ATOM      3  C   UNL     1      -1.550  -1.079   2.446  0.00  0.00    +0.012 A 
ATOM      4  C   UNL     1      -1.602  -1.845   3.593  0.00  0.00    +0.047 A 
ATOM      5  C   UNL     1      -1.464  -3.224   3.514  0.00  0.00    +0.135 A 
ATOM      6  C   UNL     1      -1.273  -3.829   2.282  0.00  0.00    +0.093 A 
ATOM      7  C   UNL     1      -1.220  -3.056   1.129  0.00  0.00    +0.138 A 
ATOM      8  O   UNL     1      -1.032  -3.663  -0.069  0.00  0.00    -0.441 OA
ATOM      9  C   UNL     1      -1.358  -3.022  -1.204  0.00  0.00    +0.199 C 
ATOM     10  C   UNL     1      -1.501  -1.679  -1.248  0.00  0.00    +0.098 C 
ENDROOT
BRANCH   1  16
ATOM     11  C   UNL     1       0.109   1.237  -0.108  0.00  0.00    +0.007 A 
ATOM     12  C   UNL     1       1.339   1.863  -0.179  0.00  0.00    +0.033 A 
ATOM     13  C   UNL     1       2.496   1.110  -0.245  0.00  0.00    +0.126 A 
ATOM     14  C   UNL     1       2.423  -0.271  -0.240  0.00  0.00    +0.033 A 
ATOM     15  C   UNL     1       1.193  -0.897  -0.168  0.00  0.00    +0.007 A 
ATOM     16  C   UNL     1       0.036  -0.144  -0.103  0.00  0.00    -0.035 A 
BRANCH  13  17
ATOM     17  N   UNL     1       3.813   1.781  -0.322  0.00  0.00    +0.056 N 
ATOM     18  O   UNL     1       3.877   2.988  -0.327  0.00  0.00    -0.126 OA
ATOM     19  O   UNL     1       4.825   1.122  -0.380  0.00  0.00    -0.126 OA
ENDBRANCH  13  17
ENDBRANCH   1  16
BRANCH   9  20
ATOM     20  N   UNL     1      -1.549  -3.752  -2.350  0.00  0.00    -0.328 N 
ATOM     21  H   UNL     1      -1.448  -4.717  -2.333  0.00  0.00    +0.145 HD
ATOM     22  H   UNL     1      -1.784  -3.303  -3.178  0.00  0.00    +0.145 HD
ENDBRANCH   9  20
BRANCH  10  23
ATOM     23  C   UNL     1      -1.847  -1.056  -2.490  0.00  0.00    +0.101 C 
ATOM     24  N   UNL     1      -2.122  -0.561  -3.475  0.00  0.00    -0.191 NA
ENDBRANCH  10  23
BRANCH   5  25
ATOM     25  O   UNL     1      -1.516  -3.979   4.642  0.00  0.00    -0.423 OA
BRANCH  25  26
ATOM     26  C   UNL     1      -0.379  -4.575   5.058  0.00  0.00    +0.337 C 
ATOM     27  O   UNL     1       0.671  -4.345   4.490  0.00  0.00    -0.245 OA
BRANCH  26  28
ATOM     28  C   UNL     1      -0.410  -5.497   6.192  0.00  0.00    +0.092 C 
ATOM     29  C   UNL     1       0.727  -6.093   6.608  0.00  0.00    +0.016 C 
BRANCH  29  30
ATOM     30  C   UNL     1       0.696  -7.021   7.749  0.00  0.00    -0.006 A 
ATOM     31  C   UNL     1      -0.512  -7.293   8.401  0.00  0.00    +0.011 A 
ATOM     32  C   UNL     1      -0.534  -8.164   9.469  0.00  0.00    +0.020 A 
ATOM     33  C   UNL     1       0.636  -8.770   9.898  0.00  0.00    +0.042 A 
ATOM     34  C   UNL     1       1.836  -8.507   9.258  0.00  0.00    +0.040 A 
ATOM     35  C   UNL     1       1.873  -7.641   8.184  0.00  0.00    +0.049 A 
ATOM     36 CL   UNL     1       3.377  -7.317   7.378  0.00  0.00    -0.083 Cl
ATOM     37 CL   UNL     1       0.598  -9.866  11.244  0.00  0.00    -0.083 Cl
ENDBRANCH  29  30
ENDBRANCH  26  28
ENDBRANCH  25  26
ENDBRANCH   5  25
TORSDOF 8
