REMARK  Name = ZINC37053281
REMARK  4 active torsions:
REMARK  status: ('A' for Active; 'I' for Inactive)
REMARK    1  A    between atoms: C_5  and  N_7
REMARK    2  A    between atoms: N_7  and  S_8
REMARK    3  A    between atoms: S_8  and  C_11
REMARK    4  A    between atoms: C_12  and  N_19
REMARK                            x       y       z     vdW  Elec       q    Type
REMARK                         _______ _______ _______ _____ _____    ______ ____
ROOT
ATOM      1  S   UNL     1      -0.564  -3.048   0.010  0.00  0.00    +0.095 S 
ATOM      2  O   UNL     1      -1.055  -2.822   1.324  0.00  0.00    -0.148 OA
ATOM      3  O   UNL     1      -1.382  -2.909  -1.144  0.00  0.00    -0.148 OA
ENDROOT
BRANCH   1   4
ATOM      4  C   UNL     1       0.067  -4.693  -0.016  0.00  0.00    +0.149 A 
ATOM      5  C   UNL     1       0.291  -5.332  -1.229  0.00  0.00    +0.054 A 
ATOM      6  C   UNL     1       0.789  -6.629  -1.246  0.00  0.00    +0.044 A 
ATOM      7  C   UNL     1       1.060  -7.279  -0.057  0.00  0.00    +0.044 A 
ATOM      8  C   UNL     1       0.836  -6.640   1.150  0.00  0.00    +0.042 A 
ATOM      9  C   UNL     1       0.345  -5.346   1.169  0.00  0.00    +0.071 A 
ATOM     10 CL   UNL     1       0.072  -4.545   2.685  0.00  0.00    -0.081 Cl
ATOM     11 CL   UNL     1       1.682  -8.900  -0.077  0.00  0.00    -0.083 Cl
BRANCH   5  12
ATOM     12  N   UNL     1       0.016  -4.673  -2.429  0.00  0.00    -0.356 N 
ATOM     13  H   UNL     1      -0.143  -3.716  -2.431  0.00  0.00    +0.142 HD
ATOM     14  H   UNL     1      -0.015  -5.172  -3.260  0.00  0.00    +0.142 HD
ENDBRANCH   5  12
ENDBRANCH   1   4
BRANCH   1  15
ATOM     15  N   UNL     1       0.723  -2.027  -0.196  0.00  0.00    -0.097 NA
BRANCH  15  20
ATOM     16  C   UNL     1      -0.954   1.242  -0.089  0.00  0.00    +0.002 A 
ATOM     17  C   UNL     1       0.121   2.094  -0.261  0.00  0.00    +0.001 A 
ATOM     18  C   UNL     1       1.397   1.581  -0.411  0.00  0.00    +0.017 A 
ATOM     19  C   UNL     1       1.600   0.214  -0.390  0.00  0.00    +0.042 A 
ATOM     20  C   UNL     1       0.521  -0.644  -0.218  0.00  0.00    +0.088 A 
ATOM     21  C   UNL     1      -0.758  -0.125  -0.067  0.00  0.00    +0.028 A 
ATOM     22 BR   UNL     1       3.344  -0.486  -0.597  0.00  0.00    -0.048 Br
ENDBRANCH  15  20
ENDBRANCH   1  15
TORSDOF 4
