REMARK  Name = ZINC08444252
REMARK  12 active torsions:
REMARK  status: ('A' for Active; 'I' for Inactive)
REMARK    1  A    between atoms: C_1  and  C_2
REMARK    2  A    between atoms: C_3  and  C_25
REMARK    3  A    between atoms: C_15  and  C_19
REMARK    4  A    between atoms: C_16  and  N_18
REMARK    5  A    between atoms: C_19  and  O_21
REMARK    6  A    between atoms: O_21  and  C_22
REMARK    7  A    between atoms: C_22  and  C_23
REMARK    8  A    between atoms: C_22  and  C_24
REMARK    9  A    between atoms: C_25  and  O_27
REMARK   10  A    between atoms: O_27  and  C_28
REMARK   11  A    between atoms: C_28  and  C_29
REMARK   12  A    between atoms: C_28  and  C_30
REMARK                            x       y       z     vdW  Elec       q    Type
REMARK                         _______ _______ _______ _____ _____    ______ ____
ROOT
ATOM      1  C   UNL     1       2.128   5.652  -2.471  0.00  0.00    +0.087 C 
ATOM      2  C   UNL     1       1.624   5.058  -1.181  0.00  0.00    +0.116 C 
ATOM      3  C   UNL     1       1.091   3.829  -1.198  0.00  0.00    +0.098 C 
ATOM      4  C   UNL     1       0.577   3.195   0.062  0.00  0.00    +0.145 C 
ATOM      5  C   UNL     1      -0.931   3.175   0.067  0.00  0.00    -0.001 A 
ATOM      6  C   UNL     1      -1.885   4.167   0.032  0.00  0.00    +0.022 A 
ATOM      7  C   UNL     1      -3.229   3.835   0.046  0.00  0.00    +0.018 A 
ATOM      8  C   UNL     1      -3.608   2.505   0.094  0.00  0.00    +0.017 A 
ATOM      9  C   UNL     1      -2.655   1.509   0.129  0.00  0.00    +0.025 A 
ATOM     10  C   UNL     1      -1.300   1.835   0.111  0.00  0.00    +0.038 A 
ATOM     11  N   UNL     1      -0.165   1.023   0.145  0.00  0.00    -0.284 N 
ATOM     12  C   UNL     1       0.973   1.739   0.118  0.00  0.00    +0.237 C 
ATOM     13  O   UNL     1       2.103   1.298   0.135  0.00  0.00    -0.274 OA
ATOM     14 BR   UNL     1      -4.542   5.194  -0.002  0.00  0.00    -0.050 Br
ATOM     15  C   UNL     1       1.097   3.925   1.267  0.00  0.00    +0.117 C 
ATOM     16  C   UNL     1       1.639   5.166   1.138  0.00  0.00    +0.195 C 
ATOM     17  O   UNL     1       1.724   5.778  -0.054  0.00  0.00    -0.446 OA
ATOM     18  H   UNL     1      -0.194   0.054   0.181  0.00  0.00    +0.155 HD
ENDROOT
BRANCH  16  19
ATOM     19  N   UNL     1       2.110   5.807   2.253  0.00  0.00    -0.329 N 
ATOM     20  H   UNL     1       2.565   5.304   2.946  0.00  0.00    +0.145 HD
ATOM     21  H   UNL     1       1.988   6.764   2.349  0.00  0.00    +0.145 HD
ENDBRANCH  16  19
BRANCH  15  22
ATOM     22  C   UNL     1       1.023   3.324   2.533  0.00  0.00    +0.342 C 
ATOM     23  O   UNL     1       1.517   3.877   3.499  0.00  0.00    -0.245 OA
BRANCH  22  24
ATOM     24  O   UNL     1       0.404   2.133   2.679  0.00  0.00    -0.458 OA
BRANCH  24  25
ATOM     25  C   UNL     1       0.366   1.579   3.996  0.00  0.00    +0.171 C 
ATOM     26  C   UNL     1      -0.897   0.731   4.157  0.00  0.00    +0.052 C 
ATOM     27  C   UNL     1       1.601   0.703   4.217  0.00  0.00    +0.052 C 
ENDBRANCH  24  25
ENDBRANCH  22  24
ENDBRANCH  15  22
BRANCH   3  28
ATOM     28  C   UNL     1       1.010   3.118  -2.421  0.00  0.00    +0.340 C 
ATOM     29  O   UNL     1       1.424   3.625  -3.447  0.00  0.00    -0.245 OA
BRANCH  28  30
ATOM     30  O   UNL     1       0.474   1.880  -2.449  0.00  0.00    -0.459 OA
BRANCH  30  31
ATOM     31  C   UNL     1       0.425   1.222  -3.716  0.00  0.00    +0.171 C 
ATOM     32  C   UNL     1       1.711   0.419  -3.924  0.00  0.00    +0.052 C 
ATOM     33  C   UNL     1      -0.778   0.279  -3.755  0.00  0.00    +0.052 C 
ENDBRANCH  30  31
ENDBRANCH  28  30
ENDBRANCH   3  28
TORSDOF 7
