REMARK  Name = ZINC40826405
REMARK  9 active torsions:
REMARK  status: ('A' for Active; 'I' for Inactive)
REMARK    1  A    between atoms: C_1  and  C_2
REMARK    2  A    between atoms: C_6  and  C_7
REMARK    3  A    between atoms: N_9  and  C_10
REMARK    4  A    between atoms: N_9  and  C_17
REMARK    5  A    between atoms: C_10  and  C_11
REMARK    6  A    between atoms: C_17  and  C_18
REMARK    7  A    between atoms: N_28  and  N_29
REMARK    8  A    between atoms: C_30  and  C_32
REMARK    9  A    between atoms: C_37  and  O_38
REMARK                            x       y       z     vdW  Elec       q    Type
REMARK                         _______ _______ _______ _____ _____    ______ ____
ROOT
ATOM      1  C   UNL     1       0.052   1.516   0.032  0.00  0.00    +0.048 C 
ATOM      2  C   UNL     1       0.092   0.010   0.017  0.00  0.00    +0.009 A 
ATOM      3  C   UNL     1       0.136  -0.819  -1.111  0.00  0.00    +0.042 A 
ATOM      4  C   UNL     1       0.161  -2.120  -0.666  0.00  0.00    +0.115 A 
ATOM      5  O   UNL     1       0.138  -2.100   0.664  0.00  0.00    -0.454 OA
ATOM      6  C   UNL     1       0.100  -0.821   1.102  0.00  0.00    +0.193 A 
ATOM      7  C   UNL     1       0.204  -3.304  -1.598  0.00  0.00    +0.075 C 
ATOM      8  C   UNL     1      -0.294  -2.881  -2.982  0.00  0.00    +0.014 C 
ATOM      9  C   UNL     1       0.472  -1.651  -3.480  0.00  0.00    +0.058 C 
ATOM     10  C   UNL     1       0.157  -0.486  -2.553  0.00  0.00    +0.070 C 
ATOM     11  N   UNL     1      -0.076   0.712  -2.994  0.00  0.00    -0.184 NA
ENDROOT
BRANCH  11  12
ATOM     12  N   UNL     1      -0.043   0.970  -4.371  0.00  0.00    -0.203 N 
ATOM     13  C   UNL     1      -0.285   2.213  -4.829  0.00  0.00    +0.267 C 
ATOM     14  O   UNL     1      -0.533   3.112  -4.048  0.00  0.00    -0.268 OA
ATOM     15  H   UNL     1       0.155   0.253  -4.994  0.00  0.00    +0.178 HD
BRANCH  13  16
ATOM     16  C   UNL     1      -0.250   2.485  -6.279  0.00  0.00    +0.080 A 
ATOM     17  C   UNL     1       0.029   1.455  -7.180  0.00  0.00    +0.017 A 
ATOM     18  C   UNL     1       0.060   1.715  -8.533  0.00  0.00    +0.001 A 
ATOM     19  C   UNL     1      -0.184   2.995  -9.004  0.00  0.00    +0.004 A 
ATOM     20  C   UNL     1      -0.460   4.022  -8.124  0.00  0.00    +0.046 A 
ATOM     21  C   UNL     1      -0.502   3.777  -6.760  0.00  0.00    +0.129 A 
BRANCH  21  22
ATOM     22  O   UNL     1      -0.780   4.785  -5.895  0.00  0.00    -0.506 OA
ATOM     23  H   UNL     1       0.001   5.265  -5.587  0.00  0.00    +0.292 HD
ENDBRANCH  21  22
ENDBRANCH  13  16
ENDBRANCH  11  12
BRANCH   6  24
ATOM     24  C   UNL     1       0.069  -0.397   2.507  0.00  0.00    +0.283 C 
ATOM     25  O   UNL     1       0.150   0.784   2.787  0.00  0.00    -0.267 OA
ATOM     26  N   UNL     1      -0.049  -1.316   3.486  0.00  0.00    -0.286 N 
BRANCH  26  27
ATOM     27  C   UNL     1      -0.195  -0.887   4.879  0.00  0.00    +0.143 C 
BRANCH  27  28
ATOM     28  C   UNL     1      -1.657  -0.722   5.203  0.00  0.00    -0.030 A 
ATOM     29  C   UNL     1      -2.277   0.497   5.000  0.00  0.00    +0.005 A 
ATOM     30  C   UNL     1      -3.619   0.648   5.297  0.00  0.00    +0.000 A 
ATOM     31  C   UNL     1      -4.340  -0.419   5.797  0.00  0.00    +0.000 A 
ATOM     32  C   UNL     1      -3.721  -1.638   6.000  0.00  0.00    +0.000 A 
ATOM     33  C   UNL     1      -2.380  -1.791   5.699  0.00  0.00    +0.005 A 
ENDBRANCH  27  28
ENDBRANCH  26  27
BRANCH  26  34
ATOM     34  C   UNL     1      -0.031  -2.743   3.157  0.00  0.00    +0.143 C 
BRANCH  34  35
ATOM     35  C   UNL     1       1.377  -3.268   3.273  0.00  0.00    -0.030 A 
ATOM     36  C   UNL     1       2.183  -3.337   2.152  0.00  0.00    +0.005 A 
ATOM     37  C   UNL     1       3.475  -3.818   2.259  0.00  0.00    +0.000 A 
ATOM     38  C   UNL     1       3.959  -4.231   3.486  0.00  0.00    +0.000 A 
ATOM     39  C   UNL     1       3.153  -4.161   4.607  0.00  0.00    +0.000 A 
ATOM     40  C   UNL     1       1.863  -3.676   4.501  0.00  0.00    +0.005 A 
ENDBRANCH  34  35
ENDBRANCH  26  34
ENDBRANCH   6  24
TORSDOF 8
