REMARK  Name = ZINC14995338
REMARK  4 active torsions:
REMARK  status: ('A' for Active; 'I' for Inactive)
REMARK    1  A    between atoms: C_1  and  C_2
REMARK    2  A    between atoms: C_16  and  N_54
REMARK    3  A    between atoms: C_20  and  C_21
REMARK    4  A    between atoms: C_20  and  N_54
REMARK                            x       y       z     vdW  Elec       q    Type
REMARK                         _______ _______ _______ _____ _____    ______ ____
ROOT
ATOM      1  C   UNL     1       7.207  -1.026   1.278  0.00  0.00    +0.066 C 
ATOM      2  C   UNL     1       6.219   0.084   1.025  0.00  0.00    +0.051 A 
ATOM      3  C   UNL     1       6.618   1.268   0.376  0.00  0.00    +0.024 A 
ATOM      4  C   UNL     1       7.935   1.469  -0.061  0.00  0.00    +0.050 A 
ATOM      5  C   UNL     1       8.264   2.637  -0.685  0.00  0.00    +0.124 A 
ATOM      6  C   UNL     1       7.309   3.632  -0.894  0.00  0.00    +0.040 A 
ATOM      7  C   UNL     1       6.021   3.467  -0.482  0.00  0.00    +0.031 A 
ATOM      8  C   UNL     1       5.646   2.280   0.163  0.00  0.00    +0.076 A 
ATOM      9  N   UNL     1       4.392   2.067   0.582  0.00  0.00    -0.214 NA
ATOM     10  C   UNL     1       4.078   0.939   1.189  0.00  0.00    +0.219 A 
ATOM     11  N   UNL     1       4.964  -0.032   1.405  0.00  0.00    -0.219 NA
ATOM     12  N   UNL     1       2.774   0.754   1.613  0.00  0.00    -0.300 N 
ATOM     13  C   UNL     1       2.198  -0.480   1.035  0.00  0.00    +0.108 C 
ATOM     14  C   UNL     1       0.712  -0.584   1.243  0.00  0.00    +0.017 C 
ATOM     15  C   UNL     1       0.002  -0.004   0.002  0.00  0.00    -0.014 C 
ATOM     16  C   UNL     1      -0.018   1.455   0.010  0.00  0.00    -0.070 C 
ATOM     17  C   UNL     1       1.403   2.057  -0.000  0.00  0.00    +0.003 C 
ATOM     18  C   UNL     1       1.966   1.974   1.392  0.00  0.00    +0.106 C 
ATOM     19  F   UNL     1       9.533   2.832  -1.107  0.00  0.00    -0.205 F 
ENDROOT
BRANCH  16  20
ATOM     20  N   UNL     1      -0.746   1.923  -1.184  0.00  0.00    +0.384 N 
ATOM     21  H   UNL     1      -1.509   1.268  -1.394  0.00  0.00    -0.085 HD
ATOM     22  H   UNL     1      -0.100   1.961  -1.982  0.00  0.00    -0.085 HD
BRANCH  20  23
ATOM     23  C   UNL     1      -1.308   3.266  -0.948  0.00  0.00    -0.046 C 
BRANCH  23  24
ATOM     24  C   UNL     1      -2.044   3.717  -2.183  0.00  0.00    -0.061 A 
ATOM     25  C   UNL     1      -1.376   4.424  -3.165  0.00  0.00    +0.005 A 
ATOM     26  C   UNL     1      -2.046   4.835  -4.302  0.00  0.00    +0.050 A 
ATOM     27  C   UNL     1      -3.393   4.550  -4.454  0.00  0.00    +0.166 A 
ATOM     28  C   UNL     1      -4.068   3.843  -3.462  0.00  0.00    +0.166 A 
ATOM     29  C   UNL     1      -3.389   3.429  -2.328  0.00  0.00    +0.051 A 
ATOM     30  O   UNL     1      -5.370   3.691  -3.843  0.00  0.00    -0.453 OA
ATOM     31  C   UNL     1      -5.582   4.663  -4.884  0.00  0.00    +0.466 C 
ATOM     32  O   UNL     1      -4.272   4.841  -5.457  0.00  0.00    -0.453 OA
ENDBRANCH  23  24
ENDBRANCH  20  23
ENDBRANCH  16  20
TORSDOF 3
