REMARK  Name = ZINC39695931
REMARK  8 active torsions:
REMARK  status: ('A' for Active; 'I' for Inactive)
REMARK    1  A    between atoms: C_1  and  C_2
REMARK    2  A    between atoms: C_2  and  C_3
REMARK    3  A    between atoms: C_6  and  C_9
REMARK    4  A    between atoms: C_9  and  C_11
REMARK    5  A    between atoms: C_9  and  N_12
REMARK    6  A    between atoms: C_13  and  C_15
REMARK    7  A    between atoms: C_26  and  C_28
REMARK    8  A    between atoms: C_34  and  C_36
REMARK                            x       y       z     vdW  Elec       q    Type
REMARK                         _______ _______ _______ _____ _____    ______ ____
ROOT
ATOM      1  C   UNL     1      -8.330  -0.554  -1.977  0.00  0.00    +0.100 C 
ATOM      2  C   UNL     1      -8.015   0.958  -2.002  0.00  0.00    +0.121 C 
ATOM      3  N   UNL     1      -9.312   1.606  -2.306  0.00  0.00    -0.299 N 
ATOM      4  C   UNL     1     -10.306   0.822  -1.534  0.00  0.00    +0.115 C 
ATOM      5  C   UNL     1      -9.834  -0.640  -1.669  0.00  0.00    -0.004 C 
ATOM      6  C   UNL     1     -10.064  -1.390  -0.360  0.00  0.00    -0.010 C 
ATOM      7  C   UNL     1     -11.568  -1.513  -0.105  0.00  0.00    -0.082 C 
ATOM      8  N   UNL     1     -12.199  -2.229  -1.221  0.00  0.00    +0.379 N 
ATOM      9  C   UNL     1     -12.054  -1.454  -2.459  0.00  0.00    -0.082 C 
ATOM     10  C   UNL     1     -10.570  -1.329  -2.814  0.00  0.00    -0.010 C 
ATOM     11  C   UNL     1      -9.538   2.667  -3.105  0.00  0.00    +0.236 C 
ATOM     12  O   UNL     1     -10.667   3.084  -3.254  0.00  0.00    -0.274 OA
ATOM     13  H   UNL     1     -11.757  -3.129  -1.335  0.00  0.00    -0.086 HD
ATOM     14  H   UNL     1     -13.179  -2.362  -1.022  0.00  0.00    -0.086 HD
ENDROOT
BRANCH  11  15
ATOM     15  C   UNL     1      -8.388   3.336  -3.813  0.00  0.00    +0.162 C 
ATOM     16  C   UNL     1      -7.656   4.287  -2.843  0.00  0.00    +0.033 C 
ATOM     17  C   UNL     1      -7.300   5.498  -3.745  0.00  0.00    +0.021 C 
ATOM     18  C   UNL     1      -8.533   5.561  -4.681  0.00  0.00    +0.109 C 
ATOM     19  N   UNL     1      -8.893   4.150  -4.929  0.00  0.00    -0.283 N 
ATOM     20  C   UNL     1      -9.570   3.684  -5.997  0.00  0.00    +0.320 C 
ATOM     21  O   UNL     1      -9.809   2.499  -6.094  0.00  0.00    -0.266 OA
BRANCH  20  22
ATOM     22  C   UNL     1     -10.030   4.636  -7.071  0.00  0.00    +0.470 C 
ATOM     23  F   UNL     1     -10.704   3.923  -8.068  0.00  0.00    -0.162 F 
ATOM     24  F   UNL     1     -10.891   5.587  -6.514  0.00  0.00    -0.162 F 
ATOM     25  F   UNL     1      -8.920   5.281  -7.629  0.00  0.00    -0.162 F 
ENDBRANCH  20  22
ENDBRANCH  11  15
BRANCH   1  27
ATOM     26  N   UNL     1      -7.184  -2.533  -1.033  0.00  0.00    -0.308 N 
ATOM     27  C   UNL     1      -7.533  -1.239  -0.896  0.00  0.00    +0.219 C 
ATOM     28  O   UNL     1      -7.206  -0.624   0.097  0.00  0.00    -0.275 OA
ATOM     29  H   UNL     1      -7.446  -3.025  -1.828  0.00  0.00    +0.149 HD
BRANCH  26  30
ATOM     30  C   UNL     1      -6.409  -3.198   0.018  0.00  0.00    +0.100 C 
ATOM     31  C   UNL     1      -7.359  -3.721   1.098  0.00  0.00    +0.033 C 
BRANCH  30  35
ATOM     32  C   UNL     1      -4.235  -6.467  -1.667  0.00  0.00    -0.048 A 
ATOM     33  C   UNL     1      -3.644  -5.663  -0.711  0.00  0.00    +0.004 A 
ATOM     34  C   UNL     1      -4.347  -4.605  -0.166  0.00  0.00    +0.006 A 
ATOM     35  C   UNL     1      -5.642  -4.351  -0.577  0.00  0.00    -0.027 A 
ATOM     36  C   UNL     1      -6.234  -5.155  -1.534  0.00  0.00    +0.006 A 
ATOM     37  C   UNL     1      -5.529  -6.210  -2.082  0.00  0.00    +0.004 A 
BRANCH  32  39
ATOM     38  C   UNL     1      -2.704  -7.141  -3.497  0.00  0.00    +0.009 C 
ATOM     39  C   UNL     1      -3.468  -7.620  -2.261  0.00  0.00    +0.032 C 
ENDBRANCH  32  39
ENDBRANCH  30  35
ENDBRANCH  26  30
ENDBRANCH   1  27
TORSDOF 6
