REMARK  Name = ZINC35141837
REMARK  12 active torsions:
REMARK  status: ('A' for Active; 'I' for Inactive)
REMARK    1  A    between atoms: C_1  and  C_2
REMARK    2  A    between atoms: N_8  and  C_9
REMARK    3  A    between atoms: C_9  and  C_10
REMARK    4  A    between atoms: C_10  and  C_11
REMARK    5  A    between atoms: C_11  and  N_12
REMARK    6  A    between atoms: C_13  and  C_15
REMARK    7  A    between atoms: C_15  and  C_16
REMARK    8  A    between atoms: C_16  and  C_17
REMARK    9  A    between atoms: C_17  and  C_18
REMARK   10  A    between atoms: C_18  and  S_19
REMARK   11  A    between atoms: S_19  and  C_20
REMARK   12  A    between atoms: N_30  and  C_31
REMARK                            x       y       z     vdW  Elec       q    Type
REMARK                         _______ _______ _______ _____ _____    ______ ____
ROOT
ATOM      1  C   UNL     1      -0.442  -1.259  13.148  0.00  0.00    +0.077 C 
ENDROOT
BRANCH   1   2
ATOM      2  C   UNL     1      -0.215  -2.438  12.200  0.00  0.00    +0.012 C 
BRANCH   2   3
ATOM      3  C   UNL     1      -1.379  -2.529  11.211  0.00  0.00    +0.010 C 
BRANCH   3   4
ATOM      4  C   UNL     1      -1.153  -3.708  10.263  0.00  0.00    +0.096 C 
BRANCH   4   6
ATOM      5  N   UNL     1      -2.315  -4.766   8.353  0.00  0.00    -0.315 N 
ATOM      6  C   UNL     1      -2.300  -3.797   9.289  0.00  0.00    +0.213 C 
ATOM      7  O   UNL     1      -3.208  -2.996   9.348  0.00  0.00    -0.276 OA
ATOM      8  H   UNL     1      -1.588  -5.407   8.306  0.00  0.00    +0.149 HD
BRANCH   5   9
ATOM      9  C   UNL     1      -3.430  -4.853   7.406  0.00  0.00    +0.102 C 
BRANCH   9  10
ATOM     10  C   UNL     1      -3.203  -6.032   6.458  0.00  0.00    +0.000 C 
BRANCH  10  11
ATOM     11  C   UNL     1      -4.367  -6.122   5.469  0.00  0.00    -0.077 C 
BRANCH  11  18
ATOM     12  C   UNL     1      -5.216  -5.928   2.800  0.00  0.00    -0.013 C 
ATOM     13  C   UNL     1      -5.204  -7.269   3.538  0.00  0.00    -0.072 C 
ATOM     14  C   UNL     1      -4.936  -8.397   2.539  0.00  0.00    -0.016 C 
ATOM     15  C   UNL     1      -4.925  -9.736   3.282  0.00  0.00    -0.003 C 
ATOM     16  C   UNL     1      -3.874  -9.683   4.394  0.00  0.00    -0.019 C 
ATOM     17  C   UNL     1      -4.181  -8.507   5.323  0.00  0.00    -0.078 C 
ATOM     18  N   UNL     1      -4.150  -7.255   4.559  0.00  0.00    +0.381 N 
ATOM     19  H   UNL     1      -3.251  -7.156   4.112  0.00  0.00    -0.081 HD
ENDBRANCH  11  18
ENDBRANCH  10  11
ENDBRANCH   9  10
ENDBRANCH   5   9
ENDBRANCH   4   6
ENDBRANCH   3   4
ENDBRANCH   2   3
ENDBRANCH   1   2
BRANCH   1  20
ATOM     20  S   UNL     1       0.939  -1.152  14.320  0.00  0.00    -0.087 S 
BRANCH  20  21
ATOM     21  C   UNL     1       0.534   0.235  15.329  0.00  0.00    +0.177 A 
ATOM     22  N   UNL     1      -0.580   0.880  15.087  0.00  0.00    -0.223 NA
ATOM     23  C   UNL     1      -0.951   1.949  15.820  0.00  0.00    +0.079 A 
ATOM     24  C   UNL     1      -2.141   2.636  15.562  0.00  0.00    +0.028 A 
ATOM     25  C   UNL     1      -2.479   3.715  16.330  0.00  0.00    +0.002 A 
ATOM     26  C   UNL     1      -1.657   4.141  17.365  0.00  0.00    +0.001 A 
ATOM     27  C   UNL     1      -0.487   3.489  17.642  0.00  0.00    +0.015 A 
ATOM     28  C   UNL     1      -0.117   2.385  16.875  0.00  0.00    +0.065 A 
ATOM     29  C   UNL     1       1.127   1.648  17.126  0.00  0.00    +0.267 A 
ATOM     30  O   UNL     1       1.886   1.976  18.020  0.00  0.00    -0.267 OA
ATOM     31  N   UNL     1       1.396   0.586  16.331  0.00  0.00    -0.255 N 
BRANCH  31  32
ATOM     32  C   UNL     1       2.568  -0.156  16.533  0.00  0.00    +0.052 A 
ATOM     33  C   UNL     1       3.738   0.200  15.875  0.00  0.00    +0.028 A 
ATOM     34  C   UNL     1       4.892  -0.532  16.076  0.00  0.00    +0.022 A 
ATOM     35  C   UNL     1       4.882  -1.620  16.932  0.00  0.00    +0.041 A 
ATOM     36  C   UNL     1       3.717  -1.976  17.588  0.00  0.00    +0.022 A 
ATOM     37  C   UNL     1       2.562  -1.244  17.395  0.00  0.00    +0.028 A 
ATOM     38 CL   UNL     1       6.334  -2.538  17.181  0.00  0.00    -0.084 Cl
ENDBRANCH  31  32
ENDBRANCH  20  21
ENDBRANCH   1  20
TORSDOF 11
