REMARK  Name = ZINC33006835
REMARK  10 active torsions:
REMARK  status: ('A' for Active; 'I' for Inactive)
REMARK    1  A    between atoms: C_1  and  C_2
REMARK    2  A    between atoms: C_5  and  C_8
REMARK    3  A    between atoms: C_8  and  N_9
REMARK    4  A    between atoms: C_17  and  S_20
REMARK    5  A    between atoms: S_20  and  C_21
REMARK    6  A    between atoms: C_21  and  C_22
REMARK    7  A    between atoms: N_24  and  C_25
REMARK    8  A    between atoms: C_25  and  C_26
REMARK    9  A    between atoms: C_26  and  N_27
REMARK   10  A    between atoms: C_32  and  C_34
REMARK                            x       y       z     vdW  Elec       q    Type
REMARK                         _______ _______ _______ _____ _____    ______ ____
ROOT
ATOM      1  N   UNL     1       7.655  10.798  -4.304  0.00  0.00    -0.300 N 
ATOM      2  C   UNL     1       8.739   9.939  -4.251  0.00  0.00    +0.071 A 
ATOM      3  C   UNL     1      10.018  10.408  -4.531  0.00  0.00    +0.028 A 
ATOM      4  C   UNL     1      11.092   9.546  -4.475  0.00  0.00    +0.002 A 
ATOM      5  C   UNL     1      10.908   8.211  -4.141  0.00  0.00    +0.002 A 
ATOM      6  C   UNL     1       9.661   7.731  -3.862  0.00  0.00    +0.030 A 
ATOM      7  C   UNL     1       8.552   8.587  -3.912  0.00  0.00    +0.089 A 
ATOM      8  N   UNL     1       7.320   8.113  -3.631  0.00  0.00    -0.234 NA
ATOM      9  C   UNL     1       6.270   8.894  -3.676  0.00  0.00    +0.163 A 
ATOM     10  C   UNL     1       6.423  10.318  -4.028  0.00  0.00    +0.284 A 
ATOM     11  O   UNL     1       5.453  11.052  -4.068  0.00  0.00    -0.265 OA
ENDROOT
BRANCH   1  12
ATOM     12  C   UNL     1       7.842  12.207  -4.657  0.00  0.00    +0.160 C 
BRANCH  12  17
ATOM     13  C   UNL     1       8.794  15.284   0.141  0.00  0.00    +0.044 C 
ATOM     14  C   UNL     1       8.546  14.482  -1.110  0.00  0.00    -0.050 A 
ATOM     15  C   UNL     1       9.609  13.929  -1.799  0.00  0.00    +0.004 A 
ATOM     16  C   UNL     1       9.381  13.193  -2.947  0.00  0.00    +0.005 A 
ATOM     17  C   UNL     1       8.090  13.010  -3.406  0.00  0.00    -0.028 A 
ATOM     18  C   UNL     1       7.027  13.567  -2.720  0.00  0.00    +0.005 A 
ATOM     19  C   UNL     1       7.255  14.300  -1.570  0.00  0.00    +0.004 A 
ENDBRANCH  12  17
ENDBRANCH   1  12
BRANCH   9  20
ATOM     20  S   UNL     1       4.673   8.244  -3.311  0.00  0.00    -0.091 S 
BRANCH  20  21
ATOM     21  C   UNL     1       5.106   6.520  -2.969  0.00  0.00    +0.171 C 
BRANCH  21  22
ATOM     22  C   UNL     1       3.859   5.748  -2.623  0.00  0.00    +0.223 C 
ATOM     23  O   UNL     1       2.783   6.309  -2.608  0.00  0.00    -0.275 OA
ATOM     24  N   UNL     1       3.939   4.436  -2.329  0.00  0.00    -0.316 N 
ATOM     25  H   UNL     1       4.914   3.927  -2.342  0.00  0.00    +0.149 HD
BRANCH  24  26
ATOM     26  C   UNL     1       2.726   3.685  -1.992  0.00  0.00    +0.086 C 
BRANCH  26  27
ATOM     27  C   UNL     1       3.092   2.228  -1.703  0.00  0.00    -0.059 C 
BRANCH  27  28
ATOM     28  N   UNL     1       1.877   1.476  -1.365  0.00  0.00    +0.382 N 
ATOM     29  C   UNL     1       1.357   1.878  -0.052  0.00  0.00    -0.078 C 
ATOM     30  C   UNL     1       0.017   1.184   0.203  0.00  0.00    -0.019 C 
ATOM     31  C   UNL     1       0.217  -0.333   0.155  0.00  0.00    -0.003 C 
ATOM     32  C   UNL     1       0.804  -0.721  -1.205  0.00  0.00    -0.016 C 
ATOM     33  C   UNL     1       2.121   0.029  -1.418  0.00  0.00    -0.072 C 
ATOM     34  C   UNL     1       2.702  -0.340  -2.785  0.00  0.00    -0.013 C 
ATOM     35  H   UNL     1       1.110   1.714  -2.116  0.00  0.00    -0.081 HD
ENDBRANCH  27  28
ENDBRANCH  26  27
ENDBRANCH  24  26
ENDBRANCH  21  22
ENDBRANCH  20  21
ENDBRANCH   9  20
TORSDOF 8
