REMARK  Name = ZINC62587285
REMARK  6 active torsions:
REMARK  status: ('A' for Active; 'I' for Inactive)
REMARK    1  A    between atoms: C_4  and  N_22
REMARK    2  A    between atoms: C_5  and  N_7
REMARK    3  A    between atoms: C_10  and  C_13
REMARK    4  A    between atoms: C_13  and  C_14
REMARK    5  A    between atoms: C_14  and  C_15
REMARK    6  A    between atoms: C_18  and  O_21
REMARK                            x       y       z     vdW  Elec       q    Type
REMARK                         _______ _______ _______ _____ _____    ______ ____
ROOT
ATOM      1  N   UNL     1       1.587  -2.049  -0.041  0.00  0.00    -0.328 N 
ATOM      2  C   UNL     1       1.572  -2.824   1.208  0.00  0.00    +0.105 C 
ATOM      3  C   UNL     1       2.864  -3.643   1.295  0.00  0.00    +0.022 C 
ATOM      4  C   UNL     1       3.012  -4.492   0.030  0.00  0.00    -0.008 C 
ATOM      5  C   UNL     1       3.102  -3.576  -1.193  0.00  0.00    +0.022 C 
ATOM      6  C   UNL     1       1.807  -2.758  -1.309  0.00  0.00    +0.105 C 
ENDROOT
BRANCH   1  11
ATOM      7  C   UNL     1       2.280   1.558   0.074  0.00  0.00    +0.002 A 
ATOM      8  C   UNL     1       0.998   2.072   0.014  0.00  0.00    +0.002 A 
ATOM      9  C   UNL     1      -0.089   1.221  -0.065  0.00  0.00    +0.034 A 
ATOM     10  C   UNL     1       0.103  -0.147  -0.083  0.00  0.00    +0.147 A 
ATOM     11  C   UNL     1       1.389  -0.667  -0.023  0.00  0.00    +0.060 A 
ATOM     12  C   UNL     1       2.479   0.191   0.056  0.00  0.00    +0.025 A 
BRANCH  10  13
ATOM     13  N   UNL     1      -1.061  -1.057  -0.167  0.00  0.00    +0.058 N 
ATOM     14  O   UNL     1      -2.183  -0.610  -0.122  0.00  0.00    -0.126 OA
ATOM     15  O   UNL     1      -0.890  -2.249  -0.280  0.00  0.00    -0.126 OA
ENDBRANCH  10  13
ENDBRANCH   1  11
BRANCH   4  16
ATOM     16  C   UNL     1       4.284  -5.337   0.129  0.00  0.00    +0.008 C 
BRANCH  16  17
ATOM     17  C   UNL     1       4.367  -6.276  -1.076  0.00  0.00    +0.035 C 
BRANCH  17  18
ATOM     18  C   UNL     1       5.620  -7.108  -0.978  0.00  0.00    -0.047 A 
ATOM     19  C   UNL     1       6.798  -6.650  -1.539  0.00  0.00    +0.007 A 
ATOM     20  C   UNL     1       7.947  -7.412  -1.451  0.00  0.00    +0.045 A 
ATOM     21  C   UNL     1       7.919  -8.636  -0.800  0.00  0.00    +0.117 A 
ATOM     22  C   UNL     1       6.735  -9.093  -0.238  0.00  0.00    +0.045 A 
ATOM     23  C   UNL     1       5.590  -8.325  -0.324  0.00  0.00    +0.007 A 
BRANCH  21  24
ATOM     24  O   UNL     1       9.048  -9.387  -0.713  0.00  0.00    -0.507 OA
ATOM     25  H   UNL     1       9.582  -9.205   0.073  0.00  0.00    +0.292 HD
ENDBRANCH  21  24
ENDBRANCH  17  18
ENDBRANCH  16  17
ENDBRANCH   4  16
TORSDOF 6
