REMARK  Name = ZINC43548312
REMARK  11 active torsions:
REMARK  status: ('A' for Active; 'I' for Inactive)
REMARK    1  A    between atoms: C_1  and  C_2
REMARK    2  A    between atoms: N_9  and  C_10
REMARK    3  A    between atoms: C_12  and  C_32
REMARK    4  A    between atoms: C_15  and  O_31
REMARK    5  A    between atoms: C_17  and  C_21
REMARK    6  A    between atoms: C_21  and  C_23
REMARK    7  A    between atoms: C_21  and  C_24
REMARK    8  A    between atoms: N_26  and  C_27
REMARK    9  A    between atoms: C_27  and  C_28
REMARK   10  A    between atoms: C_28  and  O_29
REMARK   11  A    between atoms: O_29  and  C_30
REMARK                            x       y       z     vdW  Elec       q    Type
REMARK                         _______ _______ _______ _____ _____    ______ ____
ROOT
ATOM      1  C   UNL     1      -0.486   1.421   0.013  0.00  0.00    +0.014 C 
ATOM      2  C   UNL     1      -0.436  -0.108   0.063  0.00  0.00    +0.039 C 
ATOM      3  C   UNL     1      -1.790  -0.647   0.498  0.00  0.00    +0.031 A 
ATOM      4  C   UNL     1      -1.985  -1.070   1.772  0.00  0.00    +0.013 A 
ATOM      5  S   UNL     1      -3.680  -1.583   1.753  0.00  0.00    -0.059 S 
ATOM      6  C   UNL     1      -4.002  -1.223   0.139  0.00  0.00    +0.136 A 
ATOM      7  N   UNL     1      -2.855  -0.747  -0.295  0.00  0.00    -0.340 N 
ATOM      8  N   UNL     1      -5.186  -1.387  -0.562  0.00  0.00    -0.328 N 
ATOM      9  C   UNL     1      -6.364  -1.940   0.111  0.00  0.00    +0.127 C 
ATOM     10  C   UNL     1      -0.999  -1.087   2.888  0.00  0.00    +0.051 C 
ATOM     11  C   UNL     1       0.202  -0.205   2.500  0.00  0.00    -0.022 C 
ATOM     12  C   UNL     1       0.625  -0.551   1.066  0.00  0.00    +0.033 C 
ATOM     13  C   UNL     1       0.870  -2.055   0.963  0.00  0.00    +0.123 C 
ATOM     14  C   UNL     1       2.007  -2.444   1.911  0.00  0.00    +0.029 C 
ATOM     15  C   UNL     1       1.637  -2.064   3.345  0.00  0.00    +0.007 C 
ATOM     16  C   UNL     1       1.367  -0.558   3.436  0.00  0.00    +0.008 C 
ATOM     17  C   UNL     1      -0.158   1.277   2.624  0.00  0.00    +0.012 C 
ATOM     18  H   UNL     1      -5.236  -1.136  -1.497  0.00  0.00    +0.148 HD
ATOM     19  H   UNL     1      -2.782  -0.462  -1.220  0.00  0.00    +0.167 HD
ENDROOT
BRANCH  14  20
ATOM     20  C   UNL     1       2.244  -3.953   1.831  0.00  0.00    +0.077 C 
ATOM     21  C   UNL     1       1.024  -4.691   2.387  0.00  0.00    +0.017 C 
BRANCH  20  22
ATOM     22  C   UNL     1       3.462  -4.314   2.642  0.00  0.00    +0.216 C 
ATOM     23  O   UNL     1       4.033  -3.463   3.290  0.00  0.00    -0.276 OA
ATOM     24  N   UNL     1       3.917  -5.583   2.646  0.00  0.00    -0.313 N 
ATOM     25  H   UNL     1       3.460  -6.264   2.127  0.00  0.00    +0.149 HD
BRANCH  24  26
ATOM     26  C   UNL     1       5.101  -5.934   3.433  0.00  0.00    +0.132 C 
BRANCH  26  27
ATOM     27  C   UNL     1       5.402  -7.425   3.265  0.00  0.00    +0.178 C 
BRANCH  27  28
ATOM     28  O   UNL     1       5.760  -7.688   1.907  0.00  0.00    -0.381 OA
ATOM     29  C   UNL     1       6.062  -9.059   1.640  0.00  0.00    +0.194 C 
ENDBRANCH  27  28
ENDBRANCH  26  27
ENDBRANCH  24  26
ENDBRANCH  20  22
ENDBRANCH  14  20
BRANCH  13  30
ATOM     30  O   UNL     1       1.229  -2.390  -0.379  0.00  0.00    -0.391 OA
ATOM     31  H   UNL     1       1.320  -3.340  -0.537  0.00  0.00    +0.210 HD
ENDBRANCH  13  30
TORSDOF 6
