REMARK  Name = ZINC38689243
REMARK  3 active torsions:
REMARK  status: ('A' for Active; 'I' for Inactive)
REMARK    1  A    between atoms: C_5  and  N_8
REMARK    2  A    between atoms: N_8  and  N_9
REMARK    3  A    between atoms: C_10  and  C_11
REMARK                            x       y       z     vdW  Elec       q    Type
REMARK                         _______ _______ _______ _____ _____    ______ ____
ROOT
ATOM      1  C   UNL     1      -1.143  -4.856   0.637  0.00  0.00    +0.141 C 
ATOM      2  C   UNL     1      -0.864  -5.643   1.902  0.00  0.00    +0.001 C 
ATOM      3  C   UNL     1      -1.009  -6.994   1.843  0.00  0.00    -0.003 A 
ATOM      4  C   UNL     1      -0.757  -7.826   3.020  0.00  0.00    +0.059 A 
ATOM      5  C   UNL     1      -0.911  -9.175   2.929  0.00  0.00    +0.163 A 
ATOM      6  C   UNL     1      -1.311  -9.782   1.721  0.00  0.00    +0.164 A 
ATOM      7  C   UNL     1      -1.557  -9.041   0.583  0.00  0.00    +0.073 A 
ATOM      8  C   UNL     1      -1.422  -7.648   0.587  0.00  0.00    +0.044 A 
ATOM      9  N   UNL     1      -1.665  -6.951  -0.525  0.00  0.00    -0.284 N 
ATOM     10  C   UNL     1      -1.558  -5.636  -0.590  0.00  0.00    +0.229 C 
ATOM     11  O   UNL     1      -1.793  -5.056  -1.633  0.00  0.00    -0.274 OA
ATOM     12  O   UNL     1      -1.468 -11.132   1.654  0.00  0.00    -0.485 OA
ATOM     13  C   UNL     1      -0.855 -11.907   2.687  0.00  0.00    +0.270 C 
ATOM     14  C   UNL     1      -1.190 -11.262   4.038  0.00  0.00    +0.270 C 
ATOM     15  O   UNL     1      -0.667  -9.930   4.038  0.00  0.00    -0.485 OA
ATOM     16  H   UNL     1      -1.933  -7.433  -1.323  0.00  0.00    +0.155 HD
ENDROOT
BRANCH   1  18
ATOM     17  N   UNL     1       0.081  -2.800   0.299  0.00  0.00    -0.194 NA
ATOM     18  C   UNL     1       0.102  -4.080   0.291  0.00  0.00    +0.120 C 
BRANCH  17  19
ATOM     19  N   UNL     1       1.239  -2.079  -0.022  0.00  0.00    -0.235 N 
ATOM     20  H   UNL     1       2.056  -2.549  -0.251  0.00  0.00    +0.174 HD
BRANCH  19  25
ATOM     21  C   UNL     1      -0.017   1.378   0.010  0.00  0.00    +0.042 A 
ATOM     22  C   UNL     1       1.171   2.088   0.002  0.00  0.00    +0.044 A 
ATOM     23  C   UNL     1       2.382   1.417  -0.013  0.00  0.00    +0.042 A 
ATOM     24  C   UNL     1       2.408   0.035  -0.021  0.00  0.00    +0.066 A 
ATOM     25  C   UNL     1       1.216  -0.681  -0.014  0.00  0.00    +0.085 A 
ATOM     26  C   UNL     1       0.002  -0.004   0.002  0.00  0.00    +0.066 A 
ATOM     27 CL   UNL     1      -1.489  -0.893   0.012  0.00  0.00    -0.081 Cl
ATOM     28 CL   UNL     1       3.926  -0.806  -0.041  0.00  0.00    -0.081 Cl
ATOM     29 CL   UNL     1       1.143   3.823   0.011  0.00  0.00    -0.083 Cl
ENDBRANCH  19  25
ENDBRANCH  17  19
ENDBRANCH   1  18
TORSDOF 3
