REMARK  Name = ZINC09593133
REMARK  6 active torsions:
REMARK  status: ('A' for Active; 'I' for Inactive)
REMARK    1  A    between atoms: C_4  and  S_9
REMARK    2  A    between atoms: C_5  and  C_7
REMARK    3  A    between atoms: S_9  and  N_12
REMARK    4  A    between atoms: C_17  and  C_18
REMARK    5  A    between atoms: C_17  and  N_52
REMARK    6  A    between atoms: C_24  and  C_29
REMARK                            x       y       z     vdW  Elec       q    Type
REMARK                         _______ _______ _______ _____ _____    ______ ____
ROOT
ATOM      1  N   UNL     1       7.109   1.540  -0.858  0.00  0.00    -0.180 NA
ATOM      2  C   UNL     1       7.060   0.591   0.265  0.00  0.00    +0.091 C 
ATOM      3  C   UNL     1       5.900  -0.383   0.028  0.00  0.00    -0.061 C 
ATOM      4  C   UNL     1       4.758   1.203  -1.408  0.00  0.00    -0.061 C 
ATOM      5  C   UNL     1       5.871   2.241  -1.231  0.00  0.00    +0.091 C 
ATOM      6  N   UNL     1       4.659   0.397  -0.172  0.00  0.00    +0.386 N 
ATOM      7  H   UNL     1       4.530   1.029   0.627  0.00  0.00    -0.081 HD
ENDROOT
BRANCH   1   8
ATOM      8  S   UNL     1       8.521   1.812  -1.680  0.00  0.00    +0.062 S 
ATOM      9  O   UNL     1       8.340   3.017  -2.411  0.00  0.00    -0.153 OA
ATOM     10  O   UNL     1       9.576   1.641  -0.743  0.00  0.00    -0.153 OA
BRANCH   8  14
ATOM     11  C   UNL     1       8.955  -1.510  -4.739  0.00  0.00    +0.001 A 
ATOM     12  C   UNL     1       9.827  -1.428  -3.667  0.00  0.00    +0.002 A 
ATOM     13  C   UNL     1       9.696  -0.412  -2.738  0.00  0.00    +0.030 A 
ATOM     14  C   UNL     1       8.689   0.522  -2.868  0.00  0.00    +0.123 A 
ATOM     15  C   UNL     1       7.806   0.445  -3.947  0.00  0.00    +0.078 A 
ATOM     16  C   UNL     1       7.946  -0.581  -4.884  0.00  0.00    +0.021 A 
BRANCH  15  17
ATOM     17  C   UNL     1       6.761   1.414  -4.091  0.00  0.00    +0.101 C 
ATOM     18  N   UNL     1       5.932   2.182  -4.206  0.00  0.00    -0.191 NA
ENDBRANCH  15  17
ENDBRANCH   8  14
ENDBRANCH   1   8
BRANCH   6  19
ATOM     19  C   UNL     1       3.499  -0.514  -0.256  0.00  0.00    -0.003 C 
BRANCH  19  20
ATOM     20  C   UNL     1       2.236   0.307  -0.239  0.00  0.00    +0.094 A 
ATOM     21  N   UNL     1       1.032  -0.320  -0.288  0.00  0.00    -0.312 N 
ATOM     22  H   UNL     1       1.002  -1.288  -0.333  0.00  0.00    +0.170 HD
ATOM     23  C   UNL     1      -0.120   0.377  -0.275  0.00  0.00    +0.260 A 
ATOM     24  O   UNL     1      -1.192  -0.201  -0.319  0.00  0.00    -0.267 OA
ATOM     25  C   UNL     1      -0.066   1.805  -0.208  0.00  0.00    +0.080 A 
ATOM     26  C   UNL     1      -1.160   2.770  -0.188  0.00  0.00    +0.010 A 
ATOM     27  C   UNL     1      -0.862   4.091  -0.117  0.00  0.00    +0.057 A 
ATOM     28  S   UNL     1       0.920   4.111  -0.087  0.00  0.00    -0.076 S 
ATOM     29  C   UNL     1       1.221   2.364  -0.162  0.00  0.00    +0.116 A 
ATOM     30  N   UNL     1       2.317   1.609  -0.178  0.00  0.00    -0.229 NA
BRANCH  26  31
ATOM     31  C   UNL     1      -2.566   2.316  -0.238  0.00  0.00    +0.021 A 
ATOM     32  C   UNL     1      -3.613   2.660   0.574  0.00  0.00    +0.016 A 
ATOM     33  C   UNL     1      -4.852   2.105   0.329  0.00  0.00    +0.008 A 
ATOM     34  C   UNL     1      -4.992   1.230  -0.698  0.00  0.00    +0.046 A 
ATOM     35  S   UNL     1      -3.339   1.171  -1.369  0.00  0.00    -0.097 S 
ENDBRANCH  26  31
ENDBRANCH  19  20
ENDBRANCH   6  19
TORSDOF 6
