REMARK  Name = ZINC01372284
REMARK  5 active torsions:
REMARK  status: ('A' for Active; 'I' for Inactive)
REMARK    1  A    between atoms: C_1  and  C_2
REMARK    2  A    between atoms: C_15  and  S_18
REMARK    3  A    between atoms: S_18  and  C_19
REMARK    4  A    between atoms: C_19  and  C_20
REMARK    5  A    between atoms: N_22  and  C_23
REMARK                            x       y       z     vdW  Elec       q    Type
REMARK                         _______ _______ _______ _____ _____    ______ ____
ROOT
ATOM      1  C   UNL     1       7.475  -6.244   5.606  0.00  0.00    +0.086 C 
ATOM      2  C   UNL     1       8.807  -5.701   6.056  0.00  0.00    +0.115 A 
ATOM      3  N   UNL     1       9.605  -6.463   6.748  0.00  0.00    -0.226 NA
ATOM      4  C   UNL     1      10.793  -6.046   7.176  0.00  0.00    +0.114 A 
ATOM      5  C   UNL     1      11.280  -4.759   6.907  0.00  0.00    +0.056 A 
ATOM      6  C   UNL     1      12.563  -4.440   7.419  0.00  0.00    -0.024 A 
ATOM      7  C   UNL     1      13.218  -5.401   8.111  0.00  0.00    -0.004 A 
ATOM      8  S   UNL     1      12.108  -6.784   8.116  0.00  0.00    -0.073 S 
ATOM      9  C   UNL     1      14.572  -5.305   8.743  0.00  0.00    +0.043 C 
ATOM     10  C   UNL     1      15.282  -4.065   8.180  0.00  0.00    +0.005 C 
ATOM     11  C   UNL     1      14.315  -2.878   8.236  0.00  0.00    +0.005 C 
ATOM     12  C   UNL     1      13.198  -3.068   7.209  0.00  0.00    +0.037 C 
ATOM     13  C   UNL     1      10.363  -3.900   6.125  0.00  0.00    +0.173 A 
ATOM     14  N   UNL     1       9.150  -4.421   5.730  0.00  0.00    -0.258 N 
ATOM     15  C   UNL     1       8.534  -3.419   5.035  0.00  0.00    +0.198 A 
ATOM     16  N   UNL     1       9.343  -2.384   5.043  0.00  0.00    -0.122 NA
ATOM     17  N   UNL     1      10.423  -2.667   5.686  0.00  0.00    -0.128 NA
ENDROOT
BRANCH  15  18
ATOM     18  S   UNL     1       6.945  -3.497   4.276  0.00  0.00    -0.076 S 
BRANCH  18  19
ATOM     19  C   UNL     1       6.728  -1.853   3.541  0.00  0.00    +0.173 C 
BRANCH  19  20
ATOM     20  C   UNL     1       5.391  -1.783   2.851  0.00  0.00    +0.227 C 
ATOM     21  O   UNL     1       4.656  -2.748   2.854  0.00  0.00    -0.275 OA
ATOM     22  N   UNL     1       5.011  -0.649   2.229  0.00  0.00    -0.285 N 
ATOM     23  H   UNL     1       5.628   0.096   2.160  0.00  0.00    +0.155 HD
BRANCH  22  24
ATOM     24  C   UNL     1       3.725  -0.547   1.683  0.00  0.00    +0.037 A 
ATOM     25  C   UNL     1       2.657  -1.191   2.295  0.00  0.00    +0.027 A 
ATOM     26  C   UNL     1       1.388  -1.090   1.758  0.00  0.00    +0.051 A 
ATOM     27  C   UNL     1       1.177  -0.347   0.608  0.00  0.00    +0.166 A 
ATOM     28  C   UNL     1       2.246   0.301  -0.008  0.00  0.00    +0.168 A 
ATOM     29  C   UNL     1       3.517   0.199   0.531  0.00  0.00    +0.072 A 
ATOM     30  O   UNL     1       1.781   0.958  -1.110  0.00  0.00    -0.453 OA
ATOM     31  C   UNL     1       0.354   1.044  -0.934  0.00  0.00    +0.466 C 
ATOM     32  O   UNL     1       0.042  -0.094  -0.110  0.00  0.00    -0.453 OA
ENDBRANCH  22  24
ENDBRANCH  19  20
ENDBRANCH  18  19
ENDBRANCH  15  18
TORSDOF 4
