REMARK  Name = ZINC27645464
REMARK  12 active torsions:
REMARK  status: ('A' for Active; 'I' for Inactive)
REMARK    1  A    between atoms: C_1  and  C_2
REMARK    2  A    between atoms: C_2  and  C_3
REMARK    3  A    between atoms: C_2  and  C_4
REMARK    4  A    between atoms: C_4  and  C_5
REMARK    5  A    between atoms: C_5  and  C_6
REMARK    6  A    between atoms: C_6  and  C_7
REMARK    7  A    between atoms: C_7  and  C_9
REMARK    8  A    between atoms: C_7  and  C_10
REMARK    9  A    between atoms: C_16  and  C_36
REMARK   10  A    between atoms: C_26  and  O_35
REMARK   11  A    between atoms: C_27  and  C_34
REMARK   12  A    between atoms: C_30  and  O_33
REMARK                            x       y       z     vdW  Elec       q    Type
REMARK                         _______ _______ _______ _____ _____    ______ ____
ROOT
ATOM      1  C   UNL     1      -0.798   3.035  -1.379  0.00  0.00    -0.002 C 
ATOM      2  C   UNL     1      -2.212   3.541  -1.730  0.00  0.00    +0.004 C 
ATOM      3  C   UNL     1      -3.054   2.291  -2.064  0.00  0.00    +0.004 C 
ATOM      4  C   UNL     1      -2.328   1.138  -1.309  0.00  0.00    -0.001 C 
ATOM      5  C   UNL     1      -0.849   1.509  -1.526  0.00  0.00    -0.026 C 
ATOM      6  C   UNL     1       0.088   0.800  -0.575  0.00  0.00    +0.007 C 
ATOM      7  C   UNL     1      -0.343   0.997   0.879  0.00  0.00    +0.005 C 
ATOM      8  C   UNL     1      -1.749   0.431   1.031  0.00  0.00    +0.002 C 
ATOM      9  C   UNL     1      -2.700   1.265   0.171  0.00  0.00    +0.004 C 
ATOM     10  C   UNL     1      -2.605   2.736   0.588  0.00  0.00    +0.081 C 
ATOM     11  C   UNL     1      -2.844   2.841   2.079  0.00  0.00    +0.165 C 
ATOM     12  O   UNL     1      -3.656   3.613   2.529  0.00  0.00    -0.294 OA
ATOM     13  C   UNL     1      -2.033   1.945   2.986  0.00  0.00    +0.131 C 
ATOM     14  C   UNL     1      -2.182   0.502   2.493  0.00  0.00    +0.007 C 
ATOM     15  C   UNL     1      -1.322  -0.414   3.362  0.00  0.00    +0.012 C 
ATOM     16  C   UNL     1      -1.810  -0.328   4.811  0.00  0.00    +0.032 C 
ATOM     17  C   UNL     1      -1.705   1.113   5.311  0.00  0.00    +0.118 C 
ATOM     18  C   UNL     1      -2.545   2.036   4.423  0.00  0.00    +0.074 C 
ATOM     19  C   UNL     1      -3.647   0.077   2.607  0.00  0.00    +0.015 C 
ATOM     20  C   UNL     1      -0.457   1.159  -2.963  0.00  0.00    +0.012 C 
ENDROOT
BRANCH   1  21
ATOM     21  C   UNL     1       0.228   3.624  -2.348  0.00  0.00    -0.010 C 
ATOM     22  C   UNL     1       1.633   3.182  -1.934  0.00  0.00    +0.008 C 
BRANCH  21  23
ATOM     23  C   UNL     1       0.144   5.152  -2.314  0.00  0.00    +0.003 C 
BRANCH  23  24
ATOM     24  C   UNL     1       1.081   5.738  -3.372  0.00  0.00    +0.001 C 
BRANCH  24  25
ATOM     25  C   UNL     1       0.996   7.266  -3.338  0.00  0.00    +0.003 C 
BRANCH  25  27
ATOM     26  C   UNL     1       1.445   7.450  -5.789  0.00  0.00    +0.007 C 
ATOM     27  C   UNL     1       1.933   7.852  -4.396  0.00  0.00    -0.017 C 
ATOM     28  C   UNL     1       1.943   9.377  -4.279  0.00  0.00    +0.007 C 
ENDBRANCH  25  27
ENDBRANCH  24  25
ENDBRANCH  23  24
ENDBRANCH  21  23
ENDBRANCH   1  21
BRANCH  17  29
ATOM     29  O   UNL     1      -2.182   1.185   6.656  0.00  0.00    -0.392 OA
ATOM     30  H   UNL     1      -2.185   2.148   7.188  0.00  0.00    +0.210 HD
ENDBRANCH  17  29
BRANCH  13  31
ATOM     31  O   UNL     1      -0.659   2.337   2.942  0.00  0.00    -0.380 OA
ATOM     32  H   UNL     1       0.086   1.795   3.542  0.00  0.00    +0.211 HD
ENDBRANCH  13  31
TORSDOF 7
