REMARK  Name = ZINC00937270
REMARK  8 active torsions:
REMARK  status: ('A' for Active; 'I' for Inactive)
REMARK    1  A    between atoms: C_1  and  C_2
REMARK    2  A    between atoms: C_2  and  C_3
REMARK    3  A    between atoms: C_6  and  C_9
REMARK    4  A    between atoms: C_16  and  S_27
REMARK    5  A    between atoms: S_27  and  C_28
REMARK    6  A    between atoms: C_28  and  C_30
REMARK    7  A    between atoms: C_28  and  C_31
REMARK    8  A    between atoms: C_31  and  C_32
REMARK                            x       y       z     vdW  Elec       q    Type
REMARK                         _______ _______ _______ _____ _____    ______ ____
ROOT
ATOM      1  C   UNL     1       2.490   1.048  -0.016  0.00  0.00    +0.092 C 
ATOM      2  C   UNL     1       3.266   1.403   1.217  0.00  0.00    +0.069 A 
ATOM      3  C   UNL     1       2.931   0.836   2.452  0.00  0.00    +0.258 A 
ATOM      4  O   UNL     1       2.007   0.043   2.542  0.00  0.00    -0.267 OA
ATOM      5  N   UNL     1       3.649   1.181   3.542  0.00  0.00    -0.302 N 
ATOM      6  H   UNL     1       3.426   0.785   4.432  0.00  0.00    +0.171 HD
ATOM      7  C   UNL     1       4.678   2.067   3.430  0.00  0.00    +0.171 A 
ATOM      8  N   UNL     1       4.997   2.601   2.272  0.00  0.00    -0.208 NA
ATOM      9  C   UNL     1       4.322   2.295   1.159  0.00  0.00    +0.135 A 
ATOM     10  N   UNL     1       4.671   2.862  -0.050  0.00  0.00    -0.302 N 
ATOM     11  C   UNL     1       4.279   2.287  -1.228  0.00  0.00    +0.017 C 
ATOM     12  C   UNL     1       3.247   1.418  -1.266  0.00  0.00    +0.024 C 
ATOM     13  C   UNL     1       2.842   0.828  -2.477  0.00  0.00    +0.162 C 
ATOM     14  O   UNL     1       1.921   0.035  -2.474  0.00  0.00    -0.292 OA
ATOM     15  C   UNL     1       3.524   1.160  -3.775  0.00  0.00    +0.080 C 
ATOM     16  C   UNL     1       4.095   2.580  -3.688  0.00  0.00    +0.014 C 
ATOM     17  C   UNL     1       5.035   2.650  -2.483  0.00  0.00    +0.051 C 
ATOM     18  H   UNL     1       5.199   3.676  -0.065  0.00  0.00    +0.153 HD
ENDROOT
BRANCH   1  22
ATOM     19  C   UNL     1      -1.238   3.133   0.029  0.00  0.00    -0.048 A 
ATOM     20  C   UNL     1      -1.219   1.751   0.017  0.00  0.00    +0.004 A 
ATOM     21  C   UNL     1      -0.013   1.076   0.008  0.00  0.00    +0.005 A 
ATOM     22  C   UNL     1       1.175   1.783   0.000  0.00  0.00    -0.035 A 
ATOM     23  C   UNL     1       1.156   3.165   0.008  0.00  0.00    +0.005 A 
ATOM     24  C   UNL     1      -0.050   3.840   0.022  0.00  0.00    +0.004 A 
BRANCH  19  26
ATOM     25  C   UNL     1      -3.010   4.125  -1.393  0.00  0.00    +0.009 C 
ATOM     26  C   UNL     1      -2.553   3.869   0.044  0.00  0.00    +0.032 C 
ENDBRANCH  19  26
ENDBRANCH   1  22
BRANCH   7  27
ATOM     27  S   UNL     1       5.598   2.507   4.867  0.00  0.00    -0.085 S 
BRANCH  27  28
ATOM     28  C   UNL     1       6.782   3.666   4.139  0.00  0.00    +0.051 C 
ATOM     29  C   UNL     1       7.689   2.920   3.159  0.00  0.00    +0.019 C 
BRANCH  28  30
ATOM     30  C   UNL     1       7.633   4.289   5.248  0.00  0.00    +0.011 C 
ATOM     31  C   UNL     1       6.743   5.138   6.158  0.00  0.00    +0.005 C 
ENDBRANCH  28  30
ENDBRANCH  27  28
ENDBRANCH   7  27
TORSDOF 5
