REMARK  Name = ZINC10109024
REMARK  7 active torsions:
REMARK  status: ('A' for Active; 'I' for Inactive)
REMARK    1  A    between atoms: C_1  and  N_2
REMARK    2  A    between atoms: N_7  and  C_10
REMARK    3  A    between atoms: N_14  and  C_24
REMARK    4  A    between atoms: C_16  and  C_18
REMARK    5  A    between atoms: C_24  and  C_25
REMARK    6  A    between atoms: C_25  and  N_67
REMARK    7  A    between atoms: N_28  and  C_31
REMARK                            x       y       z     vdW  Elec       q    Type
REMARK                         _______ _______ _______ _____ _____    ______ ____
ROOT
ATOM      1  C   UNL     1      -3.439  10.930   0.745  0.00  0.00    +0.155 C 
ATOM      2  N   UNL     1      -4.806  10.908   0.220  0.00  0.00    -0.280 N 
ATOM      3  C   UNL     1      -5.357   9.750  -0.312  0.00  0.00    +0.170 A 
ATOM      4  C   UNL     1      -6.671   9.761  -0.809  0.00  0.00    +0.153 A 
ATOM      5  C   UNL     1      -7.439  10.942  -0.769  0.00  0.00    +0.282 A 
ATOM      6  O   UNL     1      -8.581  10.978  -1.193  0.00  0.00    -0.265 OA
ATOM      7  N   UNL     1      -6.840  12.035  -0.237  0.00  0.00    -0.262 N 
ATOM      8  C   UNL     1      -5.585  12.014   0.234  0.00  0.00    +0.333 A 
ATOM      9  O   UNL     1      -5.123  13.040   0.696  0.00  0.00    -0.246 OA
ATOM     10  C   UNL     1      -7.595  13.289  -0.173  0.00  0.00    +0.157 C 
ATOM     11  N   UNL     1      -6.921   8.494  -1.259  0.00  0.00    -0.299 N 
ATOM     12  C   UNL     1      -5.785   7.761  -1.019  0.00  0.00    +0.221 A 
ATOM     13  N   UNL     1      -4.875   8.528  -0.469  0.00  0.00    -0.195 NA
ATOM     14  N   UNL     1      -5.713   6.425  -1.361  0.00  0.00    -0.194 N 
ATOM     15  N   UNL     1      -6.915   5.781  -1.693  0.00  0.00    -0.180 NA
ATOM     16  C   UNL     1      -8.005   6.428  -1.927  0.00  0.00    +0.086 C 
ATOM     17  C   UNL     1      -8.117   7.927  -1.880  0.00  0.00    +0.182 C 
ENDROOT
BRANCH  16  18
ATOM     18  C   UNL     1      -9.214   5.652  -2.258  0.00  0.00    -0.000 A 
ATOM     19  C   UNL     1     -10.421   6.308  -2.514  0.00  0.00    +0.010 A 
ATOM     20  C   UNL     1     -11.547   5.577  -2.829  0.00  0.00    +0.001 A 
ATOM     21  C   UNL     1     -11.486   4.195  -2.881  0.00  0.00    +0.000 A 
ATOM     22  C   UNL     1     -10.295   3.538  -2.624  0.00  0.00    +0.001 A 
ATOM     23  C   UNL     1      -9.160   4.257  -2.313  0.00  0.00    +0.010 A 
ENDBRANCH  16  18
BRANCH  14  24
ATOM     24  C   UNL     1      -4.435   5.708  -1.371  0.00  0.00    +0.117 C 
BRANCH  24  25
ATOM     25  C   UNL     1      -4.181   5.100   0.010  0.00  0.00    -0.057 C 
BRANCH  25  31
ATOM     26  C   UNL     1      -2.731   3.589   1.226  0.00  0.00    -0.060 C 
ATOM     27  C   UNL     1      -1.354   2.920   1.212  0.00  0.00    +0.086 C 
ATOM     28  N   UNL     1      -1.236   2.071   0.019  0.00  0.00    -0.331 N 
ATOM     29  C   UNL     1      -1.405   2.864  -1.207  0.00  0.00    +0.086 C 
ATOM     30  C   UNL     1      -2.782   3.532  -1.194  0.00  0.00    -0.060 C 
ATOM     31  N   UNL     1      -2.879   4.400  -0.001  0.00  0.00    +0.383 N 
ATOM     32  H   UNL     1      -2.125   5.097  -0.033  0.00  0.00    -0.082 HD
BRANCH  28  33
ATOM     33  C   UNL     1      -0.017   1.387   0.010  0.00  0.00    +0.065 A 
ATOM     34  C   UNL     1       1.178   2.094   0.002  0.00  0.00    +0.026 A 
ATOM     35  C   UNL     1       2.381   1.415  -0.013  0.00  0.00    +0.002 A 
ATOM     36  C   UNL     1       2.397   0.032  -0.021  0.00  0.00    +0.003 A 
ATOM     37  C   UNL     1       1.210  -0.677  -0.013  0.00  0.00    +0.040 A 
ATOM     38  C   UNL     1       0.002  -0.004   0.002  0.00  0.00    +0.144 A 
ATOM     39  F   UNL     1      -1.158  -0.697   0.009  0.00  0.00    -0.204 F 
ENDBRANCH  28  33
ENDBRANCH  25  31
ENDBRANCH  24  25
ENDBRANCH  14  24
TORSDOF 5
