REMARK  Name = ZINC38517487
REMARK  11 active torsions:
REMARK  status: ('A' for Active; 'I' for Inactive)
REMARK    1  A    between atoms: C_1  and  C_2
REMARK    2  A    between atoms: C_2  and  O_3
REMARK    3  A    between atoms: O_3  and  C_4
REMARK    4  A    between atoms: C_9  and  N_10
REMARK    5  A    between atoms: N_13  and  C_14
REMARK    6  A    between atoms: C_14  and  C_15
REMARK    7  A    between atoms: C_15  and  C_17
REMARK    8  A    between atoms: C_15  and  N_28
REMARK    9  A    between atoms: N_26  and  C_27
REMARK   10  A    between atoms: N_28  and  C_29
REMARK   11  A    between atoms: N_28  and  C_30
REMARK                            x       y       z     vdW  Elec       q    Type
REMARK                         _______ _______ _______ _____ _____    ______ ____
ROOT
ATOM      1  C   UNL     1      -7.765  -2.064   0.200  0.00  0.00    +0.095 C 
ENDROOT
BRANCH   1   5
ATOM      2  N   UNL     1      -7.087  -4.463  -2.503  0.00  0.00    -0.266 N 
ATOM      3  C   UNL     1      -6.991  -3.785  -1.342  0.00  0.00    +0.304 C 
ATOM      4  O   UNL     1      -6.113  -4.061  -0.548  0.00  0.00    -0.253 OA
ATOM      5  N   UNL     1      -7.869  -2.801  -1.062  0.00  0.00    -0.300 N 
ATOM      6  H   UNL     1      -7.731  -4.188  -3.174  0.00  0.00    +0.156 HD
ATOM      7  H   UNL     1      -8.570  -2.582  -1.695  0.00  0.00    +0.150 HD
BRANCH   2  13
ATOM      8  C   UNL     1      -5.967  -5.954  -4.047  0.00  0.00    +0.142 A 
ATOM      9  C   UNL     1      -5.139  -7.041  -4.277  0.00  0.00    +0.047 A 
ATOM     10  C   UNL     1      -4.607  -7.742  -3.211  0.00  0.00    +0.004 A 
ATOM     11  C   UNL     1      -4.898  -7.361  -1.914  0.00  0.00    +0.002 A 
ATOM     12  C   UNL     1      -5.722  -6.277  -1.677  0.00  0.00    +0.027 A 
ATOM     13  C   UNL     1      -6.255  -5.566  -2.741  0.00  0.00    +0.077 A 
BRANCH   8  14
ATOM     14  O   UNL     1      -6.492  -5.263  -5.095  0.00  0.00    -0.490 OA
BRANCH  14  16
ATOM     15  C   UNL     1      -6.831  -4.825  -7.447  0.00  0.00    +0.048 C 
ATOM     16  C   UNL     1      -6.153  -5.718  -6.407  0.00  0.00    +0.226 C 
ENDBRANCH  14  16
ENDBRANCH   8  14
ENDBRANCH   2  13
ENDBRANCH   1   5
BRANCH   1  17
ATOM     17  C   UNL     1      -8.945  -1.099   0.326  0.00  0.00    -0.021 C 
BRANCH  17  18
ATOM     18  C   UNL     1     -10.234  -1.878   0.326  0.00  0.00    -0.059 A 
ATOM     19  C   UNL     1     -10.667  -2.496   1.485  0.00  0.00    +0.004 A 
ATOM     20  C   UNL     1     -11.848  -3.211   1.484  0.00  0.00    +0.023 A 
ATOM     21  C   UNL     1     -12.601  -3.310   0.320  0.00  0.00    +0.033 A 
ATOM     22  C   UNL     1     -12.168  -2.688  -0.841  0.00  0.00    -0.026 A 
ATOM     23  C   UNL     1     -10.984  -1.970  -0.831  0.00  0.00    +0.007 A 
ATOM     24  C   UNL     1     -12.963  -2.765  -2.118  0.00  0.00    +0.038 C 
ATOM     25  C   UNL     1     -13.918  -3.957  -2.083  0.00  0.00    +0.024 C 
ATOM     26  C   UNL     1     -14.731  -3.904  -0.783  0.00  0.00    +0.105 C 
ATOM     27  N   UNL     1     -13.792  -4.044   0.339  0.00  0.00    -0.333 N 
ATOM     28  C   UNL     1     -14.098  -4.937   1.459  0.00  0.00    +0.129 C 
ENDBRANCH  17  18
BRANCH  17  29
ATOM     29  N   UNL     1      -8.829  -0.344   1.581  0.00  0.00    +0.382 N 
ATOM     30  C   UNL     1      -7.629   0.503   1.534  0.00  0.00    -0.096 C 
ATOM     31  C   UNL     1     -10.018   0.500   1.756  0.00  0.00    -0.096 C 
ATOM     32  H   UNL     1      -8.756  -0.988   2.354  0.00  0.00    -0.082 HD
ENDBRANCH  17  29
ENDBRANCH   1  17
TORSDOF 7
