REMARK  Name = ZINC39934868
REMARK  10 active torsions:
REMARK  status: ('A' for Active; 'I' for Inactive)
REMARK    1  A    between atoms: C_1  and  C_2
REMARK    2  A    between atoms: C_2  and  O_3
REMARK    3  A    between atoms: O_3  and  C_4
REMARK    4  A    between atoms: C_6  and  C_19
REMARK    5  A    between atoms: C_9  and  O_10
REMARK    6  A    between atoms: O_10  and  C_11
REMARK    7  A    between atoms: C_11  and  C_12
REMARK    8  A    between atoms: C_20  and  C_21
REMARK    9  A    between atoms: C_20  and  C_23
REMARK   10  A    between atoms: C_29  and  C_33
REMARK                            x       y       z     vdW  Elec       q    Type
REMARK                         _______ _______ _______ _____ _____    ______ ____
ROOT
ATOM      1  C   UNL     1       0.616  -2.069   1.751  0.00  0.00    +0.162 A 
ATOM      2  C   UNL     1       0.229  -2.788   0.637  0.00  0.00    +0.057 A 
ATOM      3  C   UNL     1       0.214  -4.187   0.682  0.00  0.00    -0.020 A 
ATOM      4  C   UNL     1       0.590  -4.849   1.856  0.00  0.00    +0.012 A 
ATOM      5  C   UNL     1       0.974  -4.124   2.962  0.00  0.00    +0.050 A 
ATOM      6  C   UNL     1       0.994  -2.737   2.915  0.00  0.00    +0.162 A 
ENDROOT
BRANCH   3   7
ATOM      7  C   UNL     1      -0.198  -4.958  -0.501  0.00  0.00    +0.026 C 
ATOM      8  C   UNL     1       0.425  -6.117  -0.800  0.00  0.00    +0.072 C 
BRANCH   8   9
ATOM      9  C   UNL     1      -0.100  -6.989  -1.911  0.00  0.00    +0.216 C 
ATOM     10  N   UNL     1      -0.418  -8.327  -1.396  0.00  0.00    -0.359 N 
ATOM     11  C   UNL     1       0.331  -9.179  -2.034  0.00  0.00    +0.060 A 
ATOM     12  C   UNL     1       0.466 -10.641  -1.961  0.00  0.00    +0.027 A 
ATOM     13  C   UNL     1       1.347 -11.268  -2.766  0.00  0.00    +0.005 A 
ATOM     14  C   UNL     1       2.156 -10.580  -3.687  0.00  0.00    -0.048 A 
ATOM     15  C   UNL     1       2.111  -9.241  -3.834  0.00  0.00    +0.030 A 
ATOM     16  C   UNL     1       1.187  -8.451  -3.010  0.00  0.00    +0.061 A 
ATOM     17  N   UNL     1       0.934  -7.175  -2.937  0.00  0.00    -0.359 N 
ATOM     18  C   UNL     1       3.111 -11.370  -4.543  0.00  0.00    +0.044 C 
ATOM     19  H   UNL     1      -1.066  -8.537  -0.706  0.00  0.00    +0.162 HD
ATOM     20  H   UNL     1       1.351  -6.475  -3.464  0.00  0.00    +0.162 HD
ENDBRANCH   8   9
BRANCH   8  21
ATOM     21  C   UNL     1       1.584  -6.519  -0.061  0.00  0.00    +0.099 C 
ATOM     22  N   UNL     1       2.503  -6.838   0.525  0.00  0.00    -0.191 NA
ENDBRANCH   8  21
ENDBRANCH   3   7
BRANCH   1  23
ATOM     23  O   UNL     1       0.632  -0.710   1.711  0.00  0.00    -0.489 OA
BRANCH  23  25
ATOM     24  C   UNL     1       0.315   1.429   0.631  0.00  0.00    +0.048 C 
ATOM     25  C   UNL     1       0.232  -0.092   0.486  0.00  0.00    +0.226 C 
ENDBRANCH  23  25
ENDBRANCH   1  23
BRANCH   6  26
ATOM     26  O   UNL     1       1.379  -2.027   4.008  0.00  0.00    -0.484 OA
BRANCH  26  27
ATOM     27  C   UNL     1       1.754  -2.774   5.167  0.00  0.00    +0.264 C 
BRANCH  27  28
ATOM     28  C   UNL     1       2.148  -1.826   6.270  0.00  0.00    -0.008 A 
ATOM     29  C   UNL     1       3.462  -1.411   6.389  0.00  0.00    +0.007 A 
ATOM     30  C   UNL     1       3.824  -0.541   7.401  0.00  0.00    +0.003 A 
ATOM     31  C   UNL     1       2.873  -0.085   8.294  0.00  0.00    +0.038 A 
ATOM     32  C   UNL     1       1.558  -0.499   8.176  0.00  0.00    +0.124 A 
ATOM     33  C   UNL     1       1.195  -1.366   7.159  0.00  0.00    +0.045 A 
ATOM     34  F   UNL     1       0.628  -0.054   9.049  0.00  0.00    -0.205 F 
ENDBRANCH  27  28
ENDBRANCH  26  27
ENDBRANCH   6  26
TORSDOF 8
