REMARK  Name = ZINC24123512
REMARK  4 active torsions:
REMARK  status: ('A' for Active; 'I' for Inactive)
REMARK    1  A    between atoms: C_1  and  C_2
REMARK    2  A    between atoms: C_10  and  C_11
REMARK    3  A    between atoms: N_13  and  N_14
REMARK    4  A    between atoms: C_15  and  C_17
REMARK                            x       y       z     vdW  Elec       q    Type
REMARK                         _______ _______ _______ _____ _____    ______ ____
ROOT
ATOM      1  C   UNL     1      -1.187   1.624   0.017  0.00  0.00    +0.296 C 
ATOM      2  O   UNL     1      -1.204   2.840   0.023  0.00  0.00    -0.265 OA
ATOM      3  N   UNL     1      -0.011   0.966   0.007  0.00  0.00    -0.228 N 
ATOM      4  H   UNL     1       0.004  -0.134   0.006  0.00  0.00    +0.173 HD
ENDROOT
BRANCH   1  14
ATOM      5  C   UNL     1      -4.026   2.895   0.049  0.00  0.00    +0.048 C 
ATOM      6  C   UNL     1      -3.690   1.426   0.033  0.00  0.00    +0.008 A 
ATOM      7  C   UNL     1      -4.633   0.308   0.025  0.00  0.00    +0.027 A 
ATOM      8  C   UNL     1      -6.027   0.211   0.031  0.00  0.00    +0.012 A 
ATOM      9  C   UNL     1      -6.621  -1.020   0.028  0.00  0.00    +0.004 A 
ATOM     10  C   UNL     1      -5.849  -2.174   0.018  0.00  0.00    +0.042 A 
ATOM     11  C   UNL     1      -4.471  -2.100   0.013  0.00  0.00    +0.166 A 
ATOM     12  C   UNL     1      -3.845  -0.856   0.016  0.00  0.00    +0.171 A 
ATOM     13  O   UNL     1      -2.553  -0.474   0.012  0.00  0.00    -0.447 OA
ATOM     14  C   UNL     1      -2.450   0.872   0.018  0.00  0.00    +0.195 A 
ATOM     15  F   UNL     1      -3.733  -3.231   0.004  0.00  0.00    -0.202 F 
ENDBRANCH   1  14
BRANCH   3  16
ATOM     16  N   UNL     1       1.193   1.683  -0.000  0.00  0.00    -0.229 N 
ATOM     17  C   UNL     1       2.369   1.025  -0.015  0.00  0.00    +0.276 C 
ATOM     18  O   UNL     1       2.385  -0.192  -0.022  0.00  0.00    -0.267 OA
ATOM     19  H   UNL     1       1.178   2.783   0.006  0.00  0.00    +0.173 HD
BRANCH  17  20
ATOM     20  C   UNL     1       3.629   1.775  -0.023  0.00  0.00    +0.104 A 
ATOM     21  C   UNL     1       4.898   1.237  -0.032  0.00  0.00    +0.047 A 
ATOM     22  C   UNL     1       5.799   2.307  -0.041  0.00  0.00    +0.036 A 
ATOM     23  C   UNL     1       5.080   3.455  -0.028  0.00  0.00    +0.098 A 
ATOM     24  N   UNL     1       3.760   3.146  -0.017  0.00  0.00    -0.356 N 
ATOM     25  H   UNL     1       2.863   3.784  -0.005  0.00  0.00    +0.166 HD
ATOM     26 BR   UNL     1       7.685   2.175  -0.061  0.00  0.00    -0.049 Br
ENDBRANCH  17  20
ENDBRANCH   3  16
TORSDOF 3
