REMARK  Name = ZINC39668207
REMARK  5 active torsions:
REMARK  status: ('A' for Active; 'I' for Inactive)
REMARK    1  A    between atoms: C_6  and  C_7
REMARK    2  A    between atoms: C_7  and  N_8
REMARK    3  A    between atoms: C_9  and  C_11
REMARK    4  A    between atoms: C_22  and  C_24
REMARK    5  A    between atoms: C_27  and  C_31
REMARK                            x       y       z     vdW  Elec       q    Type
REMARK                         _______ _______ _______ _____ _____    ______ ____
ROOT
ATOM      1  C   UNL     1      -3.310  -1.916  -3.704  0.00  0.00    +0.100 C 
ATOM      2  C   UNL     1      -2.105  -2.772  -4.155  0.00  0.00    +0.121 C 
ATOM      3  N   UNL     1      -2.548  -4.173  -3.962  0.00  0.00    -0.296 N 
ATOM      4  C   UNL     1      -3.967  -4.173  -4.390  0.00  0.00    +0.115 C 
ATOM      5  C   UNL     1      -4.531  -2.838  -3.863  0.00  0.00    -0.004 C 
ATOM      6  C   UNL     1      -5.513  -2.245  -4.869  0.00  0.00    -0.010 C 
ATOM      7  C   UNL     1      -6.744  -3.150  -4.967  0.00  0.00    -0.082 C 
ATOM      8  N   UNL     1      -7.375  -3.265  -3.647  0.00  0.00    +0.379 N 
ATOM      9  C   UNL     1      -6.457  -3.921  -2.708  0.00  0.00    -0.082 C 
ATOM     10  C   UNL     1      -5.213  -3.049  -2.515  0.00  0.00    -0.010 C 
ATOM     11  C   UNL     1      -1.823  -5.212  -3.503  0.00  0.00    +0.247 C 
ATOM     12  O   UNL     1      -0.702  -5.028  -3.071  0.00  0.00    -0.270 OA
ATOM     13  H   UNL     1      -7.604  -2.345  -3.303  0.00  0.00    -0.086 HD
ATOM     14  H   UNL     1      -8.220  -3.811  -3.725  0.00  0.00    -0.086 HD
ENDROOT
BRANCH  11  15
ATOM     15  C   UNL     1      -2.393  -6.577  -3.523  0.00  0.00    +0.040 A 
ATOM     16  C   UNL     1      -3.452  -6.881  -4.380  0.00  0.00    +0.014 A 
ATOM     17  C   UNL     1      -3.979  -8.156  -4.396  0.00  0.00    +0.016 A 
ATOM     18  C   UNL     1      -3.461  -9.133  -3.565  0.00  0.00    +0.090 A 
ATOM     19  C   UNL     1      -2.410  -8.838  -2.712  0.00  0.00    +0.136 A 
ATOM     20  C   UNL     1      -1.869  -7.566  -2.691  0.00  0.00    +0.052 A 
ATOM     21  F   UNL     1      -1.909  -9.797  -1.902  0.00  0.00    -0.205 F 
BRANCH  18  22
ATOM     22  C   UNL     1      -4.042 -10.523  -3.588  0.00  0.00    +0.420 C 
ATOM     23  F   UNL     1      -5.084 -10.578  -4.521  0.00  0.00    -0.166 F 
ATOM     24  F   UNL     1      -3.047 -11.439  -3.947  0.00  0.00    -0.166 F 
ATOM     25  F   UNL     1      -4.535 -10.843  -2.319  0.00  0.00    -0.166 F 
ENDBRANCH  18  22
ENDBRANCH  11  15
BRANCH   1  27
ATOM     26  N   UNL     1      -3.786  -0.406  -1.803  0.00  0.00    -0.311 N 
ATOM     27  C   UNL     1      -3.150  -1.502  -2.264  0.00  0.00    +0.218 C 
ATOM     28  O   UNL     1      -2.449  -2.154  -1.519  0.00  0.00    -0.275 OA
ATOM     29  H   UNL     1      -4.347   0.115  -2.398  0.00  0.00    +0.149 HD
BRANCH  26  30
ATOM     30  C   UNL     1      -3.630  -0.004  -0.403  0.00  0.00    +0.139 C 
BRANCH  30  36
ATOM     31  C   UNL     1      -5.752   1.143   0.271  0.00  0.00    +0.009 A 
ATOM     32  C   UNL     1      -6.495   2.280   0.512  0.00  0.00    +0.046 A 
ATOM     33  C   UNL     1      -5.927   3.539   0.336  0.00  0.00    +0.124 A 
ATOM     34  C   UNL     1      -4.608   3.626  -0.090  0.00  0.00    -0.002 A 
ATOM     35  C   UNL     1      -3.867   2.490  -0.326  0.00  0.00    +0.012 A 
ATOM     36  C   UNL     1      -4.438   1.242  -0.146  0.00  0.00    -0.030 A 
ATOM     37  C   UNL     1      -4.277   5.101  -0.214  0.00  0.00    +0.080 C 
ATOM     38  C   UNL     1      -5.683   5.747  -0.187  0.00  0.00    +0.234 C 
ATOM     39  O   UNL     1      -6.466   4.775   0.525  0.00  0.00    -0.491 OA
ENDBRANCH  30  36
ENDBRANCH  26  30
ENDBRANCH   1  27
TORSDOF 5
