REMARK  Name = ZINC08749901
REMARK  6 active torsions:
REMARK  status: ('A' for Active; 'I' for Inactive)
REMARK    1  A    between atoms: C_1  and  C_2
REMARK    2  A    between atoms: C_2  and  C_4
REMARK    3  A    between atoms: C_2  and  S_10
REMARK    4  A    between atoms: S_10  and  C_11
REMARK    5  A    between atoms: C_14  and  C_15
REMARK    6  A    between atoms: N_25  and  C_26
REMARK                            x       y       z     vdW  Elec       q    Type
REMARK                         _______ _______ _______ _____ _____    ______ ____
ROOT
ATOM      1  C   UNL     1      -0.142  -0.754   2.579  0.00  0.00    +0.169 C 
ATOM      2  N   UNL     1      -0.795  -1.307   1.590  0.00  0.00    -0.220 NA
ATOM      3  C   UNL     1      -0.788  -2.664   1.748  0.00  0.00    +0.129 C 
ATOM      4  C   UNL     1      -1.359  -3.591   0.925  0.00  0.00    +0.041 C 
ATOM      5  C   UNL     1      -0.042  -2.922   2.995  0.00  0.00    +0.275 C 
ATOM      6  O   UNL     1       0.193  -4.003   3.503  0.00  0.00    -0.268 OA
ATOM      7  N   UNL     1       0.326  -1.705   3.453  0.00  0.00    -0.211 N 
ENDROOT
BRANCH   4   8
ATOM      8  C   UNL     1      -2.174  -3.157  -0.215  0.00  0.00    -0.021 A 
ATOM      9  C   UNL     1      -2.272  -1.796  -0.533  0.00  0.00    +0.009 A 
ATOM     10  C   UNL     1      -3.035  -1.395  -1.608  0.00  0.00    +0.022 A 
ATOM     11  C   UNL     1      -3.713  -2.334  -2.369  0.00  0.00    +0.059 A 
ATOM     12  C   UNL     1      -3.626  -3.683  -2.059  0.00  0.00    +0.060 A 
ATOM     13  C   UNL     1      -2.862  -4.100  -0.989  0.00  0.00    +0.029 A 
ATOM     14 CL   UNL     1      -4.479  -4.850  -3.020  0.00  0.00    -0.082 Cl
ATOM     15 CL   UNL     1      -4.677  -1.819  -3.718  0.00  0.00    -0.082 Cl
ENDBRANCH   4   8
BRANCH   7  16
ATOM     16  C   UNL     1       1.061  -1.456   4.622  0.00  0.00    +0.079 A 
ATOM     17  C   UNL     1       0.404  -1.253   5.827  0.00  0.00    +0.027 A 
ATOM     18  C   UNL     1       1.130  -1.011   6.977  0.00  0.00    +0.002 A 
ATOM     19  C   UNL     1       2.511  -0.962   6.927  0.00  0.00    +0.003 A 
ATOM     20  C   UNL     1       3.171  -1.158   5.728  0.00  0.00    +0.040 A 
ATOM     21  C   UNL     1       2.450  -1.405   4.574  0.00  0.00    +0.145 A 
ATOM     22  F   UNL     1       3.094  -1.597   3.402  0.00  0.00    -0.204 F 
ENDBRANCH   7  16
BRANCH   1  23
ATOM     23  S   UNL     1       0.098   0.981   2.770  0.00  0.00    -0.077 S 
BRANCH  23  25
ATOM     24  C   UNL     1      -0.030   1.097   0.044  0.00  0.00    +0.029 C 
ATOM     25  C   UNL     1      -0.764   1.581   1.296  0.00  0.00    +0.137 C 
BRANCH  25  26
ATOM     26  C   UNL     1      -0.793   3.088   1.310  0.00  0.00    +0.233 C 
ATOM     27  O   UNL     1       0.054   3.705   1.921  0.00  0.00    -0.274 OA
ATOM     28  N   UNL     1      -1.761   3.749   0.645  0.00  0.00    -0.239 N 
ATOM     29  C   UNL     1      -1.787   5.097   0.658  0.00  0.00    +0.303 C 
ATOM     30  O   UNL     1      -0.938   5.715   1.270  0.00  0.00    -0.253 OA
ATOM     31  N   UNL     1      -2.755   5.758  -0.007  0.00  0.00    -0.313 N 
ATOM     32  H   UNL     1      -2.438   3.256   0.157  0.00  0.00    +0.159 HD
ATOM     33  H   UNL     1      -3.432   5.265  -0.495  0.00  0.00    +0.146 HD
ATOM     34  H   UNL     1      -2.774   6.728   0.002  0.00  0.00    +0.146 HD
ENDBRANCH  25  26
ENDBRANCH  23  25
ENDBRANCH   1  23
TORSDOF 5
