REMARK  Name = ZINC19227276
REMARK  7 active torsions:
REMARK  status: ('A' for Active; 'I' for Inactive)
REMARK    1  A    between atoms: C_1  and  C_2
REMARK    2  A    between atoms: C_2  and  C_3
REMARK    3  A    between atoms: C_3  and  C_10
REMARK    4  A    between atoms: N_4  and  N_5
REMARK    5  A    between atoms: N_5  and  C_6
REMARK    6  A    between atoms: C_6  and  N_8
REMARK    7  A    between atoms: N_8  and  C_9
REMARK                            x       y       z     vdW  Elec       q    Type
REMARK                         _______ _______ _______ _____ _____    ______ ____
ROOT
ATOM      1  C   UNL     1      -0.742   1.585  -1.213  0.00  0.00    +0.070 C 
ATOM      2  N   UNL     1      -1.755   0.922  -1.680  0.00  0.00    -0.185 NA
ENDROOT
BRANCH   1   3
ATOM      3  C   UNL     1      -0.304   2.826  -1.876  0.00  0.00    +0.047 A 
ATOM      4  C   UNL     1       0.783   3.546  -1.373  0.00  0.00    +0.033 A 
ATOM      5  C   UNL     1       1.191   4.704  -2.002  0.00  0.00    +0.043 A 
ATOM      6  C   UNL     1       0.521   5.163  -3.125  0.00  0.00    +0.044 A 
ATOM      7  C   UNL     1      -0.559   4.462  -3.628  0.00  0.00    +0.090 A 
ATOM      8  C   UNL     1      -0.979   3.294  -3.012  0.00  0.00    +0.206 A 
ATOM      9  O   UNL     1      -2.040   2.604  -3.506  0.00  0.00    -0.286 OA
ATOM     10 CL   UNL     1      -1.391   5.046  -5.036  0.00  0.00    -0.080 Cl
ATOM     11 CL   UNL     1       2.546   5.594  -1.380  0.00  0.00    -0.083 Cl
ENDBRANCH   1   3
BRANCH   1  13
ATOM     12  C   UNL     1      -0.729   1.579   1.267  0.00  0.00    +0.010 C 
ATOM     13  C   UNL     1      -0.013   1.086   0.008  0.00  0.00    +0.054 C 
ENDBRANCH   1  13
BRANCH   2  14
ATOM     14  N   UNL     1      -2.171  -0.258  -1.049  0.00  0.00    -0.218 N 
ATOM     15  H   UNL     1      -1.639  -0.622  -0.158  0.00  0.00    +0.176 HD
BRANCH  14  16
ATOM     16  C   UNL     1      -3.223  -0.946  -1.535  0.00  0.00    +0.150 C 
ATOM     17  S   UNL     1      -3.732  -2.388  -0.764  0.00  0.00    -0.017 S 
BRANCH  16  18
ATOM     18  N   UNL     1      -3.875  -0.500  -2.627  0.00  0.00    -0.328 N 
ATOM     19  C   UNL     1      -5.019  -1.248  -3.154  0.00  0.00    +0.127 C 
ATOM     20  H   UNL     1      -3.548   0.426  -3.122  0.00  0.00    +0.147 HD
ENDBRANCH  16  18
ENDBRANCH  14  16
ENDBRANCH   2  14
TORSDOF 5
