REMARK  Name = ZINC29336802
REMARK  7 active torsions:
REMARK  status: ('A' for Active; 'I' for Inactive)
REMARK    1  A    between atoms: C_1  and  C_2
REMARK    2  A    between atoms: C_2  and  N_3
REMARK    3  A    between atoms: C_4  and  C_6
REMARK    4  A    between atoms: C_6  and  C_8
REMARK    5  A    between atoms: C_6  and  N_9
REMARK    6  A    between atoms: N_12  and  N_13
REMARK    7  A    between atoms: C_14  and  C_16
REMARK                            x       y       z     vdW  Elec       q    Type
REMARK                         _______ _______ _______ _____ _____    ______ ____
ROOT
ATOM      1  N   UNL     1      -4.934   0.661   0.054  0.00  0.00    -0.287 N 
ATOM      2  C   UNL     1      -4.769  -0.677   0.046  0.00  0.00    +0.317 C 
ATOM      3  O   UNL     1      -5.740  -1.409   0.051  0.00  0.00    -0.251 OA
ATOM      4  N   UNL     1      -3.529  -1.204   0.031  0.00  0.00    -0.218 N 
ATOM      5  H   UNL     1      -4.055   1.323   0.049  0.00  0.00    +0.151 HD
ATOM      6  H   UNL     1      -3.394  -2.295   0.024  0.00  0.00    +0.174 HD
ENDROOT
BRANCH   4   7
ATOM      7  N   UNL     1      -2.410  -0.360   0.024  0.00  0.00    -0.228 N 
ATOM      8  C   UNL     1      -1.169  -0.887   0.009  0.00  0.00    +0.276 C 
ATOM      9  O   UNL     1      -1.021  -2.095   0.001  0.00  0.00    -0.267 OA
ATOM     10  H   UNL     1      -2.544   0.731   0.031  0.00  0.00    +0.173 HD
BRANCH   8  11
ATOM     11  C   UNL     1       0.002  -0.004   0.002  0.00  0.00    +0.104 A 
ATOM     12  C   UNL     1       1.322  -0.402  -0.013  0.00  0.00    +0.047 A 
ATOM     13  C   UNL     1       2.102   0.760  -0.014  0.00  0.00    +0.036 A 
ATOM     14  C   UNL     1       1.262   1.823  -0.000  0.00  0.00    +0.098 A 
ATOM     15  N   UNL     1      -0.017   1.372   0.010  0.00  0.00    -0.356 N 
ATOM     16  H   UNL     1      -0.977   1.909   0.022  0.00  0.00    +0.166 HD
ATOM     17 BR   UNL     1       3.991   0.833  -0.032  0.00  0.00    -0.049 Br
ENDBRANCH   8  11
ENDBRANCH   4   7
BRANCH   1  18
ATOM     18  C   UNL     1      -6.282   1.233   0.071  0.00  0.00    +0.157 C 
ATOM     19  C   UNL     1      -6.786   1.309   1.514  0.00  0.00    +0.038 C 
BRANCH  18  21
ATOM     20  N   UNL     1      -7.381   3.341  -0.611  0.00  0.00    -0.314 N 
ATOM     21  C   UNL     1      -6.247   2.618  -0.522  0.00  0.00    +0.233 C 
ATOM     22  O   UNL     1      -5.199   3.081  -0.920  0.00  0.00    -0.274 OA
ATOM     23  H   UNL     1      -8.331   2.921  -0.251  0.00  0.00    +0.149 HD
BRANCH  20  25
ATOM     24  C   UNL     1      -8.755   5.285  -1.171  0.00  0.00    +0.024 C 
ATOM     25  C   UNL     1      -7.347   4.688  -1.188  0.00  0.00    +0.101 C 
ENDBRANCH  20  25
ENDBRANCH  18  21
ENDBRANCH   1  18
TORSDOF 5
