REMARK  Name = ZINC21224928
REMARK  4 active torsions:
REMARK  status: ('A' for Active; 'I' for Inactive)
REMARK    1  A    between atoms: C_1  and  O_2
REMARK    2  A    between atoms: O_2  and  C_3
REMARK    3  A    between atoms: C_8  and  C_9
REMARK    4  A    between atoms: C_14  and  C_24
REMARK                            x       y       z     vdW  Elec       q    Type
REMARK                         _______ _______ _______ _____ _____    ______ ____
ROOT
ATOM      1  C   UNL     1       6.075   4.020   1.433  0.00  0.00    +0.035 C 
ATOM      2  C   UNL     1       5.431   2.700   1.011  0.00  0.00    +0.060 C 
ATOM      3  C   UNL     1       3.953   2.911   0.731  0.00  0.00    +0.017 C 
ATOM      4  C   UNL     1       3.252   3.829   1.418  0.00  0.00    +0.037 C 
ATOM      5  C   UNL     1       1.781   4.125   1.256  0.00  0.00    +0.143 C 
ATOM      6  N   UNL     1       1.171   3.521   0.089  0.00  0.00    -0.331 N 
ATOM      7  C   UNL     1       1.073   2.136  -0.037  0.00  0.00    +0.049 A 
ATOM      8  C   UNL     1      -0.152   1.491  -0.026  0.00  0.00    +0.025 A 
ATOM      9  C   UNL     1      -0.193   0.108  -0.068  0.00  0.00    +0.002 A 
ATOM     10  C   UNL     1       0.979  -0.625  -0.121  0.00  0.00    +0.002 A 
ATOM     11  C   UNL     1       2.205   0.018  -0.150  0.00  0.00    +0.025 A 
ATOM     12  C   UNL     1       2.247   1.401  -0.124  0.00  0.00    +0.052 A 
ATOM     13  N   UNL     1       3.437   2.109  -0.235  0.00  0.00    -0.316 N 
ATOM     14  C   UNL     1       3.892   4.627   2.396  0.00  0.00    +0.163 C 
ATOM     15  O   UNL     1       3.231   5.438   3.014  0.00  0.00    -0.292 OA
ATOM     16  C   UNL     1       5.356   4.507   2.697  0.00  0.00    +0.088 C 
ATOM     17  H   UNL     1       0.775   4.158  -0.716  0.00  0.00    +0.147 HD
ATOM     18  H   UNL     1       3.970   1.983  -1.189  0.00  0.00    +0.152 HD
ENDROOT
BRANCH   5  19
ATOM     19  C   UNL     1       1.057   3.632   2.482  0.00  0.00    +0.059 A 
ATOM     20  C   UNL     1       1.609   2.683   3.258  0.00  0.00    +0.205 A 
ATOM     21  O   UNL     1       1.014   2.208   4.358  0.00  0.00    -0.462 OA
ATOM     22  C   UNL     1      -0.191   2.647   4.774  0.00  0.00    +0.138 A 
ATOM     23  C   UNL     1      -0.782   2.132   5.922  0.00  0.00    +0.048 A 
ATOM     24  C   UNL     1      -2.014   2.598   6.329  0.00  0.00    +0.023 A 
ATOM     25  C   UNL     1      -2.677   3.579   5.602  0.00  0.00    +0.042 A 
ATOM     26  C   UNL     1      -2.108   4.101   4.460  0.00  0.00    +0.035 A 
ATOM     27  C   UNL     1      -0.862   3.638   4.040  0.00  0.00    +0.066 A 
ATOM     28  C   UNL     1      -0.210   4.172   2.828  0.00  0.00    +0.198 A 
ATOM     29  O   UNL     1      -0.739   5.037   2.151  0.00  0.00    -0.287 OA
ATOM     30 CL   UNL     1      -4.228   4.149   6.134  0.00  0.00    -0.084 Cl
ENDBRANCH   5  19
BRANCH   1  36
ATOM     31  C   UNL     1       8.500   4.492   1.005  0.00  0.00    +0.124 A 
ATOM     32  C   UNL     1       9.846   4.290   1.279  0.00  0.00    +0.046 A 
ATOM     33  C   UNL     1      10.223   3.406   2.271  0.00  0.00    +0.004 A 
ATOM     34  C   UNL     1       9.260   2.721   2.990  0.00  0.00    +0.001 A 
ATOM     35  C   UNL     1       7.919   2.924   2.723  0.00  0.00    +0.007 A 
ATOM     36  C   UNL     1       7.537   3.804   1.728  0.00  0.00    -0.002 A 
BRANCH  31  38
ATOM     37  C   UNL     1       9.173   6.035  -0.674  0.00  0.00    +0.277 C 
ATOM     38  O   UNL     1       8.127   5.361   0.030  0.00  0.00    -0.495 OA
ENDBRANCH  31  38
ENDBRANCH   1  36
TORSDOF 3
