REMARK  Name = ZINC59424920
REMARK  7 active torsions:
REMARK  status: ('A' for Active; 'I' for Inactive)
REMARK    1  A    between atoms: C_1  and  N_2
REMARK    2  A    between atoms: N_2  and  C_3
REMARK    3  A    between atoms: C_6  and  N_26
REMARK    4  A    between atoms: C_8  and  C_9
REMARK    5  A    between atoms: N_11  and  C_12
REMARK    6  A    between atoms: C_12  and  C_13
REMARK    7  A    between atoms: C_13  and  C_19
REMARK                            x       y       z     vdW  Elec       q    Type
REMARK                         _______ _______ _______ _____ _____    ______ ____
ROOT
ATOM      1  C   UNL     1       2.680  -3.303  -1.367  0.00  0.00    +0.246 C 
ATOM      2  O   UNL     1       2.308  -2.439  -0.596  0.00  0.00    -0.270 OA
ATOM      3  N   UNL     1       2.502  -4.603  -1.059  0.00  0.00    -0.310 N 
ATOM      4  H   UNL     1       2.799  -5.292  -1.673  0.00  0.00    +0.149 HD
ENDROOT
BRANCH   1  10
ATOM      5  C   UNL     1       3.623  -1.584  -2.910  0.00  0.00    +0.039 A 
ATOM      6  C   UNL     1       4.237  -1.244  -4.109  0.00  0.00    +0.026 A 
ATOM      7  C   UNL     1       4.546  -2.225  -5.029  0.00  0.00    +0.034 A 
ATOM      8  C   UNL     1       4.248  -3.553  -4.766  0.00  0.00    +0.127 A 
ATOM      9  C   UNL     1       3.639  -3.908  -3.583  0.00  0.00    +0.047 A 
ATOM     10  C   UNL     1       3.325  -2.928  -2.638  0.00  0.00    +0.060 A 
BRANCH   5  12
ATOM     11  C   UNL     1       3.735   0.785  -2.212  0.00  0.00    +0.125 C 
ATOM     12  N   UNL     1       3.310  -0.598  -1.982  0.00  0.00    -0.346 N 
ATOM     13  H   UNL     1       2.811  -0.826  -1.182  0.00  0.00    +0.146 HD
ENDBRANCH   5  12
BRANCH   8  14
ATOM     14  N   UNL     1       4.585  -4.594  -5.763  0.00  0.00    +0.056 N 
ATOM     15  O   UNL     1       5.119  -4.285  -6.803  0.00  0.00    -0.126 OA
ATOM     16  O   UNL     1       4.326  -5.753  -5.537  0.00  0.00    -0.126 OA
ENDBRANCH   8  14
ENDBRANCH   1  10
BRANCH   3  17
ATOM     17  C   UNL     1       1.861  -4.975   0.205  0.00  0.00    +0.116 C 
BRANCH  17  18
ATOM     18  C   UNL     1       1.898  -6.496   0.367  0.00  0.00    +0.015 C 
ATOM     19  C   UNL     1       1.331  -6.880   1.737  0.00  0.00    +0.041 C 
ATOM     20  C   UNL     1       2.220  -6.286   2.833  0.00  0.00    +0.160 C 
ATOM     21  O   UNL     1       3.558  -6.758   2.666  0.00  0.00    -0.380 OA
ATOM     22  C   UNL     1       4.157  -6.389   1.422  0.00  0.00    +0.160 C 
ATOM     23  C   UNL     1       3.346  -6.987   0.270  0.00  0.00    +0.041 C 
BRANCH  18  24
ATOM     24  C   UNL     1       1.074  -7.139  -0.719  0.00  0.00    -0.039 A 
ATOM     25  C   UNL     1       1.640  -8.097  -1.541  0.00  0.00    +0.004 A 
ATOM     26  C   UNL     1       0.885  -8.686  -2.537  0.00  0.00    +0.001 A 
ATOM     27  C   UNL     1      -0.436  -8.319  -2.713  0.00  0.00    +0.015 A 
ATOM     28  C   UNL     1      -1.003  -7.361  -1.891  0.00  0.00    +0.018 A 
ATOM     29  C   UNL     1      -0.248  -6.775  -0.891  0.00  0.00    +0.019 A 
ATOM     30 BR   UNL     1      -2.809  -6.857  -2.131  0.00  0.00    -0.050 Br
ENDBRANCH  18  24
ENDBRANCH  17  18
ENDBRANCH   3  17
TORSDOF 6
