REMARK  Name = ZINC09299648
REMARK  9 active torsions:
REMARK  status: ('A' for Active; 'I' for Inactive)
REMARK    1  A    between atoms: C_1  and  C_2
REMARK    2  A    between atoms: C_2  and  C_3
REMARK    3  A    between atoms: C_3  and  N_4
REMARK    4  A    between atoms: C_8  and  S_30
REMARK    5  A    between atoms: N_13  and  C_14
REMARK    6  A    between atoms: C_14  and  C_16
REMARK    7  A    between atoms: C_19  and  S_22
REMARK    8  A    between atoms: S_22  and  N_25
REMARK    9  A    between atoms: S_30  and  N_33
REMARK                            x       y       z     vdW  Elec       q    Type
REMARK                         _______ _______ _______ _____ _____    ______ ____
ROOT
ATOM      1  N   UNL     1      -3.533   5.810   7.211  0.00  0.00    -0.321 N 
ATOM      2  C   UNL     1      -4.300   6.003   8.345  0.00  0.00    +0.058 A 
ATOM      3  C   UNL     1      -4.343   7.128   9.185  0.00  0.00    +0.029 A 
ATOM      4  C   UNL     1      -5.170   7.153  10.283  0.00  0.00    +0.030 A 
ATOM      5  C   UNL     1      -5.984   6.077  10.593  0.00  0.00    +0.106 A 
ATOM      6  C   UNL     1      -5.962   4.956   9.782  0.00  0.00    +0.045 A 
ATOM      7  C   UNL     1      -5.135   4.929   8.684  0.00  0.00    +0.041 A 
ATOM      8  S   UNL     1      -4.804   3.738   7.410  0.00  0.00    -0.052 S 
ATOM      9  C   UNL     1      -3.625   4.643   6.517  0.00  0.00    +0.167 A 
ATOM     10  N   UNL     1      -2.973   4.286   5.416  0.00  0.00    -0.152 NA
ENDROOT
BRANCH   5  11
ATOM     11  S   UNL     1      -7.037   6.134  12.005  0.00  0.00    +0.056 S 
ATOM     12  O   UNL     1      -7.269   7.508  12.283  0.00  0.00    -0.153 OA
ATOM     13  O   UNL     1      -8.095   5.217  11.760  0.00  0.00    -0.153 OA
BRANCH  11  14
ATOM     14  N   UNL     1      -6.175   5.532  13.284  0.00  0.00    -0.204 NA
ATOM     15  H   UNL     1      -6.355   5.848  14.183  0.00  0.00    +0.144 HD
ATOM     16  H   UNL     1      -5.489   4.862  13.134  0.00  0.00    +0.144 HD
ENDBRANCH  11  14
ENDBRANCH   5  11
BRANCH  10  17
ATOM     17  C   UNL     1      -3.194   3.087   4.868  0.00  0.00    +0.269 C 
ATOM     18  O   UNL     1      -3.994   2.322   5.378  0.00  0.00    -0.268 OA
BRANCH  17  19
ATOM     19  C   UNL     1      -2.467   2.688   3.640  0.00  0.00    +0.039 A 
ATOM     20  C   UNL     1      -2.695   1.438   3.066  0.00  0.00    +0.015 A 
ATOM     21  C   UNL     1      -2.015   1.072   1.923  0.00  0.00    +0.029 A 
ATOM     22  C   UNL     1      -1.108   1.943   1.346  0.00  0.00    +0.106 A 
ATOM     23  C   UNL     1      -0.873   3.183   1.914  0.00  0.00    +0.029 A 
ATOM     24  C   UNL     1      -1.551   3.562   3.054  0.00  0.00    +0.015 A 
BRANCH  22  25
ATOM     25  S   UNL     1      -0.243   1.469  -0.114  0.00  0.00    +0.061 S 
ATOM     26  O   UNL     1      -0.231   0.048  -0.136  0.00  0.00    -0.153 OA
ATOM     27  O   UNL     1       0.950   2.241  -0.148  0.00  0.00    -0.153 OA
BRANCH  25  28
ATOM     28  N   UNL     1      -1.159   1.954  -1.405  0.00  0.00    -0.177 NA
ATOM     29  C   UNL     1      -2.195   1.152  -2.072  0.00  0.00    +0.109 C 
ATOM     30  C   UNL     1      -2.758   2.001  -3.230  0.00  0.00    +0.018 C 
ATOM     31  C   UNL     1      -1.612   3.009  -3.509  0.00  0.00    +0.018 C 
ATOM     32  C   UNL     1      -1.066   3.261  -2.082  0.00  0.00    +0.109 C 
ENDBRANCH  25  28
ENDBRANCH  22  25
ENDBRANCH  17  19
ENDBRANCH  10  17
BRANCH   1  33
ATOM     33  C   UNL     1      -2.621   6.862   6.756  0.00  0.00    +0.124 C 
BRANCH  33  35
ATOM     34  C   UNL     1      -0.337   7.322   5.854  0.00  0.00    +0.005 C 
ATOM     35  C   UNL     1      -1.347   6.225   6.196  0.00  0.00    +0.018 C 
ENDBRANCH  33  35
ENDBRANCH   1  33
TORSDOF 8
