REMARK  Name = ZINC04659799
REMARK  9 active torsions:
REMARK  status: ('A' for Active; 'I' for Inactive)
REMARK    1  A    between atoms: C_1  and  C_2
REMARK    2  A    between atoms: C_5  and  C_8
REMARK    3  A    between atoms: C_15  and  N_31
REMARK    4  A    between atoms: C_16  and  C_29
REMARK    5  A    between atoms: C_17  and  C_19
REMARK    6  A    between atoms: C_23  and  O_27
REMARK    7  A    between atoms: C_24  and  O_25
REMARK    8  A    between atoms: O_25  and  C_26
REMARK    9  A    between atoms: O_27  and  C_28
REMARK                            x       y       z     vdW  Elec       q    Type
REMARK                         _______ _______ _______ _____ _____    ______ ____
ROOT
ATOM      1  C   UNL     1      -0.726  -4.687  -0.086  0.00  0.00    +0.100 A 
ATOM      2  C   UNL     1       0.259  -5.408   0.595  0.00  0.00    +0.054 A 
ATOM      3  C   UNL     1      -0.033  -6.736   0.479  0.00  0.00    +0.223 A 
ATOM      4  N   UNL     1      -1.163  -6.846  -0.249  0.00  0.00    -0.246 N 
ATOM      5  H   UNL     1      -1.608  -7.674  -0.490  0.00  0.00    +0.192 HD
ATOM      6  N   UNL     1      -1.586  -5.552  -0.591  0.00  0.00    -0.171 NA
ATOM      7  O   UNL     1       0.739  -7.706   1.032  0.00  0.00    -0.423 OA
ATOM      8  C   UNL     1       1.963  -7.354   1.475  0.00  0.00    +0.200 C 
ATOM      9  C   UNL     1       2.362  -6.074   1.643  0.00  0.00    +0.098 C 
ATOM     10  C   UNL     1       1.460  -4.901   1.350  0.00  0.00    +0.105 C 
ENDROOT
BRANCH   1  15
ATOM     11  C   UNL     1      -0.999   1.044  -0.582  0.00  0.00    +0.044 C 
ATOM     12  C   UNL     1      -0.928  -0.455  -0.452  0.00  0.00    -0.050 A 
ATOM     13  C   UNL     1      -2.073  -1.178  -0.171  0.00  0.00    +0.004 A 
ATOM     14  C   UNL     1      -2.014  -2.552  -0.051  0.00  0.00    +0.010 A 
ATOM     15  C   UNL     1      -0.797  -3.210  -0.214  0.00  0.00    +0.003 A 
ATOM     16  C   UNL     1       0.354  -2.478  -0.497  0.00  0.00    +0.010 A 
ATOM     17  C   UNL     1       0.282  -1.105  -0.620  0.00  0.00    +0.004 A 
ENDBRANCH   1  15
BRANCH  10  18
ATOM     18  C   UNL     1       1.018  -4.265   2.643  0.00  0.00    +0.011 A 
ATOM     19  C   UNL     1       1.568  -3.062   3.045  0.00  0.00    +0.008 A 
ATOM     20  C   UNL     1       1.164  -2.476   4.230  0.00  0.00    +0.004 A 
ATOM     21  C   UNL     1       0.208  -3.090   5.019  0.00  0.00    +0.049 A 
ATOM     22  C   UNL     1      -0.347  -4.296   4.621  0.00  0.00    +0.162 A 
ATOM     23  C   UNL     1       0.056  -4.883   3.425  0.00  0.00    +0.166 A 
BRANCH  23  24
ATOM     24  O   UNL     1      -0.490  -6.063   3.027  0.00  0.00    -0.491 OA
ATOM     25  C   UNL     1       0.030  -7.252   3.625  0.00  0.00    +0.277 C 
ENDBRANCH  23  24
BRANCH  22  26
ATOM     26  O   UNL     1      -1.286  -4.901   5.395  0.00  0.00    -0.491 OA
ATOM     27  C   UNL     1      -1.655  -4.238   6.606  0.00  0.00    +0.277 C 
ENDBRANCH  22  26
ENDBRANCH  10  18
BRANCH   8  28
ATOM     28  N   UNL     1       2.854  -8.354   1.772  0.00  0.00    -0.328 N 
ATOM     29  H   UNL     1       2.597  -9.283   1.662  0.00  0.00    +0.145 HD
ATOM     30  H   UNL     1       3.743  -8.133   2.093  0.00  0.00    +0.145 HD
ENDBRANCH   8  28
BRANCH   9  31
ATOM     31  C   UNL     1       3.690  -5.823   2.116  0.00  0.00    +0.101 C 
ATOM     32  N   UNL     1       4.744  -5.623   2.492  0.00  0.00    -0.191 NA
ENDBRANCH   9  31
TORSDOF 6
