REMARK  Name = ZINC17217179
REMARK  4 active torsions:
REMARK  status: ('A' for Active; 'I' for Inactive)
REMARK    1  A    between atoms: C_1  and  C_2
REMARK    2  A    between atoms: N_27  and  C_30
REMARK    3  A    between atoms: C_33  and  O_36
REMARK    4  A    between atoms: O_36  and  C_37
REMARK                            x       y       z     vdW  Elec       q    Type
REMARK                         _______ _______ _______ _____ _____    ______ ____
ROOT
ATOM      1  C   UNL     1      -2.970   9.905   0.453  0.00  0.00    +0.007 C 
ATOM      2  C   UNL     1      -1.816   8.922   0.736  0.00  0.00    -0.014 C 
ATOM      3  C   UNL     1      -2.418   7.613   1.234  0.00  0.00    +0.004 C 
ATOM      4  C   UNL     1      -1.347   6.527   1.344  0.00  0.00    +0.009 C 
ATOM      5  C   UNL     1      -0.754   6.299  -0.043  0.00  0.00    +0.025 C 
ATOM      6  C   UNL     1       0.245   5.174  -0.027  0.00  0.00    -0.015 A 
ATOM      7  C   UNL     1      -0.002   3.747  -0.016  0.00  0.00    +0.003 A 
ATOM      8  C   UNL     1      -1.175   2.986  -0.001  0.00  0.00    +0.010 A 
ATOM      9  C   UNL     1      -1.029   1.621  -0.013  0.00  0.00    +0.001 A 
ATOM     10  C   UNL     1       0.216   1.014  -0.044  0.00  0.00    +0.002 A 
ATOM     11  C   UNL     1       1.393   1.743  -0.050  0.00  0.00    +0.026 A 
ATOM     12  C   UNL     1       1.275   3.131  -0.035  0.00  0.00    +0.047 A 
ATOM     13  N   UNL     1       2.206   4.128  -0.035  0.00  0.00    -0.357 N 
ATOM     14  H   UNL     1       3.278   3.881  -0.033  0.00  0.00    +0.166 HD
ATOM     15  C   UNL     1       1.581   5.352  -0.037  0.00  0.00    +0.033 A 
ATOM     16  C   UNL     1       2.276   6.690  -0.050  0.00  0.00    +0.135 C 
ATOM     17  C   UNL     1       1.267   7.844   0.102  0.00  0.00    +0.097 C 
ATOM     18  C   UNL     1      -0.064   7.563  -0.539  0.00  0.00    +0.010 C 
ATOM     19  C   UNL     1      -1.005   8.754  -0.537  0.00  0.00    +0.008 C 
ATOM     20  C   UNL     1       1.245   8.080   1.587  0.00  0.00    +0.231 C 
ATOM     21  O   UNL     1       0.432   8.701   2.236  0.00  0.00    -0.274 OA
ATOM     22  N   UNL     1       2.338   7.497   2.123  0.00  0.00    -0.210 N 
ATOM     23  C   UNL     1       3.071   6.798   1.245  0.00  0.00    +0.236 C 
ATOM     24  O   UNL     1       4.172   6.331   1.446  0.00  0.00    -0.274 OA
ENDROOT
BRANCH  22  25
ATOM     25  C   UNL     1       2.687   7.644   3.474  0.00  0.00    +0.044 A 
ATOM     26  C   UNL     1       3.060   8.889   3.963  0.00  0.00    +0.027 A 
ATOM     27  C   UNL     1       3.399   9.034   5.294  0.00  0.00    +0.047 A 
ATOM     28  C   UNL     1       3.377   7.935   6.140  0.00  0.00    +0.120 A 
ATOM     29  C   UNL     1       3.010   6.690   5.650  0.00  0.00    +0.047 A 
ATOM     30  C   UNL     1       2.666   6.544   4.321  0.00  0.00    +0.027 A 
BRANCH  28  31
ATOM     31  O   UNL     1       3.715   8.077   7.449  0.00  0.00    -0.495 OA
ATOM     32  C   UNL     1       4.083   9.387   7.885  0.00  0.00    +0.277 C 
ENDBRANCH  28  31
ENDBRANCH  22  25
TORSDOF 2
