REMARK  Name = ZINC39687298
REMARK  6 active torsions:
REMARK  status: ('A' for Active; 'I' for Inactive)
REMARK    1  A    between atoms: C_4  and  C_7
REMARK    2  A    between atoms: C_7  and  C_8
REMARK    3  A    between atoms: C_8  and  C_10
REMARK    4  A    between atoms: C_8  and  N_18
REMARK    5  A    between atoms: C_19  and  C_21
REMARK    6  A    between atoms: C_32  and  C_34
REMARK                            x       y       z     vdW  Elec       q    Type
REMARK                         _______ _______ _______ _____ _____    ______ ____
ROOT
ATOM      1  N   UNL     1       3.325   0.371   3.247  0.00  0.00    -0.303 N 
ATOM      2  C   UNL     1       3.572   1.245   2.252  0.00  0.00    +0.219 C 
ATOM      3  O   UNL     1       3.680   0.851   1.110  0.00  0.00    -0.275 OA
ATOM      4  H   UNL     1       3.298   0.677   4.167  0.00  0.00    +0.149 HD
ENDROOT
BRANCH   2   5
ATOM      5  C   UNL     1       3.712   2.714   2.558  0.00  0.00    +0.100 C 
ATOM      6  C   UNL     1       4.630   2.924   3.783  0.00  0.00    +0.121 C 
ATOM      7  N   UNL     1       4.022   4.058   4.517  0.00  0.00    -0.300 N 
ATOM      8  C   UNL     1       2.561   3.825   4.412  0.00  0.00    +0.115 C 
ATOM      9  C   UNL     1       2.355   3.307   2.975  0.00  0.00    -0.004 C 
ATOM     10  C   UNL     1       1.974   4.457   2.049  0.00  0.00    -0.010 C 
ATOM     11  C   UNL     1       0.596   4.992   2.448  0.00  0.00    -0.082 C 
ATOM     12  N   UNL     1      -0.396   3.913   2.356  0.00  0.00    +0.379 N 
ATOM     13  C   UNL     1      -0.072   2.852   3.316  0.00  0.00    -0.082 C 
ATOM     14  C   UNL     1       1.278   2.227   2.954  0.00  0.00    -0.010 C 
ATOM     15  C   UNL     1       4.653   5.073   5.139  0.00  0.00    +0.219 C 
ATOM     16  O   UNL     1       4.010   5.934   5.702  0.00  0.00    -0.275 OA
ATOM     17  H   UNL     1      -1.312   4.282   2.560  0.00  0.00    -0.086 HD
ATOM     18  H   UNL     1      -0.390   3.533   1.421  0.00  0.00    -0.086 HD
BRANCH  15  19
ATOM     19  C   UNL     1       6.159   5.139   5.136  0.00  0.00    +0.079 C 
ATOM     20  C   UNL     1       6.623   6.375   5.916  0.00  0.00    +0.017 C 
ATOM     21  C   UNL     1       8.137   6.515   5.746  0.00  0.00    +0.027 C 
ATOM     22  C   UNL     1       8.812   5.206   6.032  0.00  0.00    -0.031 C 
ATOM     23  C   UNL     1       8.201   4.065   6.060  0.00  0.00    -0.030 C 
ATOM     24  C   UNL     1       6.730   3.891   5.814  0.00  0.00    +0.039 C 
ENDBRANCH  15  19
ENDBRANCH   2   5
BRANCH   1  25
ATOM     25  C   UNL     1       3.099  -1.044   2.940  0.00  0.00    +0.163 C 
BRANCH  25  26
ATOM     26  C   UNL     1       2.276  -1.670   4.036  0.00  0.00    +0.236 C 
ATOM     27  O   UNL     1       2.306  -1.208   5.157  0.00  0.00    -0.274 OA
ATOM     28  N   UNL     1       1.506  -2.744   3.770  0.00  0.00    -0.300 N 
ATOM     29  C   UNL     1       1.544  -3.384   2.448  0.00  0.00    +0.108 C 
ATOM     30  C   UNL     1       1.829  -4.878   2.630  0.00  0.00    +0.019 C 
ATOM     31  C   UNL     1       0.797  -5.477   3.589  0.00  0.00    +0.003 C 
ATOM     32  C   UNL     1       0.909  -4.793   4.954  0.00  0.00    +0.019 C 
ATOM     33  C   UNL     1       0.618  -3.302   4.799  0.00  0.00    +0.108 C 
ENDBRANCH  25  26
BRANCH  25  34
ATOM     34  C   UNL     1       4.444  -1.765   2.836  0.00  0.00    +0.067 C 
BRANCH  34  38
ATOM     35  C   UNL     1       6.677  -0.158  -0.432  0.00  0.00    +0.000 A 
ATOM     36  C   UNL     1       6.805   0.392   0.830  0.00  0.00    +0.000 A 
ATOM     37  C   UNL     1       6.082  -0.128   1.888  0.00  0.00    +0.004 A 
ATOM     38  C   UNL     1       5.231  -1.198   1.683  0.00  0.00    -0.045 A 
ATOM     39  C   UNL     1       5.102  -1.747   0.421  0.00  0.00    +0.004 A 
ATOM     40  C   UNL     1       5.826  -1.228  -0.636  0.00  0.00    +0.000 A 
ENDBRANCH  34  38
ENDBRANCH  25  34
ENDBRANCH   1  25
TORSDOF 6
