REMARK  Name = ZINC14476210
REMARK  8 active torsions:
REMARK  status: ('A' for Active; 'I' for Inactive)
REMARK    1  A    between atoms: C_1  and  C_2
REMARK    2  A    between atoms: C_2  and  N_3
REMARK    3  A    between atoms: N_3  and  C_4
REMARK    4  A    between atoms: C_4  and  C_5
REMARK    5  A    between atoms: C_6  and  C_8
REMARK    6  A    between atoms: C_21  and  C_24
REMARK    7  A    between atoms: C_26  and  N_31
REMARK    8  A    between atoms: C_29  and  O_30
REMARK                            x       y       z     vdW  Elec       q    Type
REMARK                         _______ _______ _______ _____ _____    ______ ____
ROOT
ATOM      1  C   UNL     1      -4.270  -0.962   0.878  0.00  0.00    +0.037 A 
ATOM      2  C   UNL     1      -4.672  -0.986  -0.461  0.00  0.00    +0.015 A 
ATOM      3  C   UNL     1      -6.011  -1.035  -0.768  0.00  0.00    +0.024 A 
ATOM      4  C   UNL     1      -6.968  -1.062   0.248  0.00  0.00    +0.031 A 
ATOM      5  C   UNL     1      -6.575  -1.049   1.578  0.00  0.00    -0.019 A 
ATOM      6  C   UNL     1      -5.229  -0.999   1.891  0.00  0.00    +0.019 A 
ATOM      7  C   UNL     1      -7.565  -1.113   2.708  0.00  0.00    +0.049 C 
ATOM      8  C   UNL     1      -7.128  -2.227   3.646  0.00  0.00    -0.023 C 
ATOM      9  C   UNL     1      -7.849  -3.301   3.454  0.00  0.00    -0.030 C 
ATOM     10  C   UNL     1      -8.884  -3.071   2.373  0.00  0.00    +0.033 C 
ATOM     11  C   UNL     1      -8.965  -1.516   2.254  0.00  0.00    +0.029 C 
ATOM     12  C   UNL     1      -9.373  -1.052   0.888  0.00  0.00    +0.108 C 
ATOM     13  N   UNL     1      -8.308  -1.094  -0.096  0.00  0.00    -0.336 N 
ATOM     14  H   UNL     1      -8.545  -1.123  -1.036  0.00  0.00    +0.147 HD
ENDROOT
BRANCH  12  15
ATOM     15  C   UNL     1     -10.483  -1.943   0.393  0.00  0.00    +0.017 A 
ATOM     16  C   UNL     1     -10.191  -3.032  -0.407  0.00  0.00    +0.041 A 
ATOM     17  C   UNL     1     -11.209  -3.849  -0.861  0.00  0.00    +0.127 A 
ATOM     18  C   UNL     1     -12.521  -3.580  -0.517  0.00  0.00    +0.036 A 
ATOM     19  C   UNL     1     -12.818  -2.493   0.282  0.00  0.00    +0.048 A 
ATOM     20  C   UNL     1     -11.797  -1.674   0.744  0.00  0.00    +0.122 A 
BRANCH  17  21
ATOM     21  N   UNL     1     -10.894  -5.015  -1.717  0.00  0.00    +0.056 N 
ATOM     22  O   UNL     1      -9.748  -5.251  -2.019  0.00  0.00    -0.126 OA
ATOM     23  O   UNL     1     -11.784  -5.730  -2.115  0.00  0.00    -0.126 OA
ENDBRANCH  17  21
BRANCH  20  24
ATOM     24  O   UNL     1     -12.086  -0.607   1.534  0.00  0.00    -0.506 OA
ATOM     25  H   UNL     1     -12.258   0.210   1.045  0.00  0.00    +0.292 HD
ENDBRANCH  20  24
ENDBRANCH  12  15
BRANCH   1  27
ATOM     26  N   UNL     1      -1.996  -0.158   0.473  0.00  0.00    -0.298 N 
ATOM     27  C   UNL     1      -2.836  -0.903   1.218  0.00  0.00    +0.247 C 
ATOM     28  O   UNL     1      -2.412  -1.528   2.171  0.00  0.00    -0.270 OA
BRANCH  26  30
ATOM     29  C   UNL     1      -0.257   0.967   1.773  0.00  0.00    +0.024 C 
ATOM     30  C   UNL     1      -0.562  -0.149   0.773  0.00  0.00    +0.104 C 
ENDBRANCH  26  30
BRANCH  26  31
ATOM     31  C   UNL     1      -2.518   0.645  -0.636  0.00  0.00    +0.104 C 
ATOM     32  C   UNL     1      -2.266  -0.086  -1.957  0.00  0.00    +0.024 C 
ENDBRANCH  26  31
ENDBRANCH   1  27
TORSDOF 6
