REMARK  Name = ZINC38891099
REMARK  14 active torsions:
REMARK  status: ('A' for Active; 'I' for Inactive)
REMARK    1  A    between atoms: C_1  and  C_2
REMARK    2  A    between atoms: C_2  and  O_3
REMARK    3  A    between atoms: O_3  and  C_4
REMARK    4  A    between atoms: C_7  and  C_13
REMARK    5  A    between atoms: C_9  and  O_10
REMARK    6  A    between atoms: O_10  and  C_11
REMARK    7  A    between atoms: C_11  and  C_12
REMARK    8  A    between atoms: C_13  and  C_15
REMARK    9  A    between atoms: C_13  and  N_16
REMARK   10  A    between atoms: C_17  and  C_19
REMARK   11  A    between atoms: N_24  and  C_26
REMARK   12  A    between atoms: C_26  and  C_27
REMARK   13  A    between atoms: C_29  and  C_32
REMARK   14  A    between atoms: C_35  and  C_38
REMARK                            x       y       z     vdW  Elec       q    Type
REMARK                         _______ _______ _______ _____ _____    ______ ____
ROOT
ATOM      1  C   UNL     1      -0.230  -8.518  -2.392  0.00  0.00    +0.058 C 
ATOM      2  C   UNL     1       1.084  -8.728  -1.634  0.00  0.00    +0.009 C 
ATOM      3  C   UNL     1       2.087  -9.429  -2.555  0.00  0.00    -0.018 C 
ATOM      4  C   UNL     1       1.485 -10.747  -3.046  0.00  0.00    -0.078 C 
ATOM      5  N   UNL     1       0.246 -10.477  -3.785  0.00  0.00    +0.386 N 
ATOM      6  C   UNL     1      -0.747  -9.870  -2.891  0.00  0.00    -0.065 C 
ATOM      7  H   UNL     1       0.441  -9.845  -4.548  0.00  0.00    -0.081 HD
ENDROOT
BRANCH   1   9
ATOM      8  N   UNL     1      -1.006  -6.699  -0.906  0.00  0.00    -0.309 N 
ATOM      9  C   UNL     1      -1.249  -7.899  -1.471  0.00  0.00    +0.215 C 
ATOM     10  O   UNL     1      -2.288  -8.479  -1.237  0.00  0.00    -0.276 OA
ATOM     11  H   UNL     1      -0.175  -6.235  -1.093  0.00  0.00    +0.149 HD
BRANCH   8  12
ATOM     12  C   UNL     1      -1.996  -6.097  -0.011  0.00  0.00    +0.100 C 
ATOM     13  C   UNL     1      -1.800  -6.639   1.406  0.00  0.00    +0.033 C 
BRANCH  12  17
ATOM     14  C   UNL     1      -1.498  -1.849   0.006  0.00  0.00    +0.162 A 
ATOM     15  C   UNL     1      -0.389  -2.680  -0.003  0.00  0.00    +0.050 A 
ATOM     16  C   UNL     1      -0.553  -4.052  -0.008  0.00  0.00    +0.009 A 
ATOM     17  C   UNL     1      -1.823  -4.600  -0.005  0.00  0.00    -0.024 A 
ATOM     18  C   UNL     1      -2.934  -3.777   0.004  0.00  0.00    +0.055 A 
ATOM     19  C   UNL     1      -2.776  -2.400   0.016  0.00  0.00    +0.162 A 
BRANCH  14  20
ATOM     20  O   UNL     1      -1.339  -0.499   0.012  0.00  0.00    -0.489 OA
BRANCH  20  22
ATOM     21  C   UNL     1      -0.019   1.526   0.010  0.00  0.00    +0.048 C 
ATOM     22  C   UNL     1       0.002  -0.004   0.002  0.00  0.00    +0.226 C 
ENDBRANCH  20  22
ENDBRANCH  14  20
BRANCH  19  23
ATOM     23  O   UNL     1      -3.868  -1.589   0.030  0.00  0.00    -0.489 OA
BRANCH  23  24
ATOM     24  C   UNL     1      -5.148  -2.225   0.039  0.00  0.00    +0.226 C 
ATOM     25  C   UNL     1      -6.246  -1.159   0.055  0.00  0.00    +0.048 C 
ENDBRANCH  23  24
ENDBRANCH  19  23
ENDBRANCH  12  17
ENDBRANCH   8  12
ENDBRANCH   1   9
BRANCH   5  26
ATOM     26  C   UNL     1      -0.287 -11.737  -4.322  0.00  0.00    +0.022 C 
BRANCH  26  27
ATOM     27  C   UNL     1       0.672 -12.294  -5.341  0.00  0.00    +0.211 A 
ATOM     28  N   UNL     1       1.653 -13.116  -5.094  0.00  0.00    -0.193 NA
ATOM     29  C   UNL     1       2.306 -13.409  -6.233  0.00  0.00    +0.202 A 
ATOM     30  N   UNL     1       1.734 -12.766  -7.221  0.00  0.00    -0.056 NA
ATOM     31  O   UNL     1       0.657 -12.034  -6.655  0.00  0.00    -0.340 OA
BRANCH  29  32
ATOM     32  C   UNL     1       3.479 -14.311  -6.351  0.00  0.00    +0.022 A 
ATOM     33  C   UNL     1       3.992 -14.942  -5.220  0.00  0.00    +0.012 A 
ATOM     34  C   UNL     1       5.083 -15.779  -5.335  0.00  0.00    +0.004 A 
ATOM     35  C   UNL     1       5.667 -15.992  -6.570  0.00  0.00    -0.050 A 
ATOM     36  C   UNL     1       5.162 -15.367  -7.697  0.00  0.00    +0.004 A 
ATOM     37  C   UNL     1       4.068 -14.533  -7.594  0.00  0.00    +0.012 A 
ATOM     38  C   UNL     1       6.859 -16.906  -6.689  0.00  0.00    +0.044 C 
ENDBRANCH  29  32
ENDBRANCH  26  27
ENDBRANCH   5  26
TORSDOF 10
