REMARK  Name = ZINC14457447
REMARK  10 active torsions:
REMARK  status: ('A' for Active; 'I' for Inactive)
REMARK    1  A    between atoms: C_1  and  C_2
REMARK    2  A    between atoms: C_2  and  C_3
REMARK    3  A    between atoms: C_3  and  C_5
REMARK    4  A    between atoms: C_3  and  N_6
REMARK    5  A    between atoms: N_6  and  S_7
REMARK    6  A    between atoms: S_7  and  C_10
REMARK    7  A    between atoms: C_23  and  C_26
REMARK    8  A    between atoms: C_29  and  O_33
REMARK    9  A    between atoms: C_30  and  O_32
REMARK   10  A    between atoms: O_33  and  C_34
REMARK                            x       y       z     vdW  Elec       q    Type
REMARK                         _______ _______ _______ _____ _____    ______ ____
ROOT
ATOM      1  C   UNL     1      -1.077   2.441  -3.086  0.00  0.00    +0.106 A 
ATOM      2  C   UNL     1      -2.442   2.442  -2.868  0.00  0.00    +0.030 A 
ATOM      3  C   UNL     1      -2.939   1.976  -1.696  0.00  0.00    +0.025 A 
ATOM      4  C   UNL     1      -2.092   1.566  -0.674  0.00  0.00    +0.031 A 
ATOM      5  C   UNL     1      -0.717   1.586  -0.879  0.00  0.00    -0.018 A 
ATOM      6  C   UNL     1      -0.218   2.012  -2.091  0.00  0.00    +0.034 A 
ATOM      7  C   UNL     1       0.156   1.101   0.213  0.00  0.00    +0.049 C 
ATOM      8  C   UNL     1       1.560   1.562   0.361  0.00  0.00    -0.023 C 
ATOM      9  C   UNL     1       1.867   1.576   1.653  0.00  0.00    -0.030 C 
ATOM     10  C   UNL     1       0.655   1.148   2.483  0.00  0.00    +0.033 C 
ATOM     11  C   UNL     1      -0.506   1.532   1.556  0.00  0.00    +0.029 C 
ATOM     12  C   UNL     1      -1.777   0.708   1.662  0.00  0.00    +0.105 C 
ATOM     13  N   UNL     1      -2.640   1.162   0.549  0.00  0.00    -0.336 N 
ATOM     14  H   UNL     1      -3.602   1.180   0.669  0.00  0.00    +0.147 HD
ENDROOT
BRANCH  12  15
ATOM     15  C   UNL     1      -1.462  -0.758   1.512  0.00  0.00    -0.023 A 
ATOM     16  C   UNL     1      -1.137  -1.511   2.625  0.00  0.00    +0.009 A 
ATOM     17  C   UNL     1      -0.848  -2.856   2.493  0.00  0.00    +0.050 A 
ATOM     18  C   UNL     1      -0.883  -3.453   1.243  0.00  0.00    +0.161 A 
ATOM     19  C   UNL     1      -1.210  -2.695   0.123  0.00  0.00    +0.159 A 
ATOM     20  C   UNL     1      -1.504  -1.348   0.263  0.00  0.00    +0.054 A 
BRANCH  19  21
ATOM     21  O   UNL     1      -1.246  -3.276  -1.106  0.00  0.00    -0.503 OA
ATOM     22  H   UNL     1      -2.110  -3.639  -1.345  0.00  0.00    +0.292 HD
ENDBRANCH  19  21
BRANCH  18  23
ATOM     23  O   UNL     1      -0.600  -4.776   1.111  0.00  0.00    -0.491 OA
ATOM     24  C   UNL     1      -0.274  -5.492   2.304  0.00  0.00    +0.277 C 
ENDBRANCH  18  23
ENDBRANCH  12  15
BRANCH   1  25
ATOM     25  S   UNL     1      -0.431   2.985  -4.633  0.00  0.00    +0.059 S 
ATOM     26  O   UNL     1      -1.407   3.848  -5.199  0.00  0.00    -0.153 OA
ATOM     27  O   UNL     1       0.906   3.401  -4.391  0.00  0.00    -0.153 OA
BRANCH  25  28
ATOM     28  N   UNL     1      -0.342   1.658  -5.620  0.00  0.00    -0.187 NA
ATOM     29  H   UNL     1       0.521   1.335  -5.923  0.00  0.00    +0.148 HD
BRANCH  28  30
ATOM     30  C   UNL     1      -1.568   0.972  -6.036  0.00  0.00    +0.073 C 
ATOM     31  C   UNL     1      -2.012   1.504  -7.401  0.00  0.00    +0.025 C 
BRANCH  30  33
ATOM     32  C   UNL     1      -0.979  -1.086  -4.748  0.00  0.00    +0.005 C 
ATOM     33  C   UNL     1      -1.302  -0.531  -6.137  0.00  0.00    +0.017 C 
ENDBRANCH  30  33
ENDBRANCH  28  30
ENDBRANCH  25  28
ENDBRANCH   1  25
TORSDOF 7
