REMARK  Name = ZINC64640316
REMARK  10 active torsions:
REMARK  status: ('A' for Active; 'I' for Inactive)
REMARK    1  A    between atoms: C_1  and  C_2
REMARK    2  A    between atoms: C_2  and  O_3
REMARK    3  A    between atoms: O_3  and  C_4
REMARK    4  A    between atoms: C_7  and  C_10
REMARK    5  A    between atoms: C_10  and  N_11
REMARK    6  A    between atoms: C_17  and  C_19
REMARK    7  A    between atoms: C_19  and  C_20
REMARK    8  A    between atoms: N_22  and  C_23
REMARK    9  A    between atoms: C_23  and  C_24
REMARK   10  A    between atoms: C_24  and  C_25
REMARK                            x       y       z     vdW  Elec       q    Type
REMARK                         _______ _______ _______ _____ _____    ______ ____
ROOT
ATOM      1  N   UNL     1      -0.240  -6.541  -2.594  0.00  0.00    +0.391 N 
ATOM      2  C   UNL     1      -0.275  -5.906  -3.921  0.00  0.00    -0.058 C 
ATOM      3  C   UNL     1      -1.516  -6.395  -4.669  0.00  0.00    +0.085 C 
ATOM      4  N   UNL     1      -1.575  -7.854  -4.635  0.00  0.00    -0.318 N 
ATOM      5  C   UNL     1      -0.872  -8.584  -3.761  0.00  0.00    +0.200 C 
ATOM      6  O   UNL     1      -0.993  -9.790  -3.780  0.00  0.00    -0.278 OA
ATOM      7  C   UNL     1       0.062  -7.968  -2.758  0.00  0.00    +0.028 C 
ATOM      8  H   UNL     1      -2.148  -8.313  -5.269  0.00  0.00    +0.149 HD
ATOM      9  H   UNL     1      -1.137  -6.435  -2.144  0.00  0.00    -0.080 HD
ENDROOT
BRANCH   1  10
ATOM     10  C   UNL     1       0.800  -5.909  -1.773  0.00  0.00    -0.042 C 
BRANCH  10  14
ATOM     11  C   UNL     1      -0.299  -1.862  -0.948  0.00  0.00    +0.121 A 
ATOM     12  C   UNL     1      -0.689  -2.877  -0.087  0.00  0.00    +0.046 A 
ATOM     13  C   UNL     1      -0.332  -4.185  -0.356  0.00  0.00    +0.005 A 
ATOM     14  C   UNL     1       0.413  -4.482  -1.482  0.00  0.00    -0.064 A 
ATOM     15  C   UNL     1       0.802  -3.471  -2.342  0.00  0.00    +0.005 A 
ATOM     16  C   UNL     1       0.444  -2.163  -2.081  0.00  0.00    +0.046 A 
BRANCH  11  17
ATOM     17  O   UNL     1      -0.649  -0.575  -0.686  0.00  0.00    -0.492 OA
BRANCH  17  19
ATOM     18  C   UNL     1      -1.709   1.157   0.624  0.00  0.00    +0.048 C 
ATOM     19  C   UNL     1      -1.413  -0.339   0.498  0.00  0.00    +0.225 C 
ENDBRANCH  17  19
ENDBRANCH  11  17
ENDBRANCH  10  14
ENDBRANCH   1  10
BRANCH   7  20
ATOM     20  C   UNL     1      -0.099  -8.679  -1.412  0.00  0.00    +0.089 C 
BRANCH  20  21
ATOM     21  C   UNL     1      -1.526  -8.551  -0.945  0.00  0.00    +0.212 C 
ATOM     22  O   UNL     1      -2.358  -8.046  -1.669  0.00  0.00    -0.276 OA
ATOM     23  N   UNL     1      -1.877  -8.997   0.277  0.00  0.00    -0.315 N 
ATOM     24  H   UNL     1      -1.212  -9.400   0.856  0.00  0.00    +0.149 HD
BRANCH  23  25
ATOM     25  C   UNL     1      -3.265  -8.873   0.732  0.00  0.00    +0.108 C 
BRANCH  25  26
ATOM     26  C   UNL     1      -3.393  -9.451   2.142  0.00  0.00    +0.052 C 
BRANCH  26  27
ATOM     27  C   UNL     1      -4.820  -9.323   2.610  0.00  0.00    -0.040 C 
ATOM     28  C   UNL     1      -5.789 -10.264   2.531  0.00  0.00    -0.001 A 
ATOM     29  C   UNL     1      -5.804 -11.635   2.007  0.00  0.00    +0.010 A 
ATOM     30  C   UNL     1      -6.951 -12.348   2.068  0.00  0.00    +0.001 A 
ATOM     31  C   UNL     1      -8.124 -11.812   2.618  0.00  0.00    +0.002 A 
ATOM     32  C   UNL     1      -8.188 -10.561   3.120  0.00  0.00    +0.026 A 
ATOM     33  C   UNL     1      -7.040  -9.722   3.108  0.00  0.00    +0.043 A 
ATOM     34  N   UNL     1      -6.852  -8.493   3.526  0.00  0.00    -0.380 N 
ATOM     35  C   UNL     1      -5.457  -8.120   3.268  0.00  0.00    +0.144 C 
ATOM     36  H   UNL     1      -7.522  -7.928   3.941  0.00  0.00    +0.160 HD
ENDBRANCH  26  27
ENDBRANCH  25  26
ENDBRANCH  23  25
ENDBRANCH  20  21
ENDBRANCH   7  20
TORSDOF 9
