REMARK  Name = ZINC03105456
REMARK  9 active torsions:
REMARK  status: ('A' for Active; 'I' for Inactive)
REMARK    1  A    between atoms: C_1  and  C_2
REMARK    2  A    between atoms: C_5  and  N_8
REMARK    3  A    between atoms: C_11  and  C_18
REMARK    4  A    between atoms: C_13  and  C_16
REMARK    5  A    between atoms: C_14  and  N_15
REMARK    6  A    between atoms: C_23  and  O_24
REMARK    7  A    between atoms: O_24  and  C_25
REMARK    8  A    between atoms: C_29  and  C_31
REMARK    9  A    between atoms: C_29  and  C_32
REMARK                            x       y       z     vdW  Elec       q    Type
REMARK                         _______ _______ _______ _____ _____    ______ ____
ROOT
ATOM      1  N   UNL     1      -0.019   1.812  -2.345  0.00  0.00    -0.260 N 
ATOM      2  C   UNL     1      -0.818   2.094  -1.268  0.00  0.00    +0.025 C 
ATOM      3  C   UNL     1      -2.139   2.315  -1.432  0.00  0.00    +0.025 C 
ATOM      4  C   UNL     1      -2.771   2.264  -2.800  0.00  0.00    +0.101 C 
ATOM      5  C   UNL     1      -1.887   1.548  -3.778  0.00  0.00    +0.077 C 
ATOM      6  C   UNL     1      -0.567   1.355  -3.522  0.00  0.00    +0.107 C 
ATOM      7  C   UNL     1      -2.967   2.605  -0.332  0.00  0.00    +0.162 C 
ATOM      8  O   UNL     1      -4.156   2.780  -0.511  0.00  0.00    -0.292 OA
ATOM      9  C   UNL     1      -2.408   2.701   1.061  0.00  0.00    +0.086 C 
ATOM     10  C   UNL     1      -0.943   3.141   0.980  0.00  0.00    -0.023 C 
ATOM     11  C   UNL     1      -0.185   2.145   0.100  0.00  0.00    +0.058 C 
ATOM     12  C   UNL     1      -0.333   3.157   2.383  0.00  0.00    +0.011 C 
ATOM     13  C   UNL     1      -0.859   4.539   0.363  0.00  0.00    +0.011 C 
ENDROOT
BRANCH   1  18
ATOM     14  C   UNL     1       5.595   2.539  -1.952  0.00  0.00    +0.044 C 
ATOM     15  C   UNL     1       4.104   2.346  -2.056  0.00  0.00    -0.050 A 
ATOM     16  C   UNL     1       3.542   1.124  -1.735  0.00  0.00    +0.005 A 
ATOM     17  C   UNL     1       2.176   0.944  -1.830  0.00  0.00    +0.024 A 
ATOM     18  C   UNL     1       1.366   1.992  -2.248  0.00  0.00    +0.040 A 
ATOM     19  C   UNL     1       1.934   3.217  -2.575  0.00  0.00    +0.024 A 
ATOM     20  C   UNL     1       3.300   3.392  -2.473  0.00  0.00    +0.005 A 
ENDBRANCH   1  18
BRANCH   4  21
ATOM     21  C   UNL     1      -3.009   3.670  -3.287  0.00  0.00    +0.007 A 
ATOM     22  C   UNL     1      -1.945   4.539  -3.437  0.00  0.00    +0.008 A 
ATOM     23  C   UNL     1      -2.163   5.829  -3.884  0.00  0.00    +0.001 A 
ATOM     24  C   UNL     1      -3.445   6.253  -4.182  0.00  0.00    +0.004 A 
ATOM     25  C   UNL     1      -4.512   5.387  -4.035  0.00  0.00    +0.046 A 
ATOM     26  C   UNL     1      -4.295   4.091  -3.591  0.00  0.00    +0.124 A 
BRANCH  26  27
ATOM     27  O   UNL     1      -5.342   3.236  -3.450  0.00  0.00    -0.495 OA
ATOM     28  C   UNL     1      -6.638   3.738  -3.781  0.00  0.00    +0.277 C 
ENDBRANCH  26  27
ENDBRANCH   4  21
BRANCH   6  29
ATOM     29  N   UNL     1       0.222   0.704  -4.439  0.00  0.00    -0.345 N 
ATOM     30  H   UNL     1      -0.178   0.309  -5.230  0.00  0.00    +0.144 HD
ATOM     31  H   UNL     1       1.179   0.639  -4.296  0.00  0.00    +0.144 HD
ENDBRANCH   6  29
BRANCH   5  32
ATOM     32  C   UNL     1      -2.445   1.058  -5.003  0.00  0.00    +0.099 C 
ATOM     33  N   UNL     1      -2.887   0.669  -5.974  0.00  0.00    -0.191 NA
ENDBRANCH   5  32
TORSDOF 5
