REMARK  Name = ZINC29592935
REMARK  8 active torsions:
REMARK  status: ('A' for Active; 'I' for Inactive)
REMARK    1  A    between atoms: C_4  and  C_7
REMARK    2  A    between atoms: C_8  and  C_17
REMARK    3  A    between atoms: C_17  and  C_19
REMARK    4  A    between atoms: C_19  and  O_20
REMARK    5  A    between atoms: O_20  and  C_21
REMARK    6  A    between atoms: C_21  and  C_23
REMARK    7  A    between atoms: C_25  and  S_28
REMARK    8  A    between atoms: S_28  and  N_31
REMARK                            x       y       z     vdW  Elec       q    Type
REMARK                         _______ _______ _______ _____ _____    ______ ____
ROOT
ATOM      1  C   UNL     1       3.100   3.860   1.739  0.00  0.00    +0.203 C 
ATOM      2  O   UNL     1       1.986   3.414   1.929  0.00  0.00    -0.288 OA
ENDROOT
BRANCH   1   4
ATOM      3  C   UNL     1       3.655   2.158  -0.021  0.00  0.00    +0.058 A 
ATOM      4  C   UNL     1       3.947   3.260   0.781  0.00  0.00    +0.054 A 
ATOM      5  C   UNL     1       5.319   3.671   0.430  0.00  0.00    +0.011 A 
ATOM      6  C   UNL     1       6.163   4.686   0.875  0.00  0.00    +0.011 A 
ATOM      7  C   UNL     1       7.421   4.817   0.328  0.00  0.00    +0.001 A 
ATOM      8  C   UNL     1       7.848   3.942  -0.660  0.00  0.00    +0.002 A 
ATOM      9  C   UNL     1       7.024   2.933  -1.109  0.00  0.00    +0.026 A 
ATOM     10  C   UNL     1       5.750   2.784  -0.570  0.00  0.00    +0.048 A 
ATOM     11  N   UNL     1       4.727   1.889  -0.817  0.00  0.00    -0.354 N 
ATOM     12  H   UNL     1       4.688   1.052  -1.528  0.00  0.00    +0.166 HD
BRANCH   3  16
ATOM     13  C   UNL     1       0.002  -0.004   0.002  0.00  0.00    +0.000 A 
ATOM     14  C   UNL     1      -0.017   1.380   0.010  0.00  0.00    +0.001 A 
ATOM     15  C   UNL     1       1.166   2.089   0.002  0.00  0.00    +0.010 A 
ATOM     16  C   UNL     1       2.385   1.407  -0.013  0.00  0.00    -0.001 A 
ATOM     17  C   UNL     1       2.397   0.009  -0.020  0.00  0.00    +0.010 A 
ATOM     18  C   UNL     1       1.206  -0.686  -0.013  0.00  0.00    +0.001 A 
ENDBRANCH   3  16
ENDBRANCH   1   4
BRANCH   1  19
ATOM     19  C   UNL     1       3.578   5.054   2.524  0.00  0.00    +0.312 C 
BRANCH  19  20
ATOM     20  O   UNL     1       2.533   5.484   3.436  0.00  0.00    -0.453 OA
BRANCH  20  21
ATOM     21  C   UNL     1       2.802   6.549   4.218  0.00  0.00    +0.340 C 
ATOM     22  O   UNL     1       3.881   7.103   4.139  0.00  0.00    -0.245 OA
BRANCH  21  23
ATOM     23  C   UNL     1       1.791   7.040   5.165  0.00  0.00    +0.068 A 
ATOM     24  C   UNL     1       2.046   8.172   6.020  0.00  0.00    +0.051 A 
ATOM     25  C   UNL     1       1.056   8.549   6.851  0.00  0.00    +0.143 A 
ATOM     26  S   UNL     1      -0.235   7.372   6.502  0.00  0.00    -0.076 S 
ATOM     27  C   UNL     1       0.556   6.433   5.281  0.00  0.00    +0.062 A 
BRANCH  25  28
ATOM     28  S   UNL     1       1.042   9.878   8.008  0.00  0.00    +0.062 S 
ATOM     29  O   UNL     1       0.080   9.544   8.999  0.00  0.00    -0.153 OA
ATOM     30  O   UNL     1       2.400  10.154   8.326  0.00  0.00    -0.153 OA
BRANCH  28  31
ATOM     31  N   UNL     1       0.462  11.211   7.215  0.00  0.00    -0.203 NA
ATOM     32  H   UNL     1       0.438  12.067   7.906  0.00  0.00    +0.144 HD
ATOM     33  H   UNL     1      -0.555  11.006   6.849  0.00  0.00    +0.144 HD
ENDBRANCH  28  31
ENDBRANCH  25  28
ENDBRANCH  21  23
ENDBRANCH  20  21
ENDBRANCH  19  20
ENDBRANCH   1  19
TORSDOF 8
