REMARK  Name = ZINC07360392
REMARK  5 active torsions:
REMARK  status: ('A' for Active; 'I' for Inactive)
REMARK    1  A    between atoms: C_1  and  C_2
REMARK    2  A    between atoms: C_8  and  N_10
REMARK    3  A    between atoms: C_11  and  C_13
REMARK    4  A    between atoms: C_13  and  N_14
REMARK    5  A    between atoms: C_23  and  C_25
REMARK                            x       y       z     vdW  Elec       q    Type
REMARK                         _______ _______ _______ _____ _____    ______ ____
ROOT
ATOM      1  C   UNL     1       2.462   0.920  -0.017  0.00  0.00    +0.201 C 
ENDROOT
BRANCH   1   2
ATOM      2  N   UNL     1       3.562   1.886  -0.142  0.00  0.00    -0.318 N 
ATOM      3  C   UNL     1       3.350   2.746  -1.219  0.00  0.00    +0.034 A 
ATOM      4  C   UNL     1       2.717   2.226  -2.349  0.00  0.00    +0.023 A 
ATOM      5  C   UNL     1       2.485   3.025  -3.448  0.00  0.00    +0.002 A 
ATOM      6  C   UNL     1       2.880   4.350  -3.434  0.00  0.00    +0.000 A 
ATOM      7  C   UNL     1       3.504   4.871  -2.318  0.00  0.00    +0.005 A 
ATOM      8  C   UNL     1       3.738   4.074  -1.208  0.00  0.00    -0.026 A 
ATOM      9  C   UNL     1       4.418   4.699  -0.016  0.00  0.00    +0.039 C 
ATOM     10  C   UNL     1       4.925   3.601   0.922  0.00  0.00    +0.027 C 
ATOM     11  C   UNL     1       3.789   2.589   1.121  0.00  0.00    +0.071 C 
ATOM     12  C   UNL     1       4.182   1.584   2.205  0.00  0.00    +0.028 C 
ENDBRANCH   1   2
BRANCH   1  14
ATOM     13  N   UNL     1      -0.004   0.978   0.172  0.00  0.00    -0.311 N 
ATOM     14  C   UNL     1       1.158   1.660   0.136  0.00  0.00    +0.231 C 
ATOM     15  O   UNL     1       1.155   2.870   0.227  0.00  0.00    -0.274 OA
ATOM     16  H   UNL     1      -0.001   0.011   0.099  0.00  0.00    +0.149 HD
BRANCH  13  23
ATOM     17  C   UNL     1      -1.841   0.302   2.306  0.00  0.00    +0.009 C 
ATOM     18  C   UNL     1      -2.320   0.769   0.930  0.00  0.00    +0.006 C 
ATOM     19  C   UNL     1      -2.522  -0.445   0.021  0.00  0.00    +0.005 C 
ATOM     20  C   UNL     1      -3.001   0.023  -1.355  0.00  0.00    +0.000 C 
ATOM     21  C   UNL     1      -1.952   0.952  -1.971  0.00  0.00    +0.002 C 
ATOM     22  C   UNL     1      -1.750   2.166  -1.062  0.00  0.00    +0.022 C 
ATOM     23  C   UNL     1      -1.272   1.699   0.314  0.00  0.00    +0.076 C 
ENDBRANCH  13  23
ENDBRANCH   1  14
TORSDOF 3
