REMARK  Name = ZINC23608324
REMARK  7 active torsions:
REMARK  status: ('A' for Active; 'I' for Inactive)
REMARK    1  A    between atoms: C_1  and  C_2
REMARK    2  A    between atoms: C_2  and  C_4
REMARK    3  A    between atoms: C_2  and  S_17
REMARK    4  A    between atoms: C_4  and  N_6
REMARK    5  A    between atoms: N_13  and  C_16
REMARK    6  A    between atoms: S_17  and  C_18
REMARK    7  A    between atoms: C_21  and  N_24
REMARK                            x       y       z     vdW  Elec       q    Type
REMARK                         _______ _______ _______ _____ _____    ______ ____
ROOT
ATOM      1  C   UNL     1       1.430   1.617  -0.040  0.00  0.00    +0.251 C 
ATOM      2  O   UNL     1       1.687   2.629  -0.656  0.00  0.00    -0.272 OA
ENDROOT
BRANCH   1   3
ATOM      3  N   UNL     1       2.412   0.951   0.601  0.00  0.00    -0.156 NA
ATOM      4  C   UNL     1       3.717   1.425   0.555  0.00  0.00    +0.163 A 
ATOM      5  N   UNL     1       4.801   0.923   1.114  0.00  0.00    -0.339 N 
ATOM      6  C   UNL     1       5.994   1.490   0.975  0.00  0.00    +0.030 A 
ATOM      7  C   UNL     1       6.032   2.629   0.232  0.00  0.00    +0.026 A 
ATOM      8  S   UNL     1       4.341   2.835  -0.250  0.00  0.00    -0.056 S 
ATOM      9  C   UNL     1       7.227   3.465  -0.074  0.00  0.00    +0.128 C 
ATOM     10  N   UNL     1       8.314   3.064   0.842  0.00  0.00    -0.300 NA
ATOM     11  C   UNL     1       8.463   1.602   0.860  0.00  0.00    +0.090 C 
ATOM     12  C   UNL     1       7.283   0.955   1.589  0.00  0.00    +0.069 C 
ATOM     13  C   UNL     1       9.578   3.717   0.477  0.00  0.00    +0.105 C 
ATOM     14  H   UNL     1       4.734   0.007   1.718  0.00  0.00    +0.167 HD
ENDBRANCH   1   3
BRANCH   1  16
ATOM     15  C   UNL     1      -0.669   1.614   1.281  0.00  0.00    +0.029 C 
ATOM     16  C   UNL     1       0.014   1.103   0.011  0.00  0.00    +0.136 C 
BRANCH  16  17
ATOM     17  S   UNL     1      -0.895   1.693  -1.444  0.00  0.00    -0.113 S 
BRANCH  17  18
ATOM     18  C   UNL     1      -0.156   0.826  -2.789  0.00  0.00    +0.009 A 
ATOM     19  C   UNL     1       0.799  -0.153  -2.545  0.00  0.00    +0.017 A 
ATOM     20  C   UNL     1       1.372  -0.834  -3.601  0.00  0.00    +0.034 A 
ATOM     21  C   UNL     1       1.003  -0.535  -4.900  0.00  0.00    +0.126 A 
ATOM     22  C   UNL     1       0.057   0.443  -5.147  0.00  0.00    +0.034 A 
ATOM     23  C   UNL     1      -0.524   1.125  -4.095  0.00  0.00    +0.017 A 
BRANCH  21  24
ATOM     24  N   UNL     1       1.623  -1.263  -6.030  0.00  0.00    +0.056 N 
ATOM     25  O   UNL     1       1.300  -1.001  -7.174  0.00  0.00    -0.126 OA
ATOM     26  O   UNL     1       2.457  -2.125  -5.815  0.00  0.00    -0.126 OA
ENDBRANCH  21  24
ENDBRANCH  17  18
ENDBRANCH  16  17
ENDBRANCH   1  16
TORSDOF 5
