REMARK  Name = ZINC64078593
REMARK  7 active torsions:
REMARK  status: ('A' for Active; 'I' for Inactive)
REMARK    1  A    between atoms: C_1  and  C_2
REMARK    2  A    between atoms: C_2  and  C_3
REMARK    3  A    between atoms: C_3  and  C_4
REMARK    4  A    between atoms: C_4  and  C_5
REMARK    5  A    between atoms: C_7  and  N_11
REMARK    6  A    between atoms: C_12  and  C_14
REMARK    7  A    between atoms: C_15  and  C_25
REMARK                            x       y       z     vdW  Elec       q    Type
REMARK                         _______ _______ _______ _____ _____    ______ ____
ROOT
ATOM      1  N   UNL     1       3.917  -4.384  -4.306  0.00  0.00    -0.266 N 
ATOM      2  C   UNL     1       4.689  -5.062  -3.435  0.00  0.00    +0.266 C 
ATOM      3  O   UNL     1       4.480  -4.973  -2.240  0.00  0.00    -0.268 OA
ATOM      4  H   UNL     1       4.083  -4.455  -5.260  0.00  0.00    +0.157 HD
ENDROOT
BRANCH   2   5
ATOM      5  C   UNL     1       5.782  -5.909  -3.928  0.00  0.00    +0.106 A 
ATOM      6  C   UNL     1       6.631  -6.649  -3.153  0.00  0.00    -0.010 A 
ATOM      7  C   UNL     1       7.511  -7.298  -4.029  0.00  0.00    +0.042 A 
ATOM      8  C   UNL     1       7.166  -6.924  -5.328  0.00  0.00    +0.027 A 
ATOM      9  N   UNL     1       6.123  -6.096  -5.254  0.00  0.00    -0.354 N 
ATOM     10  H   UNL     1       5.676  -5.689  -6.012  0.00  0.00    +0.166 HD
ATOM     11  C   UNL     1       7.902  -7.424  -6.545  0.00  0.00    +0.054 C 
ATOM     12  C   UNL     1       9.289  -7.921  -6.128  0.00  0.00    +0.014 C 
ATOM     13  C   UNL     1       9.179  -8.935  -4.985  0.00  0.00    +0.080 C 
ATOM     14  C   UNL     1       8.623  -8.221  -3.761  0.00  0.00    +0.165 C 
ATOM     15  O   UNL     1       9.067  -8.401  -2.646  0.00  0.00    -0.292 OA
ATOM     16  C   UNL     1       6.623  -6.748  -1.649  0.00  0.00    +0.047 C 
ENDBRANCH   2   5
BRANCH   1  19
ATOM     17  C   UNL     1       1.444  -2.513  -2.505  0.00  0.00    +0.065 A 
ATOM     18  C   UNL     1       2.534  -3.388  -2.535  0.00  0.00    +0.068 A 
ATOM     19  C   UNL     1       2.879  -3.580  -3.838  0.00  0.00    +0.121 A 
ATOM     20  N   UNL     1       2.027  -2.844  -4.598  0.00  0.00    -0.264 N 
ATOM     21  H   UNL     1       2.032  -2.784  -5.567  0.00  0.00    +0.190 HD
ATOM     22  N   UNL     1       1.137  -2.192  -3.736  0.00  0.00    -0.177 NA
BRANCH  17  23
ATOM     23  C   UNL     1       0.739  -2.027  -1.265  0.00  0.00    +0.057 C 
BRANCH  23  24
ATOM     24  C   UNL     1       0.718  -0.497  -1.257  0.00  0.00    +0.006 C 
BRANCH  24  26
ATOM     25  C   UNL     1      -0.019   1.526   0.010  0.00  0.00    +0.004 C 
ATOM     26  C   UNL     1       0.002  -0.004   0.002  0.00  0.00    -0.003 C 
ENDBRANCH  24  26
ENDBRANCH  23  24
ENDBRANCH  17  23
ENDBRANCH   1  19
TORSDOF 5
