REMARK  Name = ZINC18200875
REMARK  2 active torsions:
REMARK  status: ('A' for Active; 'I' for Inactive)
REMARK    1  A    between atoms: C_5  and  C_7
REMARK    2  A    between atoms: C_12  and  C_17
REMARK                            x       y       z     vdW  Elec       q    Type
REMARK                         _______ _______ _______ _____ _____    ______ ____
ROOT
ATOM      1  C   UNL     1       1.152   3.593   0.010  0.00  0.00    +0.177 C 
ATOM      2  C   UNL     1       1.866   4.098   1.245  0.00  0.00    +0.041 C 
ATOM      3  C   UNL     1       3.090   4.659   1.189  0.00  0.00    +0.020 C 
ATOM      4  C   UNL     1       3.774   5.159   2.440  0.00  0.00    +0.063 C 
ATOM      5  C   UNL     1       3.346   4.313   3.634  0.00  0.00    +0.068 C 
ATOM      6  C   UNL     1       1.821   4.405   3.764  0.00  0.00    +0.091 C 
ATOM      7  C   UNL     1       1.194   3.959   2.473  0.00  0.00    +0.164 C 
ATOM      8  O   UNL     1       0.083   3.467   2.491  0.00  0.00    -0.292 OA
ATOM      9  N   UNL     1       3.765   4.805   0.001  0.00  0.00    -0.287 N 
ATOM     10  C   UNL     1       3.051   4.654  -1.176  0.00  0.00    +0.220 A 
ATOM     11  N   UNL     1       1.817   4.092  -1.187  0.00  0.00    -0.219 N 
ATOM     12  N   UNL     1       1.384   4.107  -2.512  0.00  0.00    -0.132 NA
ATOM     13  C   UNL     1       2.348   4.655  -3.220  0.00  0.00    +0.233 A 
ATOM     14  N   UNL     1       3.358   4.984  -2.401  0.00  0.00    -0.180 NA
ATOM     15  N   UNL     1       2.324   4.861  -4.600  0.00  0.00    -0.326 N 
ATOM     16  H   UNL     1       4.714   5.008  -0.013  0.00  0.00    +0.155 HD
ATOM     17  H   UNL     1       1.549   4.591  -5.117  0.00  0.00    +0.145 HD
ATOM     18  H   UNL     1       3.082   5.274  -5.042  0.00  0.00    +0.145 HD
ENDROOT
BRANCH   1  23
ATOM     19  C   UNL     1       2.396   0.029  -0.021  0.00  0.00    +0.000 A 
ATOM     20  C   UNL     1       1.208  -0.678  -0.013  0.00  0.00    +0.001 A 
ATOM     21  C   UNL     1       0.002  -0.004   0.002  0.00  0.00    +0.015 A 
ATOM     22  C   UNL     1      -0.017   1.379   0.010  0.00  0.00    +0.023 A 
ATOM     23  C   UNL     1       1.172   2.087   0.002  0.00  0.00    -0.005 A 
ATOM     24  C   UNL     1       2.378   1.411  -0.013  0.00  0.00    +0.007 A 
ATOM     25 BR   UNL     1      -1.667   2.303   0.022  0.00  0.00    -0.050 Br
ENDBRANCH   1  23
BRANCH   5  26
ATOM     26  C   UNL     1       3.995   4.839   4.888  0.00  0.00    +0.109 A 
ATOM     27  C   UNL     1       4.806   4.143   5.705  0.00  0.00    +0.045 A 
ATOM     28  C   UNL     1       5.184   5.018   6.750  0.00  0.00    +0.041 A 
ATOM     29  C   UNL     1       4.581   6.196   6.508  0.00  0.00    +0.195 A 
ATOM     30  O   UNL     1       3.867   6.084   5.376  0.00  0.00    -0.468 OA
ENDBRANCH   5  26
TORSDOF 2
