REMARK  Name = ZINC08386975
REMARK  10 active torsions:
REMARK  status: ('A' for Active; 'I' for Inactive)
REMARK    1  A    between atoms: C_1  and  C_2
REMARK    2  A    between atoms: C_2  and  C_3
REMARK    3  A    between atoms: C_3  and  C_4
REMARK    4  A    between atoms: C_4  and  C_5
REMARK    5  A    between atoms: C_5  and  N_6
REMARK    6  A    between atoms: C_14  and  N_15
REMARK    7  A    between atoms: C_16  and  C_17
REMARK    8  A    between atoms: C_20  and  N_23
REMARK    9  A    between atoms: C_24  and  C_35
REMARK   10  A    between atoms: C_27  and  C_29
REMARK                            x       y       z     vdW  Elec       q    Type
REMARK                         _______ _______ _______ _____ _____    ______ ____
ROOT
ATOM      1  C   UNL     1       5.634  -4.732   0.038  0.00  0.00    -0.007 A 
ATOM      2  C   UNL     1       5.862  -3.356  -0.093  0.00  0.00    +0.011 A 
ATOM      3  C   UNL     1       6.973  -2.910  -0.750  0.00  0.00    +0.025 A 
ATOM      4  C   UNL     1       7.879  -3.821  -1.289  0.00  0.00    +0.052 A 
ATOM      5  C   UNL     1       7.656  -5.191  -1.161  0.00  0.00    +0.025 A 
ATOM      6  C   UNL     1       6.550  -5.645  -0.501  0.00  0.00    +0.011 A 
ENDROOT
BRANCH   4   7
ATOM      7  N   UNL     1       9.008  -3.363  -1.957  0.00  0.00    -0.216 N 
ATOM      8  C   UNL     1      10.039  -4.211  -2.576  0.00  0.00    +0.134 C 
ATOM      9  C   UNL     1      11.039  -3.195  -3.163  0.00  0.00    +0.087 C 
ATOM     10  C   UNL     1      10.448  -1.851  -2.800  0.00  0.00    +0.069 C 
ATOM     11  N   UNL     1       9.346  -2.026  -2.154  0.00  0.00    -0.183 NA
BRANCH  10  12
ATOM     12  C   UNL     1      11.037  -0.543  -3.140  0.00  0.00    -0.002 A 
ATOM     13  C   UNL     1      12.233  -0.477  -3.858  0.00  0.00    +0.010 A 
ATOM     14  C   UNL     1      12.778   0.750  -4.172  0.00  0.00    +0.001 A 
ATOM     15  C   UNL     1      12.142   1.915  -3.779  0.00  0.00    +0.000 A 
ATOM     16  C   UNL     1      10.957   1.857  -3.067  0.00  0.00    +0.001 A 
ATOM     17  C   UNL     1      10.398   0.637  -2.750  0.00  0.00    +0.010 A 
ENDBRANCH  10  12
BRANCH   8  18
ATOM     18  C   UNL     1       9.441  -5.061  -3.668  0.00  0.00    -0.025 A 
ATOM     19  C   UNL     1       8.473  -4.534  -4.502  0.00  0.00    +0.005 A 
ATOM     20  C   UNL     1       7.925  -5.314  -5.503  0.00  0.00    +0.000 A 
ATOM     21  C   UNL     1       8.344  -6.621  -5.670  0.00  0.00    +0.000 A 
ATOM     22  C   UNL     1       9.312  -7.147  -4.835  0.00  0.00    +0.000 A 
ATOM     23  C   UNL     1       9.864  -6.366  -3.837  0.00  0.00    +0.005 A 
ENDBRANCH   8  18
ENDBRANCH   4   7
BRANCH   1  25
ATOM     24  N   UNL     1       3.587  -4.362   1.246  0.00  0.00    -0.221 NA
ATOM     25  C   UNL     1       4.441  -5.216   0.744  0.00  0.00    +0.122 C 
BRANCH  24  34
ATOM     26  N   UNL     1       1.523  -4.012   2.465  0.00  0.00    -0.310 N 
ATOM     27  C   UNL     1       0.573  -4.849   3.021  0.00  0.00    +0.068 A 
ATOM     28  C   UNL     1      -0.612  -4.636   3.711  0.00  0.00    +0.028 A 
ATOM     29  C   UNL     1      -1.353  -5.714   4.147  0.00  0.00    +0.002 A 
ATOM     30  C   UNL     1      -0.923  -7.010   3.899  0.00  0.00    +0.002 A 
ATOM     31  C   UNL     1       0.240  -7.240   3.221  0.00  0.00    +0.028 A 
ATOM     32  C   UNL     1       1.009  -6.163   2.769  0.00  0.00    +0.066 A 
ATOM     33  N   UNL     1       2.176  -6.075   2.087  0.00  0.00    -0.324 N 
ATOM     34  C   UNL     1       2.484  -4.810   1.899  0.00  0.00    +0.209 A 
ATOM     35  H   UNL     1       2.703  -6.829   1.781  0.00  0.00    +0.169 HD
BRANCH  26  36
ATOM     36  C   UNL     1       1.503  -2.548   2.473  0.00  0.00    +0.125 C 
BRANCH  36  37
ATOM     37  C   UNL     1       0.763  -2.041   1.233  0.00  0.00    +0.022 C 
BRANCH  37  38
ATOM     38  C   UNL     1       0.742  -0.511   1.242  0.00  0.00    +0.001 C 
BRANCH  38  40
ATOM     39  C   UNL     1      -0.019   1.526   0.010  0.00  0.00    +0.004 C 
ATOM     40  C   UNL     1       0.002  -0.004   0.002  0.00  0.00    -0.003 C 
ENDBRANCH  38  40
ENDBRANCH  37  38
ENDBRANCH  36  37
ENDBRANCH  26  36
ENDBRANCH  24  34
ENDBRANCH   1  25
TORSDOF 9
