REMARK  Name = ZINC39683419
REMARK  9 active torsions:
REMARK  status: ('A' for Active; 'I' for Inactive)
REMARK    1  A    between atoms: C_1  and  C_2
REMARK    2  A    between atoms: C_2  and  C_3
REMARK    3  A    between atoms: C_3  and  C_4
REMARK    4  A    between atoms: C_4  and  N_5
REMARK    5  A    between atoms: C_8  and  C_11
REMARK    6  A    between atoms: C_11  and  N_12
REMARK    7  A    between atoms: C_13  and  C_15
REMARK    8  A    between atoms: C_26  and  C_28
REMARK    9  A    between atoms: C_34  and  C_36
REMARK                            x       y       z     vdW  Elec       q    Type
REMARK                         _______ _______ _______ _____ _____    ______ ____
ROOT
ATOM      1  C   UNL     1      -7.722  -8.215  -0.774  0.00  0.00    +0.100 C 
ATOM      2  C   UNL     1      -7.306  -8.788  -2.147  0.00  0.00    +0.121 C 
ATOM      3  N   UNL     1      -8.193  -9.958  -2.349  0.00  0.00    -0.299 N 
ATOM      4  C   UNL     1      -9.509  -9.518  -1.825  0.00  0.00    +0.115 C 
ATOM      5  C   UNL     1      -9.168  -8.696  -0.566  0.00  0.00    -0.004 C 
ATOM      6  C   UNL     1      -9.259  -9.574   0.678  0.00  0.00    -0.010 C 
ATOM      7  C   UNL     1     -10.716  -9.993   0.895  0.00  0.00    -0.082 C 
ATOM      8  N   UNL     1     -11.553  -8.798   1.053  0.00  0.00    +0.379 N 
ATOM      9  C   UNL     1     -11.533  -8.006  -0.183  0.00  0.00    -0.082 C 
ATOM     10  C   UNL     1     -10.110  -7.503  -0.446  0.00  0.00    -0.010 C 
ATOM     11  C   UNL     1      -7.875 -11.152  -2.887  0.00  0.00    +0.236 C 
ATOM     12  O   UNL     1      -8.720 -12.017  -2.985  0.00  0.00    -0.274 OA
ATOM     13  H   UNL     1     -12.501  -9.077   1.256  0.00  0.00    -0.086 HD
ATOM     14  H   UNL     1     -11.198  -8.239   1.815  0.00  0.00    -0.086 HD
ENDROOT
BRANCH  11  15
ATOM     15  C   UNL     1      -6.471 -11.413  -3.366  0.00  0.00    +0.162 C 
ATOM     16  C   UNL     1      -6.269 -10.788  -4.763  0.00  0.00    +0.033 C 
ATOM     17  C   UNL     1      -5.389 -11.839  -5.490  0.00  0.00    +0.021 C 
ATOM     18  C   UNL     1      -5.945 -13.164  -4.910  0.00  0.00    +0.109 C 
ATOM     19  N   UNL     1      -6.247 -12.860  -3.496  0.00  0.00    -0.283 N 
ATOM     20  C   UNL     1      -6.309 -13.758  -2.492  0.00  0.00    +0.320 C 
ATOM     21  O   UNL     1      -6.567 -13.390  -1.365  0.00  0.00    -0.266 OA
BRANCH  20  22
ATOM     22  C   UNL     1      -6.056 -15.217  -2.769  0.00  0.00    +0.470 C 
ATOM     23  F   UNL     1      -6.175 -15.945  -1.581  0.00  0.00    -0.162 F 
ATOM     24  F   UNL     1      -6.993 -15.684  -3.698  0.00  0.00    -0.162 F 
ATOM     25  F   UNL     1      -4.766 -15.377  -3.287  0.00  0.00    -0.162 F 
ENDBRANCH  20  22
ENDBRANCH  11  15
BRANCH   1  27
ATOM     26  N   UNL     1      -7.420  -6.027   0.341  0.00  0.00    -0.315 N 
ATOM     27  C   UNL     1      -7.668  -6.709  -0.795  0.00  0.00    +0.218 C 
ATOM     28  O   UNL     1      -7.848  -6.111  -1.835  0.00  0.00    -0.275 OA
ATOM     29  H   UNL     1      -7.276  -6.506   1.172  0.00  0.00    +0.149 HD
BRANCH  26  30
ATOM     30  C   UNL     1      -7.368  -4.564   0.320  0.00  0.00    +0.107 C 
BRANCH  30  34
ATOM     31  N   UNL     1      -7.842  -2.335   3.937  0.00  0.00    +0.380 N 
ATOM     32  C   UNL     1      -6.679  -2.001   3.108  0.00  0.00    -0.079 C 
ATOM     33  C   UNL     1      -6.894  -2.523   1.686  0.00  0.00    -0.014 C 
ATOM     34  C   UNL     1      -7.073  -4.043   1.728  0.00  0.00    +0.003 C 
ATOM     35  C   UNL     1      -8.243  -4.385   2.655  0.00  0.00    -0.014 C 
ATOM     36  C   UNL     1      -7.978  -3.793   4.041  0.00  0.00    -0.079 C 
ATOM     37  H   UNL     1      -8.675  -1.950   3.516  0.00  0.00    -0.082 HD
BRANCH  31  38
ATOM     38  C   UNL     1      -7.665  -1.764   5.279  0.00  0.00    -0.079 C 
BRANCH  38  39
ATOM     39  C   UNL     1      -7.649  -0.237   5.186  0.00  0.00    -0.019 C 
BRANCH  39  41
ATOM     40  C   UNL     1      -7.449   1.884   6.490  0.00  0.00    +0.004 C 
ATOM     41  C   UNL     1      -7.465   0.357   6.584  0.00  0.00    -0.005 C 
ENDBRANCH  39  41
ENDBRANCH  38  39
ENDBRANCH  31  38
ENDBRANCH  30  34
ENDBRANCH  26  30
ENDBRANCH   1  27
TORSDOF 8
