REMARK  Name = ZINC64541074
REMARK  6 active torsions:
REMARK  status: ('A' for Active; 'I' for Inactive)
REMARK    1  A    between atoms: C_1  and  C_2
REMARK    2  A    between atoms: C_2  and  C_4
REMARK    3  A    between atoms: C_2  and  C_23
REMARK    4  A    between atoms: C_10  and  C_12
REMARK    5  A    between atoms: N_25  and  C_26
REMARK    6  A    between atoms: C_26  and  C_27
REMARK                            x       y       z     vdW  Elec       q    Type
REMARK                         _______ _______ _______ _____ _____    ______ ____
ROOT
ATOM      1  C   UNL     1       0.742  -0.511   1.242  0.00  0.00    +0.004 C 
ATOM      2  C   UNL     1       2.177   0.020   1.231  0.00  0.00    +0.023 C 
ATOM      3  C   UNL     1       2.905  -0.461   2.491  0.00  0.00    +0.108 C 
ATOM      4  N   UNL     1       2.804  -1.924   2.566  0.00  0.00    -0.300 N 
ATOM      5  C   UNL     1       1.474  -2.545   2.493  0.00  0.00    +0.108 C 
ATOM      6  C   UNL     1       0.763  -2.041   1.233  0.00  0.00    +0.023 C 
ATOM      7  C   UNL     1       3.909  -2.683   2.698  0.00  0.00    +0.242 C 
ATOM      8  O   UNL     1       5.001  -2.159   2.757  0.00  0.00    -0.273 OA
ENDROOT
BRANCH   7   9
ATOM      9  C   UNL     1       3.789  -4.184   2.773  0.00  0.00    +0.190 C 
ATOM     10  C   UNL     1       2.993  -4.582   3.996  0.00  0.00    +0.016 C 
ATOM     11  C   UNL     1       3.822  -5.337   4.753  0.00  0.00    -0.002 A 
ATOM     12  C   UNL     1       3.649  -6.013   6.044  0.00  0.00    +0.029 A 
ATOM     13  C   UNL     1       4.686  -6.711   6.563  0.00  0.00    +0.042 A 
ATOM     14  C   UNL     1       5.918  -6.802   5.900  0.00  0.00    +0.022 A 
ATOM     15  C   UNL     1       6.153  -6.208   4.712  0.00  0.00    +0.027 A 
ATOM     16  C   UNL     1       5.133  -5.449   4.074  0.00  0.00    +0.043 A 
ATOM     17  N   UNL     1       5.115  -4.789   2.939  0.00  0.00    -0.370 N 
ATOM     18 CL   UNL     1       4.485  -7.513   8.090  0.00  0.00    -0.084 Cl
ATOM     19  H   UNL     1       5.854  -4.714   2.315  0.00  0.00    +0.161 HD
ENDBRANCH   7   9
BRANCH   1  21
ATOM     20  C   UNL     1      -0.019   1.526   0.010  0.00  0.00    +0.017 C 
ATOM     21  C   UNL     1       0.002  -0.004   0.002  0.00  0.00    +0.075 C 
BRANCH  21  22
ATOM     22  C   UNL     1      -1.412  -0.526   0.013  0.00  0.00    +0.216 C 
ATOM     23  O   UNL     1      -1.790  -1.233   0.922  0.00  0.00    -0.276 OA
ATOM     24  N   UNL     1      -2.256  -0.206  -0.988  0.00  0.00    -0.311 N 
ATOM     25  H   UNL     1      -1.953   0.360  -1.716  0.00  0.00    +0.149 HD
BRANCH  24  26
ATOM     26  C   UNL     1      -3.630  -0.713  -0.978  0.00  0.00    +0.139 C 
BRANCH  26  27
ATOM     27  C   UNL     1      -4.359  -0.214  -2.199  0.00  0.00    -0.027 A 
ATOM     28  C   UNL     1      -5.041   0.988  -2.152  0.00  0.00    +0.009 A 
ATOM     29  C   UNL     1      -5.711   1.450  -3.269  0.00  0.00    +0.050 A 
ATOM     30  C   UNL     1      -5.700   0.709  -4.440  0.00  0.00    +0.166 A 
ATOM     31  C   UNL     1      -5.013  -0.501  -4.487  0.00  0.00    +0.167 A 
ATOM     32  C   UNL     1      -4.339  -0.956  -3.365  0.00  0.00    +0.054 A 
ATOM     33  O   UNL     1      -5.152  -1.033  -5.737  0.00  0.00    -0.453 OA
ATOM     34  C   UNL     1      -6.267  -0.340  -6.328  0.00  0.00    +0.466 C 
ATOM     35  O   UNL     1      -6.270   0.936  -5.660  0.00  0.00    -0.453 OA
ENDBRANCH  26  27
ENDBRANCH  24  26
ENDBRANCH  21  22
ENDBRANCH   1  21
TORSDOF 5
