REMARK  Name = ZINC43554253
REMARK  14 active torsions:
REMARK  status: ('A' for Active; 'I' for Inactive)
REMARK    1  A    between atoms: C_1  and  C_2
REMARK    2  A    between atoms: N_4  and  C_5
REMARK    3  A    between atoms: C_5  and  C_6
REMARK    4  A    between atoms: C_6  and  N_7
REMARK    5  A    between atoms: C_8  and  C_10
REMARK    6  A    between atoms: C_10  and  C_11
REMARK    7  A    between atoms: C_19  and  O_21
REMARK    8  A    between atoms: O_21  and  C_22
REMARK    9  A    between atoms: C_22  and  C_23
REMARK   10  A    between atoms: C_28  and  C_38
REMARK   11  A    between atoms: C_31  and  O_37
REMARK   12  A    between atoms: C_33  and  C_34
REMARK   13  A    between atoms: C_33  and  C_35
REMARK   14  A    between atoms: C_35  and  O_36
REMARK                            x       y       z     vdW  Elec       q    Type
REMARK                         _______ _______ _______ _____ _____    ______ ____
ROOT
ATOM      1  C   UNL     1      -4.973  -6.865   0.126  0.00  0.00    +0.054 C 
ATOM      2  C   UNL     1      -5.604  -6.617   1.481  0.00  0.00    +0.058 A 
ATOM      3  C   UNL     1      -6.682  -7.358   1.837  0.00  0.00    +0.015 A 
ATOM      4  S   UNL     1      -7.059  -6.724   3.449  0.00  0.00    -0.057 S 
ATOM      5  C   UNL     1      -5.825  -5.578   3.529  0.00  0.00    +0.167 A 
ATOM      6  N   UNL     1      -5.205  -5.724   2.378  0.00  0.00    -0.229 NA
ATOM      7  N   UNL     1      -5.534  -4.693   4.561  0.00  0.00    -0.230 N 
ATOM      8  C   UNL     1      -6.290  -4.687   5.677  0.00  0.00    +0.406 C 
ATOM      9  O   UNL     1      -7.225  -5.455   5.782  0.00  0.00    -0.226 OA
ATOM     10  C   UNL     1      -7.355  -8.426   1.055  0.00  0.00    +0.049 C 
ATOM     11  C   UNL     1      -6.712  -8.635  -0.330  0.00  0.00    +0.011 C 
ATOM     12  C   UNL     1      -5.223  -8.319  -0.292  0.00  0.00    -0.019 C 
ATOM     13  C   UNL     1      -4.524  -9.302   0.641  0.00  0.00    +0.010 C 
ATOM     14  C   UNL     1      -4.689 -10.720   0.095  0.00  0.00    +0.032 C 
ATOM     15  C   UNL     1      -6.149 -11.106  -0.055  0.00  0.00    +0.123 C 
ATOM     16  C   UNL     1      -7.015 -10.072  -0.753  0.00  0.00    +0.021 C 
ATOM     17  C   UNL     1      -6.935 -10.252  -2.274  0.00  0.00    +0.016 C 
ATOM     18  C   UNL     1      -4.590  -8.432  -1.687  0.00  0.00    +0.012 C 
ATOM     19  H   UNL     1      -4.787  -4.079   4.477  0.00  0.00    +0.160 HD
ENDROOT
BRANCH  15  20
ATOM     20  O   UNL     1      -6.698 -11.427   1.228  0.00  0.00    -0.391 OA
ATOM     21  H   UNL     1      -6.255 -12.162   1.673  0.00  0.00    +0.210 HD
ENDBRANCH  15  20
BRANCH   1  22
ATOM     22  C   UNL     1      -3.479  -6.565   0.165  0.00  0.00    +0.106 C 
BRANCH  22  24
ATOM     23  N   UNL     1      -2.018  -4.593   0.476  0.00  0.00    -0.314 N 
ATOM     24  C   UNL     1      -3.268  -5.092   0.403  0.00  0.00    +0.214 C 
ATOM     25  O   UNL     1      -4.224  -4.355   0.528  0.00  0.00    -0.276 OA
ATOM     26  H   UNL     1      -1.254  -5.182   0.376  0.00  0.00    +0.149 HD
BRANCH  23  27
ATOM     27  C   UNL     1      -1.814  -3.161   0.708  0.00  0.00    +0.123 C 
BRANCH  27  28
ATOM     28  C   UNL     1      -0.315  -2.859   0.748  0.00  0.00    +0.123 C 
BRANCH  28  32
ATOM     29  C   UNL     1       1.350   0.545   1.290  0.00  0.00    +0.109 C 
ATOM     30  C   UNL     1       1.140  -0.928   1.052  0.00  0.00    +0.210 C 
ATOM     31  O   UNL     1       2.095  -1.665   0.927  0.00  0.00    -0.276 OA
ATOM     32  N   UNL     1      -0.110  -1.427   0.979  0.00  0.00    -0.314 N 
ATOM     33  H   UNL     1      -0.874  -0.838   1.079  0.00  0.00    +0.149 HD
ENDBRANCH  28  32
ENDBRANCH  27  28
ENDBRANCH  23  27
ENDBRANCH  22  24
ENDBRANCH   1  22
BRANCH   8  34
ATOM     34  O   UNL     1      -6.008  -3.829   6.676  0.00  0.00    -0.446 OA
BRANCH  34  35
ATOM     35  C   UNL     1      -6.850  -3.878   7.829  0.00  0.00    +0.261 C 
BRANCH  35  36
ATOM     36  C   UNL     1      -6.385  -2.854   8.834  0.00  0.00    +0.006 C 
ATOM     37  C   UNL     1      -7.258  -2.085   9.437  0.00  0.00    +0.007 C 
ENDBRANCH  35  36
ENDBRANCH  34  35
ENDBRANCH   8  34
BRANCH  16  38
ATOM     38  C   UNL     1      -8.489 -10.386  -0.384  0.00  0.00    +0.165 C 
BRANCH  38  39
ATOM     39  O   UNL     1      -8.802 -11.726  -0.768  0.00  0.00    -0.394 OA
ATOM     40  H   UNL     1      -9.709 -11.992  -0.567  0.00  0.00    +0.209 HD
ENDBRANCH  38  39
ENDBRANCH  16  38
TORSDOF 11
