REMARK  Name = ZINC39691229
REMARK  6 active torsions:
REMARK  status: ('A' for Active; 'I' for Inactive)
REMARK    1  A    between atoms: C_1  and  C_2
REMARK    2  A    between atoms: C_7  and  C_8
REMARK    3  A    between atoms: C_8  and  C_9
REMARK    4  A    between atoms: C_9  and  N_10
REMARK    5  A    between atoms: C_11  and  C_13
REMARK    6  A    between atoms: C_24  and  C_26
REMARK                            x       y       z     vdW  Elec       q    Type
REMARK                         _______ _______ _______ _____ _____    ______ ____
ROOT
ATOM      1  C   UNL     1      -2.544   2.293   6.098  0.00  0.00    +0.100 C 
ATOM      2  C   UNL     1      -1.695   3.575   5.945  0.00  0.00    +0.121 C 
ATOM      3  N   UNL     1      -2.675   4.636   5.615  0.00  0.00    -0.297 N 
ATOM      4  C   UNL     1      -3.849   4.332   6.467  0.00  0.00    +0.115 C 
ATOM      5  C   UNL     1      -3.956   2.794   6.444  0.00  0.00    -0.004 C 
ATOM      6  C   UNL     1      -4.950   2.352   5.374  0.00  0.00    -0.010 C 
ATOM      7  C   UNL     1      -6.356   2.813   5.769  0.00  0.00    -0.082 C 
ATOM      8  N   UNL     1      -6.716   2.234   7.069  0.00  0.00    +0.379 N 
ATOM      9  C   UNL     1      -5.810   2.738   8.109  0.00  0.00    -0.082 C 
ATOM     10  C   UNL     1      -4.381   2.274   7.813  0.00  0.00    -0.010 C 
ATOM     11  C   UNL     1      -2.531   5.650   4.738  0.00  0.00    +0.260 C 
ATOM     12  O   UNL     1      -1.542   5.711   4.038  0.00  0.00    -0.271 OA
ATOM     13  H   UNL     1      -7.665   2.489   7.299  0.00  0.00    -0.086 HD
ATOM     14  H   UNL     1      -6.643   1.229   7.020  0.00  0.00    -0.086 HD
ENDROOT
BRANCH  11  15
ATOM     15  C   UNL     1      -3.600   6.707   4.626  0.00  0.00    +0.296 C 
ATOM     16  C   UNL     1      -3.619   7.560   5.901  0.00  0.00    +0.283 C 
ATOM     17  O   UNL     1      -4.633   8.560   5.756  0.00  0.00    -0.484 OA
ATOM     18  C   UNL     1      -4.662   9.235   4.574  0.00  0.00    +0.162 A 
ATOM     19  C   UNL     1      -5.354  10.434   4.492  0.00  0.00    +0.049 A 
ATOM     20  C   UNL     1      -5.395  11.129   3.298  0.00  0.00    +0.004 A 
ATOM     21  C   UNL     1      -4.746  10.631   2.183  0.00  0.00    +0.004 A 
ATOM     22  C   UNL     1      -4.054   9.437   2.259  0.00  0.00    +0.049 A 
ATOM     23  C   UNL     1      -4.008   8.735   3.454  0.00  0.00    +0.163 A 
ATOM     24  O   UNL     1      -3.315   7.565   3.516  0.00  0.00    -0.473 OA
ENDBRANCH  11  15
BRANCH   1  26
ATOM     25  N   UNL     1      -2.686   0.178   4.824  0.00  0.00    -0.315 N 
ATOM     26  C   UNL     1      -2.564   1.520   4.805  0.00  0.00    +0.218 C 
ATOM     27  O   UNL     1      -2.469   2.105   3.747  0.00  0.00    -0.275 OA
ATOM     28  H   UNL     1      -2.761  -0.290   5.671  0.00  0.00    +0.149 HD
BRANCH  25  29
ATOM     29  C   UNL     1      -2.705  -0.575   3.567  0.00  0.00    +0.109 C 
BRANCH  29  30
ATOM     30  C   UNL     1      -2.852  -2.067   3.869  0.00  0.00    +0.054 C 
BRANCH  30  37
ATOM     31  C   UNL     1      -0.369  -2.848   2.614  0.00  0.00    +0.044 C 
ATOM     32  C   UNL     1      -1.684  -3.215   1.976  0.00  0.00    -0.047 A 
ATOM     33  C   UNL     1      -1.702  -3.929   0.792  0.00  0.00    +0.003 A 
ATOM     34  C   UNL     1      -2.908  -4.266   0.206  0.00  0.00    +0.000 A 
ATOM     35  C   UNL     1      -4.096  -3.888   0.804  0.00  0.00    +0.000 A 
ATOM     36  C   UNL     1      -4.078  -3.174   1.987  0.00  0.00    +0.004 A 
ATOM     37  C   UNL     1      -2.872  -2.841   2.576  0.00  0.00    -0.043 A 
ENDBRANCH  30  37
ENDBRANCH  29  30
ENDBRANCH  25  29
ENDBRANCH   1  26
TORSDOF 5
