REMARK  Name = ZINC13551588
REMARK  11 active torsions:
REMARK  status: ('A' for Active; 'I' for Inactive)
REMARK    1  A    between atoms: C_1  and  O_2
REMARK    2  A    between atoms: O_2  and  C_3
REMARK    3  A    between atoms: C_5  and  C_18
REMARK    4  A    between atoms: C_8  and  O_9
REMARK    5  A    between atoms: O_9  and  C_10
REMARK    6  A    between atoms: C_10  and  C_11
REMARK    7  A    between atoms: C_19  and  C_20
REMARK    8  A    between atoms: C_19  and  C_22
REMARK    9  A    between atoms: C_23  and  C_34
REMARK   10  A    between atoms: C_24  and  N_33
REMARK   11  A    between atoms: N_25  and  C_27
REMARK                            x       y       z     vdW  Elec       q    Type
REMARK                         _______ _______ _______ _____ _____    ______ ____
ROOT
ATOM      1  C   UNL     1      -1.379   6.521  -1.694  0.00  0.00    +0.029 C 
ATOM      2  C   UNL     1      -0.023   6.600  -1.583  0.00  0.00    +0.081 C 
ENDROOT
BRANCH   1   5
ATOM      3  C   UNL     1      -4.076   8.670  -3.167  0.00  0.00    +0.162 A 
ATOM      4  C   UNL     1      -3.353   7.553  -2.796  0.00  0.00    +0.057 A 
ATOM      5  C   UNL     1      -2.152   7.704  -2.092  0.00  0.00    -0.020 A 
ATOM      6  C   UNL     1      -1.694   8.986  -1.762  0.00  0.00    +0.012 A 
ATOM      7  C   UNL     1      -2.420  10.094  -2.142  0.00  0.00    +0.050 A 
ATOM      8  C   UNL     1      -3.610   9.943  -2.841  0.00  0.00    +0.162 A 
BRANCH   3  10
ATOM      9  C   UNL     1      -5.660   7.194  -4.152  0.00  0.00    +0.277 C 
ATOM     10  O   UNL     1      -5.243   8.528  -3.851  0.00  0.00    -0.491 OA
ENDBRANCH   3  10
BRANCH   8  11
ATOM     11  O   UNL     1      -4.324  11.039  -3.207  0.00  0.00    -0.484 OA
BRANCH  11  12
ATOM     12  C   UNL     1      -3.789  12.313  -2.841  0.00  0.00    +0.264 C 
BRANCH  12  13
ATOM     13  C   UNL     1      -4.710  13.402  -3.328  0.00  0.00    -0.010 A 
ATOM     14  C   UNL     1      -4.527  13.951  -4.583  0.00  0.00    +0.008 A 
ATOM     15  C   UNL     1      -5.375  14.947  -5.032  0.00  0.00    +0.020 A 
ATOM     16  C   UNL     1      -6.399  15.402  -4.221  0.00  0.00    +0.041 A 
ATOM     17  C   UNL     1      -6.577  14.856  -2.962  0.00  0.00    +0.020 A 
ATOM     18  C   UNL     1      -5.733  13.857  -2.516  0.00  0.00    +0.008 A 
ATOM     19 CL   UNL     1      -7.459  16.656  -4.782  0.00  0.00    -0.084 Cl
ENDBRANCH  12  13
ENDBRANCH  11  12
ENDBRANCH   8  11
ENDBRANCH   1   5
BRANCH   2  20
ATOM     20  C   UNL     1       0.742   5.457  -1.039  0.00  0.00    +0.123 A 
ATOM     21  C   UNL     1       2.197   5.390  -0.859  0.00  0.00    +0.119 A 
ATOM     22  C   UNL     1       2.466   4.137  -0.318  0.00  0.00    +0.138 A 
ATOM     23  N   UNL     1       1.283   3.487  -0.185  0.00  0.00    -0.217 N 
ATOM     24  N   UNL     1       0.245   4.311  -0.628  0.00  0.00    -0.163 NA
BRANCH  23  25
ATOM     25  C   UNL     1       1.125   2.192   0.323  0.00  0.00    +0.067 A 
ATOM     26  C   UNL     1       0.006   1.873   1.081  0.00  0.00    +0.028 A 
ATOM     27  C   UNL     1      -0.147   0.595   1.581  0.00  0.00    +0.002 A 
ATOM     28  C   UNL     1       0.812  -0.368   1.326  0.00  0.00    +0.000 A 
ATOM     29  C   UNL     1       1.927  -0.054   0.572  0.00  0.00    +0.002 A 
ATOM     30  C   UNL     1       2.087   1.223   0.070  0.00  0.00    +0.028 A 
ENDBRANCH  23  25
BRANCH  22  31
ATOM     31  N   UNL     1       3.712   3.643   0.020  0.00  0.00    -0.342 N 
ATOM     32  H   UNL     1       3.795   2.751   0.391  0.00  0.00    +0.144 HD
ATOM     33  H   UNL     1       4.502   4.189  -0.114  0.00  0.00    +0.144 HD
ENDBRANCH  22  31
BRANCH  21  34
ATOM     34  C   UNL     1       3.149   6.413  -1.173  0.00  0.00    +0.105 C 
ATOM     35  N   UNL     1       3.905   7.224  -1.422  0.00  0.00    -0.191 NA
ENDBRANCH  21  34
ENDBRANCH   2  20
BRANCH   2  36
ATOM     36  C   UNL     1       0.661   7.790  -1.992  0.00  0.00    +0.101 C 
ATOM     37  N   UNL     1       1.204   8.733  -2.316  0.00  0.00    -0.191 NA
ENDBRANCH   2  36
TORSDOF 10
