REMARK  Name = ZINC36610187
REMARK  16 active torsions:
REMARK  status: ('A' for Active; 'I' for Inactive)
REMARK    1  A    between atoms: C_1  and  C_2
REMARK    2  A    between atoms: C_3  and  C_4
REMARK    3  A    between atoms: C_4  and  C_6
REMARK    4  A    between atoms: C_4  and  N_17
REMARK    5  A    between atoms: N_8  and  C_9
REMARK    6  A    between atoms: C_9  and  C_10
REMARK    7  A    between atoms: C_9  and  C_11
REMARK    8  A    between atoms: C_9  and  C_12
REMARK    9  A    between atoms: C_12  and  C_13
REMARK   10  A    between atoms: C_13  and  C_14
REMARK   11  A    between atoms: C_13  and  C_15
REMARK   12  A    between atoms: C_13  and  C_16
REMARK   13  A    between atoms: N_17  and  C_18
REMARK   14  A    between atoms: C_24  and  C_26
REMARK   15  A    between atoms: C_27  and  O_33
REMARK   16  A    between atoms: C_31  and  O_32
REMARK                            x       y       z     vdW  Elec       q    Type
REMARK                         _______ _______ _______ _____ _____    ______ ____
ROOT
ATOM      1  N   UNL     1       1.485  -3.839  -0.876  0.00  0.00    -0.252 N 
ATOM      2  C   UNL     1       0.234  -4.278  -1.120  0.00  0.00    +0.259 C 
ATOM      3  O   UNL     1      -0.706  -3.811  -0.505  0.00  0.00    -0.269 OA
ENDROOT
BRANCH   1   4
ATOM      4  C   UNL     1       2.548  -4.281  -1.669  0.00  0.00    +0.038 A 
ATOM      5  C   UNL     1       3.857  -4.008  -1.293  0.00  0.00    +0.023 A 
ATOM      6  C   UNL     1       4.905  -4.447  -2.078  0.00  0.00    +0.002 A 
ATOM      7  C   UNL     1       4.653  -5.157  -3.237  0.00  0.00    +0.000 A 
ATOM      8  C   UNL     1       3.351  -5.430  -3.615  0.00  0.00    +0.002 A 
ATOM      9  C   UNL     1       2.298  -5.000  -2.831  0.00  0.00    +0.023 A 
ENDBRANCH   1   4
BRANCH   2  10
ATOM     10  C   UNL     1       0.005  -5.322  -2.132  0.00  0.00    +0.120 A 
ATOM     11  C   UNL     1       0.153  -6.676  -1.797  0.00  0.00    +0.133 A 
ATOM     12  C   UNL     1      -0.065  -7.650  -2.757  0.00  0.00    +0.046 A 
ATOM     13  C   UNL     1      -0.428  -7.293  -4.042  0.00  0.00    +0.007 A 
ATOM     14  C   UNL     1      -0.576  -5.961  -4.384  0.00  0.00    +0.046 A 
ATOM     15  C   UNL     1      -0.369  -4.971  -3.438  0.00  0.00    +0.133 A 
BRANCH  15  16
ATOM     16  O   UNL     1      -0.520  -3.665  -3.775  0.00  0.00    -0.506 OA
ATOM     17  H   UNL     1       0.287  -3.248  -4.105  0.00  0.00    +0.292 HD
ENDBRANCH  15  16
BRANCH  11  18
ATOM     18  O   UNL     1       0.509  -7.030  -0.536  0.00  0.00    -0.506 OA
ATOM     19  H   UNL     1      -0.239  -7.168   0.060  0.00  0.00    +0.292 HD
ENDBRANCH  11  18
ENDBRANCH   2  10
BRANCH   1  20
ATOM     20  C   UNL     1       1.730  -2.898   0.220  0.00  0.00    +0.190 C 
BRANCH  20  21
ATOM     21  C   UNL     1       2.687  -3.514   1.206  0.00  0.00    +0.238 C 
ATOM     22  O   UNL     1       3.122  -4.630   1.013  0.00  0.00    -0.273 OA
ATOM     23  N   UNL     1       3.060  -2.826   2.304  0.00  0.00    -0.308 N 
ATOM     24  H   UNL     1       2.712  -1.934   2.458  0.00  0.00    +0.149 HD
BRANCH  23  25
ATOM     25  C   UNL     1       3.991  -3.425   3.263  0.00  0.00    +0.030 C 
ATOM     26  C   UNL     1       3.219  -4.332   4.224  0.00  0.00    +0.031 C 
ATOM     27  C   UNL     1       5.036  -4.252   2.511  0.00  0.00    +0.031 C 
BRANCH  25  28
ATOM     28  C   UNL     1       4.690  -2.319   4.055  0.00  0.00    +0.031 C 
BRANCH  28  29
ATOM     29  C   UNL     1       5.134  -1.210   3.099  0.00  0.00    -0.036 C 
ATOM     30  C   UNL     1       3.965  -0.255   2.848  0.00  0.00    +0.010 C 
ATOM     31  C   UNL     1       6.299  -0.437   3.721  0.00  0.00    +0.010 C 
ATOM     32  C   UNL     1       5.582  -1.828   1.774  0.00  0.00    +0.010 C 
ENDBRANCH  28  29
ENDBRANCH  25  28
ENDBRANCH  23  25
ENDBRANCH  20  21
BRANCH  20  35
ATOM     33  C   UNL     1       3.046  -0.203  -2.179  0.00  0.00    +0.035 C 
ATOM     34  C   UNL     1       2.451  -1.472  -1.627  0.00  0.00    -0.032 C 
ATOM     35  C   UNL     1       2.325  -1.628  -0.332  0.00  0.00    +0.000 C 
ENDBRANCH  20  35
ENDBRANCH   1  20
TORSDOF 10
