REMARK  Name = ZINC05021554
REMARK  9 active torsions:
REMARK  status: ('A' for Active; 'I' for Inactive)
REMARK    1  A    between atoms: C_1  and  C_2
REMARK    2  A    between atoms: C_5  and  C_8
REMARK    3  A    between atoms: C_11  and  S_14
REMARK    4  A    between atoms: N_12  and  N_13
REMARK    5  A    between atoms: S_14  and  C_15
REMARK    6  A    between atoms: C_15  and  C_17
REMARK    7  A    between atoms: C_15  and  C_18
REMARK    8  A    between atoms: N_20  and  C_21
REMARK    9  A    between atoms: N_20  and  C_22
REMARK                            x       y       z     vdW  Elec       q    Type
REMARK                         _______ _______ _______ _____ _____    ______ ____
ROOT
ATOM      1  C   UNL     1      -4.446   0.058  -1.554  0.00  0.00    +0.182 A 
ATOM      2  N   UNL     1      -3.931  -0.443  -0.456  0.00  0.00    -0.127 NA
ATOM      3  N   UNL     1      -2.738   0.004  -0.287  0.00  0.00    -0.121 NA
ATOM      4  C   UNL     1      -2.418   0.819  -1.268  0.00  0.00    +0.209 A 
ATOM      5  N   UNL     1      -3.495   0.886  -2.105  0.00  0.00    -0.224 N 
ENDROOT
BRANCH   1  10
ATOM      6  C   UNL     1      -9.700  -0.990  -3.656  0.00  0.00    +0.044 C 
ATOM      7  C   UNL     1      -8.324  -0.716  -3.106  0.00  0.00    -0.050 A 
ATOM      8  C   UNL     1      -8.024  -1.058  -1.799  0.00  0.00    +0.004 A 
ATOM      9  C   UNL     1      -6.766  -0.810  -1.289  0.00  0.00    +0.012 A 
ATOM     10  C   UNL     1      -5.796  -0.212  -2.095  0.00  0.00    +0.021 A 
ATOM     11  C   UNL     1      -6.106   0.136  -3.410  0.00  0.00    +0.012 A 
ATOM     12  C   UNL     1      -7.366  -0.123  -3.909  0.00  0.00    +0.004 A 
ENDBRANCH   1  10
BRANCH   5  13
ATOM     13  N   UNL     1      -3.605   1.621  -3.252  0.00  0.00    -0.295 N 
ATOM     14  H   UNL     1      -3.294   1.091  -4.052  0.00  0.00    +0.163 HD
ATOM     15  H   UNL     1      -4.550   1.950  -3.381  0.00  0.00    +0.163 HD
ENDBRANCH   5  13
BRANCH   4  16
ATOM     16  S   UNL     1      -0.888   1.671  -1.463  0.00  0.00    -0.072 S 
BRANCH  16  17
ATOM     17  C   UNL     1      -0.013   1.085   0.009  0.00  0.00    +0.137 C 
ATOM     18  C   UNL     1      -0.727   1.594   1.263  0.00  0.00    +0.029 C 
BRANCH  17  19
ATOM     19  C   UNL     1       1.402   1.603  -0.009  0.00  0.00    +0.233 C 
ATOM     20  O   UNL     1       1.670   2.616  -0.620  0.00  0.00    -0.274 OA
ATOM     21  N   UNL     1       2.371   0.940   0.654  0.00  0.00    -0.274 N 
ATOM     22  C   UNL     1       2.031  -0.225   1.475  0.00  0.00    +0.138 C 
BRANCH  21  23
ATOM     23  C   UNL     1       3.700   1.365   0.558  0.00  0.00    +0.036 A 
ATOM     24  C   UNL     1       4.649   0.550  -0.045  0.00  0.00    +0.023 A 
ATOM     25  C   UNL     1       5.960   0.975  -0.142  0.00  0.00    +0.002 A 
ATOM     26  C   UNL     1       6.330   2.205   0.370  0.00  0.00    +0.000 A 
ATOM     27  C   UNL     1       5.388   3.016   0.976  0.00  0.00    +0.002 A 
ATOM     28  C   UNL     1       4.075   2.600   1.071  0.00  0.00    +0.023 A 
ENDBRANCH  21  23
ENDBRANCH  17  19
ENDBRANCH  16  17
ENDBRANCH   4  16
TORSDOF 6
