REMARK  Name = ZINC05684123
REMARK  5 active torsions:
REMARK  status: ('A' for Active; 'I' for Inactive)
REMARK    1  A    between atoms: C_1  and  C_2
REMARK    2  A    between atoms: C_5  and  N_9
REMARK    3  A    between atoms: C_7  and  C_8
REMARK    4  A    between atoms: N_10  and  C_11
REMARK    5  A    between atoms: C_16  and  O_17
REMARK                            x       y       z     vdW  Elec       q    Type
REMARK                         _______ _______ _______ _____ _____    ______ ____
ROOT
ATOM      1  N   UNL     1       0.057  -4.141  -0.021  0.00  0.00    -0.149 NA
ATOM      2  N   UNL     1       0.059  -4.779  -1.141  0.00  0.00    -0.146 NA
ENDROOT
BRANCH   1   7
ATOM      3  C   UNL     1      -0.018   1.503   0.010  0.00  0.00    +0.044 C 
ATOM      4  C   UNL     1       0.002  -0.004   0.002  0.00  0.00    -0.047 A 
ATOM      5  C   UNL     1       0.006  -0.686  -1.202  0.00  0.00    +0.006 A 
ATOM      6  C   UNL     1       0.024  -2.065  -1.218  0.00  0.00    +0.030 A 
ATOM      7  C   UNL     1       0.039  -2.773  -0.013  0.00  0.00    +0.086 A 
ATOM      8  C   UNL     1       0.036  -2.078   1.199  0.00  0.00    +0.033 A 
ATOM      9  C   UNL     1       0.023  -0.699   1.198  0.00  0.00    -0.045 A 
ATOM     10  C   UNL     1       0.025   0.053   2.504  0.00  0.00    +0.044 C 
ENDBRANCH   1   7
BRANCH   2  11
ATOM     11  C   UNL     1       0.077  -6.144  -1.149  0.00  0.00    +0.128 A 
ATOM     12  C   UNL     1       0.086  -6.854   0.056  0.00  0.00    +0.048 A 
ATOM     13  C   UNL     1       0.104  -8.232   0.040  0.00  0.00    +0.020 A 
ATOM     14  C   UNL     1       0.112  -8.918  -1.164  0.00  0.00    +0.019 A 
ATOM     15  C   UNL     1       0.103  -8.228  -2.361  0.00  0.00    +0.049 A 
ATOM     16  C   UNL     1       0.080  -6.843  -2.365  0.00  0.00    +0.144 A 
ATOM     17 BR   UNL     1       0.117  -9.192   1.670  0.00  0.00    -0.050 Br
BRANCH  16  18
ATOM     18  O   UNL     1       0.065  -6.165  -3.541  0.00  0.00    -0.505 OA
ATOM     19  H   UNL     1       0.944  -5.957  -3.886  0.00  0.00    +0.292 HD
ENDBRANCH  16  18
ENDBRANCH   2  11
TORSDOF 3
