REMARK  Name = ZINC27044203
REMARK  8 active torsions:
REMARK  status: ('A' for Active; 'I' for Inactive)
REMARK    1  A    between atoms: C_1  and  C_2
REMARK    2  A    between atoms: C_2  and  C_4
REMARK    3  A    between atoms: C_2  and  N_16
REMARK    4  A    between atoms: N_6  and  C_7
REMARK    5  A    between atoms: N_16  and  C_17
REMARK    6  A    between atoms: C_24  and  C_26
REMARK    7  A    between atoms: C_26  and  C_27
REMARK    8  A    between atoms: C_26  and  C_28
REMARK                            x       y       z     vdW  Elec       q    Type
REMARK                         _______ _______ _______ _____ _____    ______ ____
ROOT
ATOM      1  C   UNL     1      -0.034   1.509   0.020  0.00  0.00    +0.038 C 
ATOM      2  C   UNL     1      -0.008  -0.021   0.002  0.00  0.00    +0.154 C 
ENDROOT
BRANCH   2   3
ATOM      3  C   UNL     1       0.704  -0.496  -1.238  0.00  0.00    +0.237 C 
ATOM      4  O   UNL     1       1.702  -1.178  -1.141  0.00  0.00    -0.273 OA
ATOM      5  N   UNL     1       0.231  -0.164  -2.456  0.00  0.00    -0.282 N 
ATOM      6  H   UNL     1      -0.602   0.326  -2.535  0.00  0.00    +0.155 HD
BRANCH   5   7
ATOM      7  C   UNL     1       0.943  -0.527  -3.607  0.00  0.00    +0.072 A 
ATOM      8  C   UNL     1       1.643  -1.725  -3.643  0.00  0.00    +0.029 A 
ATOM      9  C   UNL     1       2.346  -2.081  -4.777  0.00  0.00    +0.043 A 
ATOM     10  C   UNL     1       2.353  -1.245  -5.881  0.00  0.00    +0.161 A 
ATOM     11  C   UNL     1       1.655  -0.048  -5.850  0.00  0.00    +0.195 A 
ATOM     12  C   UNL     1       0.945   0.310  -4.716  0.00  0.00    +0.182 A 
ATOM     13  F   UNL     1       0.260   1.474  -4.687  0.00  0.00    -0.200 F 
ATOM     14  F   UNL     1       1.664   0.767  -6.928  0.00  0.00    -0.199 F 
ATOM     15  F   UNL     1       3.041  -1.597  -6.989  0.00  0.00    -0.202 F 
ENDBRANCH   5   7
ENDBRANCH   2   3
BRANCH   2  16
ATOM     16  N   UNL     1       0.697  -0.512   1.188  0.00  0.00    -0.333 N 
ATOM     17  H   UNL     1       1.642  -0.726   1.137  0.00  0.00    +0.147 HD
BRANCH  16  18
ATOM     18  C   UNL     1       0.009  -0.671   2.396  0.00  0.00    +0.030 A 
ATOM     19  C   UNL     1      -1.349  -0.368   2.465  0.00  0.00    +0.026 A 
ATOM     20  C   UNL     1      -2.039  -0.522   3.649  0.00  0.00    +0.050 A 
ATOM     21  C   UNL     1      -1.380  -0.981   4.780  0.00  0.00    +0.155 A 
ATOM     22  C   UNL     1      -0.013  -1.288   4.717  0.00  0.00    +0.111 A 
ATOM     23  C   UNL     1       0.677  -1.135   3.514  0.00  0.00    +0.054 A 
ATOM     24  N   UNL     1       0.347  -1.706   5.962  0.00  0.00    -0.213 NA
ATOM     25  C   UNL     1      -0.696  -1.665   6.735  0.00  0.00    +0.199 A 
ATOM     26  O   UNL     1      -1.766  -1.229   6.052  0.00  0.00    -0.439 OA
BRANCH  25  27
ATOM     27  C   UNL     1      -0.704  -2.054   8.191  0.00  0.00    +0.069 C 
ATOM     28  C   UNL     1      -1.130  -0.852   9.037  0.00  0.00    +0.017 C 
ATOM     29  C   UNL     1      -1.689  -3.204   8.407  0.00  0.00    +0.017 C 
ENDBRANCH  25  27
ENDBRANCH  16  18
ENDBRANCH   2  16
TORSDOF 5
