REMARK  Name = ZINC08943472
REMARK  5 active torsions:
REMARK  status: ('A' for Active; 'I' for Inactive)
REMARK    1  A    between atoms: C_4  and  C_7
REMARK    2  A    between atoms: C_7  and  C_9
REMARK    3  A    between atoms: C_7  and  N_66
REMARK    4  A    between atoms: C_9  and  C_11
REMARK    5  A    between atoms: C_23  and  C_26
REMARK                            x       y       z     vdW  Elec       q    Type
REMARK                         _______ _______ _______ _____ _____    ______ ____
ROOT
ATOM      1  C   UNL     1       5.516   2.511  -1.830  0.00  0.00    +0.035 C 
ENDROOT
BRANCH   1   7
ATOM      2  C   UNL     1       3.998   2.006  -0.014  0.00  0.00    -0.077 C 
ATOM      3  C   UNL     1       2.519   1.910   0.368  0.00  0.00    -0.006 C 
ATOM      4  C   UNL     1       1.883   3.300   0.281  0.00  0.00    +0.072 C 
ATOM      5  C   UNL     1       2.066   3.850  -1.136  0.00  0.00    -0.006 C 
ATOM      6  C   UNL     1       3.558   3.888  -1.475  0.00  0.00    -0.077 C 
ATOM      7  N   UNL     1       4.104   2.517  -1.397  0.00  0.00    +0.389 N 
ATOM      8  H   UNL     1       3.562   1.906  -2.020  0.00  0.00    -0.080 HD
BRANCH   4   9
ATOM      9  C   UNL     1       0.413   3.203   0.598  0.00  0.00    +0.219 C 
ATOM     10  O   UNL     1      -0.145   2.127   0.560  0.00  0.00    -0.275 OA
ATOM     11  N   UNL     1      -0.283   4.312   0.918  0.00  0.00    -0.301 N 
ATOM     12  C   UNL     1      -1.666   4.172   1.316  0.00  0.00    +0.108 C 
ATOM     13  C   UNL     1      -2.579   4.240   0.074  0.00  0.00    +0.019 C 
ATOM     14  C   UNL     1      -2.616   5.612  -0.457  0.00  0.00    +0.002 C 
ATOM     15  C   UNL     1      -1.268   6.132  -0.948  0.00  0.00    +0.002 C 
ATOM     16  C   UNL     1      -0.499   6.704   0.217  0.00  0.00    +0.019 C 
ATOM     17  C   UNL     1       0.397   5.620   0.843  0.00  0.00    +0.108 C 
ENDBRANCH   4   9
ENDBRANCH   1   7
BRANCH   1  21
ATOM     18  C   UNL     1       7.012  -1.485  -1.620  0.00  0.00    +0.000 A 
ATOM     19  C   UNL     1       7.816  -0.425  -1.241  0.00  0.00    +0.000 A 
ATOM     20  C   UNL     1       7.331   0.868  -1.309  0.00  0.00    +0.002 A 
ATOM     21  C   UNL     1       6.044   1.101  -1.756  0.00  0.00    -0.054 A 
ATOM     22  C   UNL     1       5.240   0.042  -2.130  0.00  0.00    +0.002 A 
ATOM     23  C   UNL     1       5.725  -1.251  -2.067  0.00  0.00    +0.000 A 
ENDBRANCH   1  21
BRANCH   1  24
ATOM     24  C   UNL     1       5.593   3.002  -3.252  0.00  0.00    +0.156 C 
ATOM     25  O   UNL     1       4.617   2.935  -3.971  0.00  0.00    -0.293 OA
BRANCH  24  26
ATOM     26  C   UNL     1       6.805   3.543  -3.751  0.00  0.00    +0.041 A 
ATOM     27  C   UNL     1       7.990   3.692  -3.063  0.00  0.00    +0.095 A 
ATOM     28  N   UNL     1       8.917   4.240  -3.872  0.00  0.00    -0.360 N 
ATOM     29  H   UNL     1       9.830   4.438  -3.610  0.00  0.00    +0.165 HD
ATOM     30  C   UNL     1       8.389   4.487  -5.123  0.00  0.00    +0.047 A 
ATOM     31  C   UNL     1       7.050   4.066  -5.110  0.00  0.00    +0.010 A 
ATOM     32  C   UNL     1       6.264   4.196  -6.251  0.00  0.00    +0.011 A 
ATOM     33  C   UNL     1       6.808   4.740  -7.395  0.00  0.00    +0.001 A 
ATOM     34  C   UNL     1       8.131   5.157  -7.410  0.00  0.00    +0.002 A 
ATOM     35  C   UNL     1       8.919   5.034  -6.287  0.00  0.00    +0.026 A 
ENDBRANCH  24  26
ENDBRANCH   1  24
TORSDOF 5
