REMARK  Name = ZINC64131761
REMARK  7 active torsions:
REMARK  status: ('A' for Active; 'I' for Inactive)
REMARK    1  A    between atoms: C_1  and  N_2
REMARK    2  A    between atoms: N_2  and  C_3
REMARK    3  A    between atoms: C_3  and  C_4
REMARK    4  A    between atoms: C_15  and  C_17
REMARK    5  A    between atoms: C_17  and  C_18
REMARK    6  A    between atoms: N_25  and  C_26
REMARK    7  A    between atoms: C_26  and  C_27
REMARK                            x       y       z     vdW  Elec       q    Type
REMARK                         _______ _______ _______ _____ _____    ______ ____
ROOT
ATOM      1  C   UNL     1       0.132   0.007  -2.309  0.00  0.00    +0.124 C 
ENDROOT
BRANCH   1   2
ATOM      2  C   UNL     1       0.265  -1.000  -3.454  0.00  0.00    +0.152 C 
ATOM      3  C   UNL     1      -1.020  -1.767  -3.595  0.00  0.00    +0.231 C 
ATOM      4  O   UNL     1      -2.069  -1.163  -3.518  0.00  0.00    -0.274 OA
ATOM      5  N   UNL     1      -1.054  -3.088  -3.802  0.00  0.00    -0.313 N 
ATOM      6  C   UNL     1       0.149  -3.911  -3.874  0.00  0.00    +0.119 C 
ATOM      7  C   UNL     1       1.373  -3.030  -4.135  0.00  0.00    +0.104 C 
ATOM      8  N   UNL     1       1.370  -1.923  -3.166  0.00  0.00    -0.285 NA
ATOM      9  H   UNL     1      -1.917  -3.518  -3.908  0.00  0.00    +0.149 HD
BRANCH   8  10
ATOM     10  C   UNL     1       2.659  -1.219  -3.171  0.00  0.00    +0.123 C 
BRANCH  10  11
ATOM     11  C   UNL     1       3.747  -2.159  -2.718  0.00  0.00    +0.005 A 
ATOM     12  C   UNL     1       4.141  -2.174  -1.393  0.00  0.00    +0.008 A 
ATOM     13  C   UNL     1       5.138  -3.036  -0.977  0.00  0.00    +0.003 A 
ATOM     14  C   UNL     1       5.743  -3.885  -1.884  0.00  0.00    +0.041 A 
ATOM     15  C   UNL     1       5.351  -3.873  -3.211  0.00  0.00    +0.159 A 
ATOM     16  C   UNL     1       4.347  -3.012  -3.628  0.00  0.00    +0.163 A 
ATOM     17  F   UNL     1       3.958  -3.002  -4.922  0.00  0.00    -0.202 F 
ATOM     18  F   UNL     1       5.943  -4.702  -4.099  0.00  0.00    -0.202 F 
ENDBRANCH  10  11
ENDBRANCH   8  10
ENDBRANCH   1   2
BRANCH   1  21
ATOM     19  C   UNL     1      -0.072   1.411   0.147  0.00  0.00    +0.132 C 
ATOM     20  N   UNL     1      -0.124  -0.053   0.150  0.00  0.00    -0.301 N 
ATOM     21  C   UNL     1      -0.083  -0.732  -1.014  0.00  0.00    +0.217 C 
ATOM     22  O   UNL     1      -0.220  -1.937  -1.018  0.00  0.00    -0.276 OA
BRANCH  20  23
ATOM     23  C   UNL     1      -0.220  -0.780   1.419  0.00  0.00    +0.154 C 
BRANCH  23  24
ATOM     24  C   UNL     1      -1.688  -0.890   1.834  0.00  0.00    +0.192 C 
ATOM     25  N   UNL     1      -2.311   0.440   1.841  0.00  0.00    -0.362 N 
ATOM     26  C   UNL     1      -3.286   0.419   0.979  0.00  0.00    +0.060 A 
ATOM     27  C   UNL     1      -4.259   1.433   0.548  0.00  0.00    +0.030 A 
ATOM     28  C   UNL     1      -5.178   1.120  -0.386  0.00  0.00    +0.040 A 
ATOM     29  C   UNL     1      -5.251  -0.157  -0.979  0.00  0.00    +0.125 A 
ATOM     30  C   UNL     1      -4.404  -1.159  -0.654  0.00  0.00    +0.065 A 
ATOM     31  C   UNL     1      -3.362  -0.929   0.353  0.00  0.00    +0.063 A 
ATOM     32  N   UNL     1      -2.430  -1.692   0.853  0.00  0.00    -0.362 N 
ATOM     33  F   UNL     1      -6.204  -0.387  -1.908  0.00  0.00    -0.205 F 
ATOM     34  H   UNL     1      -2.044   1.195   2.388  0.00  0.00    +0.162 HD
ATOM     35  H   UNL     1      -2.259  -2.617   0.620  0.00  0.00    +0.162 HD
ENDBRANCH  23  24
ENDBRANCH  20  23
ENDBRANCH   1  21
TORSDOF 6
