REMARK  Name = ZINC35807550
REMARK  4 active torsions:
REMARK  status: ('A' for Active; 'I' for Inactive)
REMARK    1  A    between atoms: C_1  and  C_2
REMARK    2  A    between atoms: C_2  and  C_3
REMARK    3  A    between atoms: C_23  and  C_31
REMARK    4  A    between atoms: C_31  and  C_33
REMARK                            x       y       z     vdW  Elec       q    Type
REMARK                         _______ _______ _______ _____ _____    ______ ____
ROOT
ATOM      1  C   UNL     1       0.768  -0.511   1.245  0.00  0.00    -0.047 A 
ATOM      2  C   UNL     1       2.131  -0.744   1.209  0.00  0.00    +0.005 A 
ATOM      3  C   UNL     1       2.786  -1.225   2.323  0.00  0.00    +0.024 A 
ATOM      4  C   UNL     1       2.079  -1.480   3.496  0.00  0.00    +0.036 A 
ATOM      5  C   UNL     1       0.709  -1.242   3.520  0.00  0.00    -0.026 A 
ATOM      6  C   UNL     1       0.059  -0.756   2.408  0.00  0.00    +0.008 A 
ATOM      7  C   UNL     1       0.246  -1.611   4.906  0.00  0.00    +0.060 C 
ATOM      8  C   UNL     1       1.496  -2.068   5.616  0.00  0.00    +0.212 C 
ATOM      9  O   UNL     1       1.574  -2.457   6.762  0.00  0.00    -0.277 OA
ATOM     10  N   UNL     1       2.507  -1.962   4.734  0.00  0.00    -0.286 N 
ATOM     11  C   UNL     1      -0.388  -0.421   5.614  0.00  0.00    +0.085 C 
ATOM     12  C   UNL     1       0.123  -0.262   7.018  0.00  0.00    -0.011 A 
ATOM     13  C   UNL     1       0.134  -1.085   8.122  0.00  0.00    +0.006 A 
ATOM     14  C   UNL     1       0.690  -0.644   9.309  0.00  0.00    +0.000 A 
ATOM     15  C   UNL     1       1.236   0.624   9.384  0.00  0.00    +0.002 A 
ATOM     16  C   UNL     1       1.228   1.452   8.281  0.00  0.00    +0.023 A 
ATOM     17  C   UNL     1       0.670   1.016   7.082  0.00  0.00    +0.038 A 
ATOM     18  N   UNL     1       0.546   1.656   5.847  0.00  0.00    -0.285 N 
ATOM     19  C   UNL     1      -0.064   0.879   4.931  0.00  0.00    +0.228 C 
ATOM     20  O   UNL     1      -0.306   1.172   3.779  0.00  0.00    -0.275 OA
ATOM     21  C   UNL     1      -1.899  -0.697   5.598  0.00  0.00    +0.069 C 
ATOM     22  C   UNL     1      -1.984  -2.231   5.519  0.00  0.00    -0.055 C 
ATOM     23  N   UNL     1      -0.748  -2.695   4.849  0.00  0.00    +0.395 N 
ATOM     24  C   UNL     1      -1.108  -2.920   3.425  0.00  0.00    -0.076 C 
ATOM     25  C   UNL     1      -2.557  -3.461   3.485  0.00  0.00    -0.020 C 
ATOM     26  C   UNL     1      -3.187  -2.655   4.666  0.00  0.00    -0.016 C 
ATOM     27  H   UNL     1       3.427  -2.193   4.936  0.00  0.00    +0.155 HD
ATOM     28  H   UNL     1       0.863   2.556   5.669  0.00  0.00    +0.155 HD
ATOM     29  H   UNL     1      -0.394  -3.534   5.284  0.00  0.00    -0.079 HD
ENDROOT
BRANCH   1  31
ATOM     30  C   UNL     1       0.067   1.543   0.047  0.00  0.00    +0.009 C 
ATOM     31  C   UNL     1       0.059   0.013   0.024  0.00  0.00    +0.032 C 
ENDBRANCH   1  31
BRANCH  21  32
ATOM     32  C   UNL     1      -2.544  -0.191   6.863  0.00  0.00    +0.201 C 
ATOM     33  O   UNL     1      -2.699  -0.940   7.807  0.00  0.00    -0.289 OA
BRANCH  32  34
ATOM     34  C   UNL     1      -2.968   1.154   6.952  0.00  0.00    +0.170 A 
ATOM     35  C   UNL     1      -3.564   1.749   8.045  0.00  0.00    +0.053 A 
ATOM     36  C   UNL     1      -3.812   3.081   7.688  0.00  0.00    +0.042 A 
ATOM     37  C   UNL     1      -3.368   3.246   6.421  0.00  0.00    +0.196 A 
ATOM     38  O   UNL     1      -2.856   2.089   5.984  0.00  0.00    -0.460 OA
ENDBRANCH  32  34
ENDBRANCH  21  32
TORSDOF 3
