REMARK  Name = ZINC09579378
REMARK  7 active torsions:
REMARK  status: ('A' for Active; 'I' for Inactive)
REMARK    1  A    between atoms: C_1  and  C_2
REMARK    2  A    between atoms: C_2  and  C_3
REMARK    3  A    between atoms: C_3  and  C_29
REMARK    4  A    between atoms: N_6  and  C_10
REMARK    5  A    between atoms: C_10  and  N_63
REMARK    6  A    between atoms: N_13  and  S_16
REMARK    7  A    between atoms: S_16  and  C_19
REMARK                            x       y       z     vdW  Elec       q    Type
REMARK                         _______ _______ _______ _____ _____    ______ ____
ROOT
ATOM      1  C   UNL     1      -0.206   7.639  -3.582  0.00  0.00    -0.059 C 
ATOM      2  C   UNL     1      -0.254   8.409  -2.257  0.00  0.00    +0.091 C 
ATOM      3  N   UNL     1       1.018   8.199  -1.549  0.00  0.00    -0.180 NA
ATOM      4  C   UNL     1       2.270   8.449  -2.280  0.00  0.00    +0.091 C 
ATOM      5  C   UNL     1       2.219   7.672  -3.605  0.00  0.00    -0.059 C 
ATOM      6  N   UNL     1       0.993   8.064  -4.335  0.00  0.00    +0.392 N 
ATOM      7  H   UNL     1       0.979   9.086  -4.436  0.00  0.00    -0.079 HD
ENDROOT
BRANCH   3   8
ATOM      8  S   UNL     1       1.040   7.702   0.030  0.00  0.00    +0.061 S 
ATOM      9  O   UNL     1      -0.205   8.088   0.595  0.00  0.00    -0.153 OA
ATOM     10  O   UNL     1       2.285   8.123   0.571  0.00  0.00    -0.153 OA
BRANCH   8  11
ATOM     11  C   UNL     1       1.064   5.940   0.022  0.00  0.00    +0.106 A 
ATOM     12  C   UNL     1       2.286   5.270   0.007  0.00  0.00    +0.029 A 
ATOM     13  C   UNL     1       2.340   3.910  -0.000  0.00  0.00    +0.010 A 
ATOM     14  C   UNL     1       1.147   3.167   0.008  0.00  0.00    -0.018 A 
ATOM     15  C   UNL     1       1.163   1.762   0.000  0.00  0.00    +0.008 A 
ATOM     16  C   UNL     1      -0.013   1.076   0.008  0.00  0.00    +0.001 A 
ATOM     17  C   UNL     1      -1.235   1.746   0.017  0.00  0.00    +0.001 A 
ATOM     18  C   UNL     1      -1.288   3.106   0.031  0.00  0.00    +0.008 A 
ATOM     19  C   UNL     1      -0.096   3.849   0.023  0.00  0.00    -0.016 A 
ATOM     20  C   UNL     1      -0.111   5.254   0.030  0.00  0.00    +0.037 A 
ENDBRANCH   8  11
ENDBRANCH   3   8
BRANCH   6  21
ATOM     21  C   UNL     1       0.989   7.450  -5.679  0.00  0.00    +0.043 C 
BRANCH  21  25
ATOM     22  C   UNL     1       2.512   9.860  -8.060  0.00  0.00    +0.138 C 
ATOM     23  C   UNL     1       1.324   9.306  -7.298  0.00  0.00    +0.249 C 
ATOM     24  O   UNL     1       0.180   9.708  -7.332  0.00  0.00    -0.272 OA
ATOM     25  N   UNL     1       1.803   8.277  -6.572  0.00  0.00    -0.241 N 
ATOM     26  C   UNL     1       3.114   8.100  -6.774  0.00  0.00    +0.308 C 
ATOM     27  O   UNL     1       3.769   7.230  -6.234  0.00  0.00    -0.252 OA
ATOM     28  N   UNL     1       3.626   8.991  -7.642  0.00  0.00    -0.281 N 
ATOM     29  H   UNL     1       4.549   9.051  -7.934  0.00  0.00    +0.152 HD
BRANCH  22  30
ATOM     30  C   UNL     1       2.282   9.749  -9.545  0.00  0.00    -0.015 A 
ATOM     31  C   UNL     1       1.764  10.822 -10.246  0.00  0.00    +0.006 A 
ATOM     32  C   UNL     1       1.557  10.722 -11.609  0.00  0.00    +0.000 A 
ATOM     33  C   UNL     1       1.859   9.546 -12.270  0.00  0.00    +0.000 A 
ATOM     34  C   UNL     1       2.372   8.471 -11.568  0.00  0.00    +0.000 A 
ATOM     35  C   UNL     1       2.583   8.573 -10.205  0.00  0.00    +0.006 A 
ENDBRANCH  22  30
BRANCH  22  37
ATOM     36  C   UNL     1       3.084  11.387  -6.167  0.00  0.00    +0.007 C 
ATOM     37  C   UNL     1       2.784  11.313  -7.665  0.00  0.00    +0.037 C 
ENDBRANCH  22  37
ENDBRANCH  21  25
ENDBRANCH   6  21
TORSDOF 6
