REMARK  Name = ZINC13681583
REMARK  7 active torsions:
REMARK  status: ('A' for Active; 'I' for Inactive)
REMARK    1  A    between atoms: C_4  and  C_7
REMARK    2  A    between atoms: C_7  and  C_8
REMARK    3  A    between atoms: C_7  and  N_14
REMARK    4  A    between atoms: C_15  and  C_17
REMARK    5  A    between atoms: N_22  and  S_24
REMARK    6  A    between atoms: S_24  and  C_27
REMARK    7  A    between atoms: C_27  and  C_28
REMARK                            x       y       z     vdW  Elec       q    Type
REMARK                         _______ _______ _______ _____ _____    ______ ____
ROOT
ATOM      1  C   UNL     1      -0.729   1.579   1.268  0.00  0.00    +0.091 C 
ATOM      2  C   UNL     1      -0.013   1.086   0.008  0.00  0.00    +0.015 C 
ATOM      3  C   UNL     1      -0.752   1.593  -1.232  0.00  0.00    +0.018 C 
ATOM      4  C   UNL     1      -2.178   1.033  -1.236  0.00  0.00    +0.109 C 
ATOM      5  N   UNL     1      -2.826   1.380   0.037  0.00  0.00    -0.180 NA
ATOM      6  C   UNL     1      -2.154   1.019   1.293  0.00  0.00    +0.121 C 
ENDROOT
BRANCH   1   8
ATOM      7  N   UNL     1       1.301   1.475   2.678  0.00  0.00    -0.304 N 
ATOM      8  C   UNL     1       0.018   1.107   2.488  0.00  0.00    +0.218 C 
ATOM      9  O   UNL     1      -0.534   0.395   3.300  0.00  0.00    -0.275 OA
ATOM     10  H   UNL     1       1.743   2.044   2.029  0.00  0.00    +0.150 HD
BRANCH   7  11
ATOM     11  C   UNL     1       2.027   1.016   3.864  0.00  0.00    +0.134 C 
BRANCH  11  15
ATOM     12  C   UNL     1       3.676  -2.853   3.115  0.00  0.00    +0.000 A 
ATOM     13  C   UNL     1       3.123  -2.564   4.349  0.00  0.00    +0.000 A 
ATOM     14  C   UNL     1       2.590  -1.312   4.591  0.00  0.00    +0.006 A 
ATOM     15  C   UNL     1       2.609  -0.349   3.600  0.00  0.00    -0.023 A 
ATOM     16  C   UNL     1       3.158  -0.639   2.365  0.00  0.00    +0.006 A 
ATOM     17  C   UNL     1       3.696  -1.890   2.124  0.00  0.00    +0.000 A 
ENDBRANCH  11  15
BRANCH  11  18
ATOM     18  C   UNL     1       3.139   1.984   4.179  0.00  0.00    -0.023 A 
ATOM     19  C   UNL     1       3.887   2.533   3.155  0.00  0.00    +0.006 A 
ATOM     20  C   UNL     1       4.904   3.424   3.443  0.00  0.00    +0.000 A 
ATOM     21  C   UNL     1       5.178   3.758   4.756  0.00  0.00    +0.000 A 
ATOM     22  C   UNL     1       4.433   3.205   5.780  0.00  0.00    +0.000 A 
ATOM     23  C   UNL     1       3.414   2.317   5.492  0.00  0.00    +0.006 A 
ENDBRANCH  11  18
ENDBRANCH   7  11
ENDBRANCH   1   8
BRANCH   5  24
ATOM     24  S   UNL     1      -4.285   2.163   0.055  0.00  0.00    +0.036 S 
ATOM     25  O   UNL     1      -4.308   2.859   1.294  0.00  0.00    -0.158 OA
ATOM     26  O   UNL     1      -4.332   2.872  -1.175  0.00  0.00    -0.158 OA
BRANCH  24  27
ATOM     27  C   UNL     1      -5.524   0.838   0.060  0.00  0.00    +0.220 C 
BRANCH  27  28
ATOM     28  C   UNL     1      -6.905   1.442   0.077  0.00  0.00    -0.024 A 
ATOM     29  C   UNL     1      -7.529   1.708   1.282  0.00  0.00    +0.007 A 
ATOM     30  C   UNL     1      -8.792   2.267   1.299  0.00  0.00    +0.022 A 
ATOM     31  C   UNL     1      -9.439   2.550   0.109  0.00  0.00    +0.059 A 
ATOM     32  C   UNL     1      -8.817   2.280  -1.098  0.00  0.00    +0.060 A 
ATOM     33  C   UNL     1      -7.549   1.725  -1.113  0.00  0.00    +0.026 A 
ATOM     34 CL   UNL     1      -9.626   2.636  -2.591  0.00  0.00    -0.082 Cl
ATOM     35 CL   UNL     1     -11.029   3.247   0.129  0.00  0.00    -0.082 Cl
ENDBRANCH  27  28
ENDBRANCH  24  27
ENDBRANCH   5  24
TORSDOF 7
