REMARK  Name = ZINC40004225
REMARK  10 active torsions:
REMARK  status: ('A' for Active; 'I' for Inactive)
REMARK    1  A    between atoms: C_1  and  C_2
REMARK    2  A    between atoms: C_2  and  O_3
REMARK    3  A    between atoms: O_3  and  C_4
REMARK    4  A    between atoms: C_6  and  C_18
REMARK    5  A    between atoms: C_9  and  O_10
REMARK    6  A    between atoms: O_10  and  C_11
REMARK    7  A    between atoms: C_11  and  C_12
REMARK    8  A    between atoms: N_22  and  N_26
REMARK    9  A    between atoms: C_27  and  C_29
REMARK   10  A    between atoms: C_34  and  O_35
REMARK                            x       y       z     vdW  Elec       q    Type
REMARK                         _______ _______ _______ _____ _____    ______ ____
ROOT
ATOM      1  C   UNL     1      -0.207  -4.963   0.442  0.00  0.00    +0.028 C 
ATOM      2  C   UNL     1      -0.751  -6.145   0.054  0.00  0.00    +0.079 C 
ATOM      3  C   UNL     1      -1.461  -7.162   0.855  0.00  0.00    +0.275 C 
ATOM      4  O   UNL     1      -1.643  -7.022   2.050  0.00  0.00    -0.267 OA
ATOM      5  N   UNL     1      -1.891  -8.232   0.207  0.00  0.00    -0.169 N 
ATOM      6  C   UNL     1      -1.688  -8.383  -1.117  0.00  0.00    +0.138 C 
ATOM      7  S   UNL     1      -2.162  -9.683  -2.125  0.00  0.00    -0.026 S 
ATOM      8  S   UNL     1      -0.810  -6.894  -1.568  0.00  0.00    -0.059 S 
ENDROOT
BRANCH   1  11
ATOM      9  C   UNL     1       1.623  -2.097  -1.140  0.00  0.00    +0.162 A 
ATOM     10  C   UNL     1       0.867  -2.829  -0.245  0.00  0.00    +0.057 A 
ATOM     11  C   UNL     1       0.595  -4.178  -0.505  0.00  0.00    -0.020 A 
ATOM     12  C   UNL     1       1.091  -4.777  -1.670  0.00  0.00    +0.012 A 
ATOM     13  C   UNL     1       1.844  -4.038  -2.556  0.00  0.00    +0.050 A 
ATOM     14  C   UNL     1       2.109  -2.699  -2.300  0.00  0.00    +0.162 A 
BRANCH   9  15
ATOM     15  O   UNL     1       1.890  -0.787  -0.891  0.00  0.00    -0.489 OA
BRANCH  15  17
ATOM     16  C   UNL     1       1.761   1.238   0.422  0.00  0.00    +0.048 C 
ATOM     17  C   UNL     1       1.361  -0.235   0.317  0.00  0.00    +0.226 C 
ENDBRANCH  15  17
ENDBRANCH   9  15
BRANCH  14  18
ATOM     18  O   UNL     1       2.847  -1.974  -3.181  0.00  0.00    -0.484 OA
BRANCH  18  19
ATOM     19  C   UNL     1       3.313  -2.652  -4.349  0.00  0.00    +0.264 C 
BRANCH  19  20
ATOM     20  C   UNL     1       4.107  -1.697  -5.201  0.00  0.00    -0.010 A 
ATOM     21  C   UNL     1       3.471  -0.942  -6.169  0.00  0.00    +0.007 A 
ATOM     22  C   UNL     1       4.200  -0.065  -6.951  0.00  0.00    +0.000 A 
ATOM     23  C   UNL     1       5.564   0.057  -6.765  0.00  0.00    +0.000 A 
ATOM     24  C   UNL     1       6.200  -0.698  -5.797  0.00  0.00    +0.000 A 
ATOM     25  C   UNL     1       5.471  -1.571  -5.012  0.00  0.00    +0.007 A 
ENDBRANCH  19  20
ENDBRANCH  18  19
ENDBRANCH  14  18
ENDBRANCH   1  11
BRANCH   5  26
ATOM     26  N   UNL     1      -2.572  -9.232   0.913  0.00  0.00    -0.222 N 
ATOM     27  C   UNL     1      -3.909  -9.353   0.790  0.00  0.00    +0.264 C 
ATOM     28  O   UNL     1      -4.523  -8.595   0.065  0.00  0.00    -0.269 OA
ATOM     29  H   UNL     1      -2.082  -9.837   1.492  0.00  0.00    +0.174 HD
BRANCH  27  30
ATOM     30  C   UNL     1      -4.626 -10.406   1.533  0.00  0.00    +0.079 A 
ATOM     31  C   UNL     1      -3.925 -11.276   2.372  0.00  0.00    +0.017 A 
ATOM     32  C   UNL     1      -4.601 -12.258   3.063  0.00  0.00    +0.001 A 
ATOM     33  C   UNL     1      -5.974 -12.386   2.932  0.00  0.00    +0.004 A 
ATOM     34  C   UNL     1      -6.679 -11.533   2.107  0.00  0.00    +0.046 A 
ATOM     35  C   UNL     1      -6.016 -10.536   1.407  0.00  0.00    +0.129 A 
BRANCH  35  36
ATOM     36  O   UNL     1      -6.708  -9.693   0.601  0.00  0.00    -0.506 OA
ATOM     37  H   UNL     1      -6.796 -10.004  -0.310  0.00  0.00    +0.292 HD
ENDBRANCH  35  36
ENDBRANCH  27  30
ENDBRANCH   5  26
TORSDOF 9
