REMARK  Name = ZINC25259742
REMARK  8 active torsions:
REMARK  status: ('A' for Active; 'I' for Inactive)
REMARK    1  A    between atoms: C_1  and  C_2
REMARK    2  A    between atoms: C_2  and  C_3
REMARK    3  A    between atoms: C_3  and  C_5
REMARK    4  A    between atoms: C_3  and  C_6
REMARK    5  A    between atoms: C_6  and  C_8
REMARK    6  A    between atoms: C_6  and  N_23
REMARK    7  A    between atoms: N_10  and  N_11
REMARK    8  A    between atoms: C_12  and  C_14
REMARK                            x       y       z     vdW  Elec       q    Type
REMARK                         _______ _______ _______ _____ _____    ______ ____
ROOT
ATOM      1  C   UNL     1       7.186  -3.103   3.878  0.00  0.00    +0.250 C 
ATOM      2  O   UNL     1       6.447  -4.065   3.878  0.00  0.00    -0.272 OA
ATOM      3  N   UNL     1       6.773  -1.935   3.347  0.00  0.00    -0.233 N 
ATOM      4  H   UNL     1       7.444  -1.063   3.347  0.00  0.00    +0.173 HD
ENDROOT
BRANCH   3   5
ATOM      5  N   UNL     1       5.489  -1.832   2.795  0.00  0.00    -0.230 N 
ATOM      6  C   UNL     1       5.076  -0.664   2.264  0.00  0.00    +0.260 C 
ATOM      7  O   UNL     1       5.817   0.300   2.264  0.00  0.00    -0.269 OA
ATOM      8  H   UNL     1       4.819  -2.704   2.795  0.00  0.00    +0.173 HD
BRANCH   6   9
ATOM      9  C   UNL     1       3.724  -0.555   1.683  0.00  0.00    +0.042 A 
ATOM     10  C   UNL     1       2.871  -1.661   1.682  0.00  0.00    +0.017 A 
ATOM     11  C   UNL     1       1.609  -1.558   1.138  0.00  0.00    +0.050 A 
ATOM     12  C   UNL     1       1.181  -0.356   0.590  0.00  0.00    +0.166 A 
ATOM     13  C   UNL     1       2.028   0.752   0.588  0.00  0.00    +0.167 A 
ATOM     14  C   UNL     1       3.294   0.655   1.132  0.00  0.00    +0.062 A 
ATOM     15  O   UNL     1       1.376   1.797  -0.001  0.00  0.00    -0.453 OA
ATOM     16  C   UNL     1      -0.017   1.435   0.010  0.00  0.00    +0.466 C 
ATOM     17  O   UNL     1       0.002  -0.004   0.002  0.00  0.00    -0.453 OA
ENDBRANCH   6   9
ENDBRANCH   3   5
BRANCH   1  18
ATOM     18  C   UNL     1       8.567  -3.215   4.472  0.00  0.00    +0.165 C 
BRANCH  18  19
ATOM     19  N   UNL     1       8.617  -4.363   5.380  0.00  0.00    -0.288 N 
ATOM     20  C   UNL     1       8.362  -5.602   4.914  0.00  0.00    +0.298 C 
ATOM     21  O   UNL     1       8.090  -5.766   3.741  0.00  0.00    -0.253 OA
ATOM     22  N   UNL     1       8.408  -6.658   5.750  0.00  0.00    -0.313 N 
ATOM     23  H   UNL     1       8.863  -4.214   6.442  0.00  0.00    +0.151 HD
ATOM     24  H   UNL     1       8.200  -7.669   5.370  0.00  0.00    +0.146 HD
ATOM     25  H   UNL     1       8.653  -6.510   6.812  0.00  0.00    +0.146 HD
ENDBRANCH  18  19
BRANCH  18  26
ATOM     26  C   UNL     1       9.590  -3.406   3.351  0.00  0.00    +0.015 C 
ATOM     27  C   UNL     1       9.538  -2.207   2.402  0.00  0.00    +0.010 C 
BRANCH  26  29
ATOM     28  C   UNL     1      11.999  -3.834   2.846  0.00  0.00    +0.004 C 
ATOM     29  C   UNL     1      10.992  -3.519   3.953  0.00  0.00    +0.002 C 
ENDBRANCH  26  29
ENDBRANCH  18  26
ENDBRANCH   1  18
TORSDOF 6
