REMARK  Name = ZINC59891040
REMARK  16 active torsions:
REMARK  status: ('A' for Active; 'I' for Inactive)
REMARK    1  A    between atoms: C_1  and  C_2
REMARK    2  A    between atoms: C_2  and  C_3
REMARK    3  A    between atoms: C_3  and  C_4
REMARK    4  A    between atoms: C_4  and  C_5
REMARK    5  A    between atoms: C_5  and  C_32
REMARK    6  A    between atoms: N_6  and  N_7
REMARK    7  A    between atoms: C_10  and  S_13
REMARK    8  A    between atoms: S_13  and  C_14
REMARK    9  A    between atoms: C_14  and  C_15
REMARK   10  A    between atoms: N_17  and  C_18
REMARK   11  A    between atoms: C_21  and  S_24
REMARK   12  A    between atoms: S_24  and  N_27
REMARK   13  A    between atoms: N_27  and  C_28
REMARK   14  A    between atoms: C_28  and  C_29
REMARK   15  A    between atoms: C_28  and  C_30
REMARK   16  A    between atoms: C_28  and  C_31
REMARK                            x       y       z     vdW  Elec       q    Type
REMARK                         _______ _______ _______ _____ _____    ______ ____
ROOT
ATOM      1  C   UNL     1       8.661  -8.775  -0.123  0.00  0.00    +0.227 C 
ATOM      2  O   UNL     1       8.797  -9.166   1.017  0.00  0.00    -0.275 OA
ATOM      3  N   UNL     1       9.741  -8.607  -0.912  0.00  0.00    -0.285 N 
ATOM      4  H   UNL     1       9.627  -8.361  -1.843  0.00  0.00    +0.155 HD
ENDROOT
BRANCH   3   5
ATOM      5  C   UNL     1      11.025  -8.787  -0.387  0.00  0.00    +0.034 A 
ATOM      6  C   UNL     1      12.072  -7.982  -0.818  0.00  0.00    +0.025 A 
ATOM      7  C   UNL     1      13.339  -8.163  -0.298  0.00  0.00    +0.030 A 
ATOM      8  C   UNL     1      13.565  -9.143   0.651  0.00  0.00    +0.105 A 
ATOM      9  C   UNL     1      12.525  -9.946   1.081  0.00  0.00    +0.030 A 
ATOM     10  C   UNL     1      11.255  -9.767   0.570  0.00  0.00    +0.025 A 
BRANCH   8  11
ATOM     11  S   UNL     1      15.183  -9.370   1.311  0.00  0.00    +0.059 S 
ATOM     12  O   UNL     1      15.155 -10.586   2.046  0.00  0.00    -0.153 OA
ATOM     13  O   UNL     1      16.093  -9.146   0.243  0.00  0.00    -0.153 OA
BRANCH  11  14
ATOM     14  N   UNL     1      15.437  -8.158   2.411  0.00  0.00    -0.185 NA
ATOM     15  H   UNL     1      16.028  -7.421   2.192  0.00  0.00    +0.149 HD
BRANCH  14  16
ATOM     16  C   UNL     1      14.769  -8.200   3.714  0.00  0.00    +0.032 C 
ATOM     17  C   UNL     1      15.316  -9.372   4.531  0.00  0.00    +0.029 C 
ATOM     18  C   UNL     1      15.030  -6.891   4.463  0.00  0.00    +0.029 C 
ATOM     19  C   UNL     1      13.263  -8.379   3.510  0.00  0.00    +0.029 C 
ENDBRANCH  14  16
ENDBRANCH  11  14
ENDBRANCH   8  11
ENDBRANCH   3   5
BRANCH   1  20
ATOM     20  C   UNL     1       7.284  -8.477  -0.657  0.00  0.00    +0.173 C 
BRANCH  20  21
ATOM     21  S   UNL     1       6.051  -8.800   0.634  0.00  0.00    -0.075 S 
BRANCH  21  25
ATOM     22  N   UNL     1       1.021  -8.092  -0.170  0.00  0.00    -0.205 N 
ATOM     23  C   UNL     1       2.382  -8.130  -0.414  0.00  0.00    +0.232 A 
ATOM     24  N   UNL     1       3.312  -8.497   0.442  0.00  0.00    -0.186 NA
ATOM     25  C   UNL     1       4.515  -8.409  -0.136  0.00  0.00    +0.211 A 
ATOM     26  N   UNL     1       4.366  -7.985  -1.368  0.00  0.00    -0.144 NA
ATOM     27  N   UNL     1       2.989  -7.803  -1.575  0.00  0.00    -0.245 N 
ATOM     28  H   UNL     1       0.410  -7.811  -0.869  0.00  0.00    +0.177 HD
ATOM     29  H   UNL     1       2.559  -7.499  -2.389  0.00  0.00    +0.192 HD
BRANCH  22  31
ATOM     30  C   UNL     1      -0.736  -8.426   1.313  0.00  0.00    +0.034 C 
ATOM     31  N   UNL     1       0.524  -8.461   1.087  0.00  0.00    -0.189 NA
ATOM     32  C   UNL     1      -1.684  -7.989   0.227  0.00  0.00    +0.062 C 
BRANCH  30  33
ATOM     33  C   UNL     1      -1.270  -8.823   2.665  0.00  0.00    +0.052 C 
BRANCH  33  34
ATOM     34  C   UNL     1      -1.911  -7.607   3.337  0.00  0.00    +0.006 C 
BRANCH  34  36
ATOM     35  C   UNL     1      -3.095  -6.794   5.381  0.00  0.00    +0.004 C 
ATOM     36  C   UNL     1      -2.454  -8.010   4.710  0.00  0.00    -0.003 C 
ENDBRANCH  34  36
ENDBRANCH  33  34
ENDBRANCH  30  33
ENDBRANCH  22  31
ENDBRANCH  21  25
ENDBRANCH  20  21
ENDBRANCH   1  20
TORSDOF 11
