REMARK  Name = ZINC39707816
REMARK  7 active torsions:
REMARK  status: ('A' for Active; 'I' for Inactive)
REMARK    1  A    between atoms: C_1  and  C_2
REMARK    2  A    between atoms: C_5  and  N_9
REMARK    3  A    between atoms: C_7  and  C_8
REMARK    4  A    between atoms: C_10  and  C_12
REMARK    5  A    between atoms: C_12  and  C_14
REMARK    6  A    between atoms: C_12  and  S_15
REMARK    7  A    between atoms: S_15  and  C_16
REMARK                            x       y       z     vdW  Elec       q    Type
REMARK                         _______ _______ _______ _____ _____    ______ ____
ROOT
ATOM      1  S   UNL     1       0.473  -6.986  -2.771  0.00  0.00    -0.072 S 
ENDROOT
BRANCH   1   2
ATOM      2  C   UNL     1       0.440  -8.735  -2.561  0.00  0.00    +0.208 C 
ATOM      3  N   UNL     1       0.019  -9.212  -1.415  0.00  0.00    -0.227 NA
ATOM      4  C   UNL     1       0.068 -10.659  -1.221  0.00  0.00    +0.252 C 
ATOM      5  C   UNL     1      -0.070 -11.281  -2.603  0.00  0.00    +0.117 C 
ATOM      6  C   UNL     1      -1.033 -12.236  -2.480  0.00  0.00    +0.025 A 
ATOM      7  C   UNL     1      -1.524 -13.214  -3.380  0.00  0.00    +0.012 A 
ATOM      8  C   UNL     1      -2.525 -14.023  -2.939  0.00  0.00    +0.001 A 
ATOM      9  C   UNL     1      -3.093 -13.948  -1.664  0.00  0.00    +0.002 A 
ATOM     10  C   UNL     1      -2.697 -13.055  -0.719  0.00  0.00    +0.026 A 
ATOM     11  C   UNL     1      -1.610 -12.139  -1.104  0.00  0.00    +0.046 A 
ATOM     12  N   UNL     1      -1.017 -11.209  -0.420  0.00  0.00    -0.358 N 
ATOM     13  N   UNL     1       0.581 -10.779  -3.657  0.00  0.00    -0.147 NA
ATOM     14  N   UNL     1       0.846  -9.511  -3.596  0.00  0.00    -0.122 NA
ATOM     15  H   UNL     1      -1.256 -10.926   0.476  0.00  0.00    +0.162 HD
ENDBRANCH   1   2
BRANCH   1  16
ATOM     16  C   UNL     1      -0.134  -6.343  -1.187  0.00  0.00    +0.137 C 
ATOM     17  C   UNL     1      -1.592  -6.763  -0.991  0.00  0.00    +0.029 C 
BRANCH  16  19
ATOM     18  N   UNL     1       0.059  -4.170  -0.021  0.00  0.00    -0.285 N 
ATOM     19  C   UNL     1      -0.040  -4.839  -1.187  0.00  0.00    +0.230 C 
ATOM     20  O   UNL     1      -0.054  -4.230  -2.236  0.00  0.00    -0.274 OA
ATOM     21  H   UNL     1       0.147  -4.658   0.812  0.00  0.00    +0.155 HD
BRANCH  18  26
ATOM     22  C   UNL     1      -0.041   1.502   0.014  0.00  0.00    +0.044 C 
ATOM     23  C   UNL     1      -0.015  -0.004   0.004  0.00  0.00    -0.047 A 
ATOM     24  C   UNL     1      -0.752  -0.702  -0.935  0.00  0.00    +0.005 A 
ATOM     25  C   UNL     1      -0.730  -2.082  -0.946  0.00  0.00    +0.023 A 
ATOM     26  C   UNL     1       0.034  -2.771  -0.013  0.00  0.00    +0.034 A 
ATOM     27  C   UNL     1       0.773  -2.068   0.929  0.00  0.00    +0.027 A 
ATOM     28  C   UNL     1       0.751  -0.686   0.932  0.00  0.00    -0.046 A 
ATOM     29  C   UNL     1       1.557   0.078   1.950  0.00  0.00    +0.044 C 
ENDBRANCH  18  26
ENDBRANCH  16  19
ENDBRANCH   1  16
TORSDOF 4
