REMARK  Name = ZINC11035066
REMARK  15 active torsions:
REMARK  status: ('A' for Active; 'I' for Inactive)
REMARK    1  A    between atoms: C_1  and  C_2
REMARK    2  A    between atoms: C_2  and  C_3
REMARK    3  A    between atoms: C_3  and  C_4
REMARK    4  A    between atoms: C_4  and  N_5
REMARK    5  A    between atoms: C_6  and  N_30
REMARK    6  A    between atoms: C_7  and  N_14
REMARK    7  A    between atoms: N_14  and  C_15
REMARK    8  A    between atoms: C_15  and  C_16
REMARK    9  A    between atoms: C_17  and  C_19
REMARK   10  A    between atoms: C_19  and  N_63
REMARK   11  A    between atoms: C_20  and  C_21
REMARK   12  A    between atoms: C_20  and  N_63
REMARK   13  A    between atoms: C_27  and  C_28
REMARK   14  A    between atoms: C_27  and  C_29
REMARK   15  A    between atoms: C_27  and  N_63
REMARK                            x       y       z     vdW  Elec       q    Type
REMARK                         _______ _______ _______ _____ _____    ______ ____
ROOT
ATOM      1  N   UNL     1       2.240  -3.022   3.163  0.00  0.00    -0.266 N 
ATOM      2  C   UNL     1       1.290  -2.082   2.981  0.00  0.00    +0.203 C 
ATOM      3  O   UNL     1       0.936  -1.389   3.911  0.00  0.00    -0.277 OA
ENDROOT
BRANCH   1   6
ATOM      4  N   UNL     1       3.934  -2.591   6.396  0.00  0.00    -0.280 N 
ATOM      5  C   UNL     1       3.459  -2.313   5.135  0.00  0.00    +0.127 A 
ATOM      6  C   UNL     1       2.741  -3.277   4.458  0.00  0.00    +0.140 A 
ATOM      7  C   UNL     1       2.511  -4.517   5.083  0.00  0.00    +0.277 A 
ATOM      8  O   UNL     1       1.874  -5.385   4.510  0.00  0.00    -0.266 OA
ATOM      9  N   UNL     1       3.003  -4.740   6.317  0.00  0.00    -0.273 N 
ATOM     10  H   UNL     1       2.847  -5.624   6.759  0.00  0.00    +0.173 HD
ATOM     11  C   UNL     1       3.701  -3.789   6.962  0.00  0.00    +0.331 A 
ATOM     12  O   UNL     1       4.130  -4.016   8.077  0.00  0.00    -0.246 OA
BRANCH   5  13
ATOM     13  N   UNL     1       3.698  -1.089   4.556  0.00  0.00    -0.343 N 
ATOM     14  H   UNL     1       3.332  -0.887   3.681  0.00  0.00    +0.144 HD
ATOM     15  H   UNL     1       4.233  -0.428   5.023  0.00  0.00    +0.144 HD
ENDBRANCH   5  13
BRANCH   4  16
ATOM     16  C   UNL     1       4.698  -1.577   7.126  0.00  0.00    +0.128 C 
BRANCH  16  17
ATOM     17  C   UNL     1       3.742  -0.715   7.953  0.00  0.00    +0.021 C 
BRANCH  17  19
ATOM     18  C   UNL     1       3.583   1.206   9.543  0.00  0.00    +0.004 C 
ATOM     19  C   UNL     1       4.540   0.344   8.716  0.00  0.00    -0.002 C 
ENDBRANCH  17  19
ENDBRANCH  16  17
ENDBRANCH   4  16
ENDBRANCH   1   6
BRANCH   1  20
ATOM     20  C   UNL     1       2.753  -3.779   2.018  0.00  0.00    +0.110 C 
ATOM     21  C   UNL     1       4.021  -3.106   1.489  0.00  0.00    +0.025 C 
ENDBRANCH   1  20
BRANCH   2  22
ATOM     22  C   UNL     1       0.669  -1.893   1.621  0.00  0.00    +0.020 C 
BRANCH  22  23
ATOM     23  N   UNL     1      -0.438  -0.921   1.739  0.00  0.00    +0.390 N 
ATOM     24  H   UNL     1      -0.182  -0.206   2.429  0.00  0.00    -0.080 HD
BRANCH  23  25
ATOM     25  C   UNL     1      -1.667  -1.607   2.192  0.00  0.00    -0.074 C 
ATOM     26  C   UNL     1      -1.978  -2.802   1.288  0.00  0.00    -0.013 C 
ATOM     27  C   UNL     1      -1.460  -2.094   3.627  0.00  0.00    -0.013 C 
ENDBRANCH  23  25
BRANCH  23  28
ATOM     28  C   UNL     1      -0.677  -0.266   0.435  0.00  0.00    -0.042 C 
BRANCH  28  29
ATOM     29  C   UNL     1      -1.526   0.959   0.657  0.00  0.00    -0.064 A 
ATOM     30  C   UNL     1      -2.895   0.893   0.472  0.00  0.00    +0.002 A 
ATOM     31  C   UNL     1      -3.675   2.015   0.680  0.00  0.00    +0.000 A 
ATOM     32  C   UNL     1      -3.085   3.206   1.063  0.00  0.00    +0.000 A 
ATOM     33  C   UNL     1      -1.716   3.272   1.243  0.00  0.00    +0.000 A 
ATOM     34  C   UNL     1      -0.937   2.149   1.040  0.00  0.00    +0.002 A 
ENDBRANCH  28  29
ENDBRANCH  23  28
ENDBRANCH  22  23
ENDBRANCH   2  22
TORSDOF 11
