REMARK  Name = ZINC38683761
REMARK  17 active torsions:
REMARK  status: ('A' for Active; 'I' for Inactive)
REMARK    1  A    between atoms: C_1  and  C_2
REMARK    2  A    between atoms: C_2  and  C_3
REMARK    3  A    between atoms: C_3  and  O_4
REMARK    4  A    between atoms: O_4  and  C_5
REMARK    5  A    between atoms: C_8  and  C_14
REMARK    6  A    between atoms: C_10  and  O_11
REMARK    7  A    between atoms: O_11  and  C_12
REMARK    8  A    between atoms: C_12  and  C_13
REMARK    9  A    between atoms: C_19  and  O_28
REMARK   10  A    between atoms: C_23  and  N_27
REMARK   11  A    between atoms: C_24  and  C_25
REMARK   12  A    between atoms: O_28  and  C_29
REMARK   13  A    between atoms: C_29  and  C_31
REMARK   14  A    between atoms: C_34  and  C_37
REMARK   15  A    between atoms: C_37  and  C_38
REMARK   16  A    between atoms: C_37  and  C_39
REMARK   17  A    between atoms: C_37  and  C_40
REMARK                            x       y       z     vdW  Elec       q    Type
REMARK                         _______ _______ _______ _____ _____    ______ ____
ROOT
ATOM      1  C   UNL     1       3.366  -4.541   5.521  0.00  0.00    +0.098 C 
ATOM      2  C   UNL     1       4.805  -4.098   5.564  0.00  0.00    +0.008 A 
ATOM      3  C   UNL     1       5.727  -4.699   4.726  0.00  0.00    +0.012 A 
ATOM      4  C   UNL     1       7.051  -4.305   4.750  0.00  0.00    +0.047 A 
ATOM      5  C   UNL     1       7.460  -3.303   5.619  0.00  0.00    +0.135 A 
ATOM      6  C   UNL     1       6.539  -2.699   6.459  0.00  0.00    +0.093 A 
ATOM      7  C   UNL     1       5.208  -3.096   6.433  0.00  0.00    +0.138 A 
ATOM      8  O   UNL     1       4.319  -2.495   7.262  0.00  0.00    -0.441 OA
ATOM      9  C   UNL     1       3.150  -3.095   7.539  0.00  0.00    +0.199 C 
ATOM     10  C   UNL     1       2.645  -4.071   6.753  0.00  0.00    +0.098 C 
ENDROOT
BRANCH   1  14
ATOM     11  C   UNL     1       1.479  -2.888   2.058  0.00  0.00    +0.162 A 
ATOM     12  C   UNL     1       2.021  -2.051   3.021  0.00  0.00    +0.050 A 
ATOM     13  C   UNL     1       2.630  -2.589   4.140  0.00  0.00    +0.008 A 
ATOM     14  C   UNL     1       2.701  -3.960   4.300  0.00  0.00    -0.031 A 
ATOM     15  C   UNL     1       2.163  -4.800   3.343  0.00  0.00    +0.054 A 
ATOM     16  C   UNL     1       1.546  -4.268   2.222  0.00  0.00    +0.162 A 
BRANCH  11  17
ATOM     17  O   UNL     1       0.879  -2.360   0.957  0.00  0.00    -0.488 OA
BRANCH  17  18
ATOM     18  C   UNL     1       0.848  -0.935   0.855  0.00  0.00    +0.229 C 
BRANCH  18  20
ATOM     19  C   UNL     1       0.106   0.994  -0.548  0.00  0.00    +0.007 C 
ATOM     20  C   UNL     1       0.139  -0.532  -0.439  0.00  0.00    +0.038 C 
ENDBRANCH  18  20
ENDBRANCH  17  18
ENDBRANCH  11  17
BRANCH  16  21
ATOM     21  O   UNL     1       1.011  -5.092   1.282  0.00  0.00    -0.489 OA
BRANCH  21  22
ATOM     22  C   UNL     1       1.116  -6.498   1.517  0.00  0.00    +0.226 C 
ATOM     23  C   UNL     1       0.462  -7.258   0.362  0.00  0.00    +0.048 C 
ENDBRANCH  21  22
ENDBRANCH  16  21
ENDBRANCH   1  14
BRANCH   9  24
ATOM     24  N   UNL     1       2.448  -2.706   8.652  0.00  0.00    -0.328 N 
ATOM     25  H   UNL     1       2.799  -2.006   9.226  0.00  0.00    +0.145 HD
ATOM     26  H   UNL     1       1.602  -3.130   8.866  0.00  0.00    +0.145 HD
ENDBRANCH   9  24
BRANCH  10  27
ATOM     27  C   UNL     1       1.392  -4.670   7.103  0.00  0.00    +0.101 C 
ATOM     28  N   UNL     1       0.399  -5.145   7.381  0.00  0.00    -0.191 NA
ENDBRANCH  10  27
BRANCH   5  29
ATOM     29  O   UNL     1       8.762  -2.914   5.645  0.00  0.00    -0.422 OA
BRANCH  29  30
ATOM     30  C   UNL     1       9.246  -2.252   4.577  0.00  0.00    +0.344 C 
ATOM     31  O   UNL     1       8.500  -1.927   3.674  0.00  0.00    -0.245 OA
BRANCH  30  32
ATOM     32  C   UNL     1      10.684  -1.921   4.502  0.00  0.00    +0.059 A 
ATOM     33  C   UNL     1      11.545  -2.298   5.534  0.00  0.00    +0.015 A 
ATOM     34  C   UNL     1      12.886  -1.986   5.458  0.00  0.00    +0.005 A 
ATOM     35  C   UNL     1      13.379  -1.302   4.361  0.00  0.00    -0.042 A 
ATOM     36  C   UNL     1      12.532  -0.925   3.335  0.00  0.00    +0.005 A 
ATOM     37  C   UNL     1      11.189  -1.235   3.396  0.00  0.00    +0.015 A 
BRANCH  35  38
ATOM     38  C   UNL     1      14.846  -0.964   4.285  0.00  0.00    -0.013 C 
ATOM     39  C   UNL     1      15.668  -2.254   4.318  0.00  0.00    +0.015 C 
ATOM     40  C   UNL     1      15.129  -0.212   2.983  0.00  0.00    +0.015 C 
ATOM     41  C   UNL     1      15.229  -0.084   5.476  0.00  0.00    +0.015 C 
ENDBRANCH  35  38
ENDBRANCH  30  32
ENDBRANCH  29  30
ENDBRANCH   5  29
TORSDOF 12
