REMARK  Name = ZINC16567845
REMARK  11 active torsions:
REMARK  status: ('A' for Active; 'I' for Inactive)
REMARK    1  A    between atoms: C_1  and  C_2
REMARK    2  A    between atoms: C_2  and  C_3
REMARK    3  A    between atoms: C_6  and  N_9
REMARK    4  A    between atoms: N_12  and  C_13
REMARK    5  A    between atoms: C_13  and  C_15
REMARK    6  A    between atoms: C_13  and  C_16
REMARK    7  A    between atoms: C_19  and  S_30
REMARK    8  A    between atoms: N_20  and  C_21
REMARK    9  A    between atoms: C_24  and  N_27
REMARK   10  A    between atoms: S_30  and  C_31
REMARK   11  A    between atoms: C_31  and  C_32
REMARK                            x       y       z     vdW  Elec       q    Type
REMARK                         _______ _______ _______ _____ _____    ______ ____
ROOT
ATOM      1  C   UNL     1       1.308  -0.301   0.251  0.00  0.00    +0.159 A 
ATOM      2  N   UNL     1       0.065   0.069   0.125  0.00  0.00    -0.131 NA
ATOM      3  N   UNL     1      -0.024   1.349   0.184  0.00  0.00    -0.122 NA
ATOM      4  C   UNL     1       1.169   1.873   0.351  0.00  0.00    +0.196 A 
ATOM      5  N   UNL     1       2.058   0.835   0.400  0.00  0.00    -0.273 N 
ENDROOT
BRANCH   5   6
ATOM      6  C   UNL     1       3.448   0.917   0.567  0.00  0.00    +0.050 A 
ATOM      7  C   UNL     1       4.044   0.398   1.708  0.00  0.00    +0.028 A 
ATOM      8  C   UNL     1       5.413   0.476   1.868  0.00  0.00    +0.035 A 
ATOM      9  C   UNL     1       6.191   1.080   0.896  0.00  0.00    +0.126 A 
ATOM     10  C   UNL     1       5.600   1.602  -0.240  0.00  0.00    +0.035 A 
ATOM     11  C   UNL     1       4.231   1.522  -0.407  0.00  0.00    +0.028 A 
BRANCH   9  12
ATOM     12  N   UNL     1       7.658   1.167   1.073  0.00  0.00    +0.056 N 
ATOM     13  O   UNL     1       8.343   1.699   0.218  0.00  0.00    -0.126 OA
ATOM     14  O   UNL     1       8.179   0.708   2.073  0.00  0.00    -0.126 OA
ENDBRANCH   9  12
ENDBRANCH   5   6
BRANCH   1  15
ATOM     15  C   UNL     1       1.825  -1.717   0.234  0.00  0.00    +0.140 C 
ATOM     16  C   UNL     1       1.813  -2.247  -1.201  0.00  0.00    +0.036 C 
BRANCH  15  20
ATOM     17  N   UNL     1       0.675  -4.461   2.394  0.00  0.00    -0.269 N 
ATOM     18  C   UNL     1       1.463  -3.686   1.622  0.00  0.00    +0.304 C 
ATOM     19  O   UNL     1       2.619  -4.004   1.422  0.00  0.00    -0.252 OA
ATOM     20  N   UNL     1       0.969  -2.559   1.073  0.00  0.00    -0.290 N 
ATOM     21  H   UNL     1      -0.223  -4.170   2.617  0.00  0.00    +0.156 HD
ATOM     22  H   UNL     1       0.046  -2.306   1.232  0.00  0.00    +0.151 HD
BRANCH  17  26
ATOM     23  C   UNL     1       2.096  -8.108   3.821  0.00  0.00    -0.048 A 
ATOM     24  C   UNL     1       1.216  -7.364   4.585  0.00  0.00    +0.005 A 
ATOM     25  C   UNL     1       0.743  -6.155   4.115  0.00  0.00    +0.023 A 
ATOM     26  C   UNL     1       1.152  -5.686   2.873  0.00  0.00    +0.035 A 
ATOM     27  C   UNL     1       2.032  -6.439   2.106  0.00  0.00    +0.023 A 
ATOM     28  C   UNL     1       2.506  -7.644   2.584  0.00  0.00    +0.005 A 
BRANCH  23  30
ATOM     29  C   UNL     1       1.672 -10.550   3.891  0.00  0.00    +0.009 C 
ATOM     30  C   UNL     1       2.610  -9.427   4.338  0.00  0.00    +0.032 C 
ENDBRANCH  23  30
ENDBRANCH  17  26
ENDBRANCH  15  20
ENDBRANCH   1  15
BRANCH   4  31
ATOM     31  S   UNL     1       1.550   3.588   0.489  0.00  0.00    -0.081 S 
BRANCH  31  32
ATOM     32  C   UNL     1      -0.109   4.293   0.333  0.00  0.00    +0.112 C 
BRANCH  32  33
ATOM     33  C   UNL     1      -0.028   5.795   0.424  0.00  0.00    -0.037 A 
ATOM     34  C   UNL     1      -0.135   6.419   1.653  0.00  0.00    +0.007 A 
ATOM     35  C   UNL     1      -0.055   7.796   1.738  0.00  0.00    +0.038 A 
ATOM     36  C   UNL     1       0.121   8.551   0.591  0.00  0.00    +0.123 A 
ATOM     37  C   UNL     1       0.223   7.925  -0.640  0.00  0.00    +0.038 A 
ATOM     38  C   UNL     1       0.148   6.547  -0.722  0.00  0.00    +0.007 A 
ATOM     39  F   UNL     1       0.195   9.898   0.672  0.00  0.00    -0.205 F 
ENDBRANCH  32  33
ENDBRANCH  31  32
ENDBRANCH   4  31
TORSDOF 9
