REMARK  Name = ZINC39684277
REMARK  8 active torsions:
REMARK  status: ('A' for Active; 'I' for Inactive)
REMARK    1  A    between atoms: C_1  and  C_2
REMARK    2  A    between atoms: C_2  and  C_4
REMARK    3  A    between atoms: C_2  and  N_8
REMARK    4  A    between atoms: C_4  and  C_5
REMARK    5  A    between atoms: C_4  and  C_6
REMARK    6  A    between atoms: C_4  and  C_7
REMARK    7  A    between atoms: C_9  and  C_11
REMARK    8  A    between atoms: C_22  and  C_24
REMARK                            x       y       z     vdW  Elec       q    Type
REMARK                         _______ _______ _______ _____ _____    ______ ____
ROOT
ATOM      1  C   UNL     1      -3.462  -1.163  -1.128  0.00  0.00    +0.100 C 
ATOM      2  C   UNL     1      -4.366  -0.272  -0.246  0.00  0.00    +0.121 C 
ATOM      3  N   UNL     1      -4.984   0.686  -1.193  0.00  0.00    -0.296 N 
ATOM      4  C   UNL     1      -5.280  -0.125  -2.398  0.00  0.00    +0.115 C 
ATOM      5  C   UNL     1      -4.068  -1.067  -2.538  0.00  0.00    -0.004 C 
ATOM      6  C   UNL     1      -3.051  -0.476  -3.510  0.00  0.00    -0.010 C 
ATOM      7  C   UNL     1      -3.656  -0.443  -4.917  0.00  0.00    -0.082 C 
ATOM      8  N   UNL     1      -4.021  -1.805  -5.326  0.00  0.00    +0.379 N 
ATOM      9  C   UNL     1      -5.066  -2.332  -4.441  0.00  0.00    -0.082 C 
ATOM     10  C   UNL     1      -4.521  -2.444  -3.014  0.00  0.00    -0.010 C 
ATOM     11  C   UNL     1      -5.224   1.998  -1.002  0.00  0.00    +0.248 C 
ATOM     12  O   UNL     1      -4.833   2.546   0.011  0.00  0.00    -0.270 OA
ATOM     13  H   UNL     1      -4.362  -1.789  -6.275  0.00  0.00    -0.086 HD
ATOM     14  H   UNL     1      -3.207  -2.399  -5.274  0.00  0.00    -0.086 HD
ENDROOT
BRANCH  11  15
ATOM     15  C   UNL     1      -5.960   2.771  -2.023  0.00  0.00    +0.055 A 
ATOM     16  C   UNL     1      -6.991   2.171  -2.748  0.00  0.00    +0.016 A 
ATOM     17  C   UNL     1      -7.675   2.897  -3.700  0.00  0.00    +0.021 A 
ATOM     18  C   UNL     1      -7.342   4.221  -3.938  0.00  0.00    +0.042 A 
ATOM     19  C   UNL     1      -6.321   4.823  -3.223  0.00  0.00    +0.040 A 
ATOM     20  C   UNL     1      -5.632   4.108  -2.262  0.00  0.00    +0.054 A 
ATOM     21 CL   UNL     1      -4.357   4.867  -1.361  0.00  0.00    -0.083 Cl
ATOM     22 CL   UNL     1      -8.208   5.127  -5.138  0.00  0.00    -0.083 Cl
ENDBRANCH  11  15
BRANCH   1  24
ATOM     23  N   UNL     1      -1.015  -1.494  -1.270  0.00  0.00    -0.312 N 
ATOM     24  C   UNL     1      -2.049  -0.641  -1.127  0.00  0.00    +0.218 C 
ATOM     25  O   UNL     1      -1.841   0.547  -0.997  0.00  0.00    -0.275 OA
ATOM     26  H   UNL     1      -1.181  -2.444  -1.373  0.00  0.00    +0.149 HD
BRANCH  23  28
ATOM     27  C   UNL     1       0.855  -0.859   0.173  0.00  0.00    +0.028 C 
ATOM     28  C   UNL     1       0.359  -0.986  -1.269  0.00  0.00    +0.075 C 
BRANCH  28  29
ATOM     29  C   UNL     1       1.262  -1.956  -2.034  0.00  0.00    -0.020 C 
ATOM     30  C   UNL     1       1.224  -3.328  -1.359  0.00  0.00    +0.012 C 
ATOM     31  C   UNL     1       0.766  -2.084  -3.476  0.00  0.00    +0.012 C 
ATOM     32  C   UNL     1       2.697  -1.426  -2.033  0.00  0.00    +0.012 C 
ENDBRANCH  28  29
ENDBRANCH  23  28
ENDBRANCH   1  24
TORSDOF 4
