REMARK  Name = ZINC01971327
REMARK  5 active torsions:
REMARK  status: ('A' for Active; 'I' for Inactive)
REMARK    1  A    between atoms: C_4  and  C_7
REMARK    2  A    between atoms: N_8  and  N_9
REMARK    3  A    between atoms: C_10  and  C_12
REMARK    4  A    between atoms: C_13  and  C_26
REMARK    5  A    between atoms: C_14  and  C_20
REMARK                            x       y       z     vdW  Elec       q    Type
REMARK                         _______ _______ _______ _____ _____    ______ ____
ROOT
ATOM      1  C   UNL     1      -2.199  -4.259   0.112  0.00  0.00    +0.114 A 
ATOM      2  C   UNL     1      -3.404  -4.979   0.058  0.00  0.00    +0.027 A 
ATOM      3  C   UNL     1      -3.335  -6.357  -0.287  0.00  0.00    +0.100 A 
ATOM      4  N   UNL     1      -2.177  -6.915  -0.543  0.00  0.00    -0.170 NA
ATOM      5  N   UNL     1      -1.068  -6.274  -0.499  0.00  0.00    -0.242 N 
ATOM      6  H   UNL     1      -0.220  -6.763  -0.702  0.00  0.00    +0.192 HD
ATOM      7  C   UNL     1      -1.002  -4.966  -0.190  0.00  0.00    +0.278 A 
ATOM      8  O   UNL     1       0.073  -4.393  -0.165  0.00  0.00    -0.266 OA
ENDROOT
BRANCH   3   9
ATOM      9  C   UNL     1      -4.577  -7.164  -0.358  0.00  0.00    +0.003 A 
ATOM     10  C   UNL     1      -4.574  -8.491   0.068  0.00  0.00    +0.010 A 
ATOM     11  C   UNL     1      -5.734  -9.236   0.004  0.00  0.00    +0.001 A 
ATOM     12  C   UNL     1      -6.895  -8.672  -0.492  0.00  0.00    +0.000 A 
ATOM     13  C   UNL     1      -6.903  -7.357  -0.922  0.00  0.00    +0.001 A 
ATOM     14  C   UNL     1      -5.750  -6.601  -0.858  0.00  0.00    +0.010 A 
ENDBRANCH   3   9
BRANCH   2  15
ATOM     15  C   UNL     1      -4.698  -4.328   0.351  0.00  0.00    -0.015 A 
ATOM     16  C   UNL     1      -5.410  -4.670   1.503  0.00  0.00    +0.008 A 
ATOM     17  C   UNL     1      -6.615  -4.054   1.773  0.00  0.00    +0.001 A 
ATOM     18  C   UNL     1      -7.122  -3.108   0.900  0.00  0.00    +0.000 A 
ATOM     19  C   UNL     1      -6.424  -2.768  -0.245  0.00  0.00    +0.001 A 
ATOM     20  C   UNL     1      -5.216  -3.372  -0.525  0.00  0.00    +0.008 A 
ENDBRANCH   2  15
BRANCH   1  22
ATOM     21  N   UNL     1      -1.023  -2.137   0.386  0.00  0.00    -0.203 N 
ATOM     22  C   UNL     1      -2.176  -2.831   0.461  0.00  0.00    +0.269 C 
ATOM     23  O   UNL     1      -3.198  -2.275   0.817  0.00  0.00    -0.268 OA
ATOM     24  H   UNL     1      -0.195  -2.595   0.172  0.00  0.00    +0.178 HD
BRANCH  21  26
ATOM     25  C   UNL     1       0.090  -0.087   0.545  0.00  0.00    +0.138 C 
ATOM     26  N   UNL     1      -1.020  -0.755   0.617  0.00  0.00    -0.187 NA
BRANCH  25  30
ATOM     27  C   UNL     1       0.098   4.098   1.246  0.00  0.00    +0.000 A 
ATOM     28  C   UNL     1       1.281   3.449   0.941  0.00  0.00    +0.001 A 
ATOM     29  C   UNL     1       1.286   2.089   0.712  0.00  0.00    +0.009 A 
ATOM     30  C   UNL     1       0.093   1.367   0.789  0.00  0.00    -0.005 A 
ATOM     31  C   UNL     1      -1.099   2.030   1.091  0.00  0.00    +0.009 A 
ATOM     32  C   UNL     1      -1.088   3.389   1.324  0.00  0.00    +0.001 A 
ENDBRANCH  25  30
ENDBRANCH  21  26
ENDBRANCH   1  22
TORSDOF 5
