REMARK  Name = ZINC38981021
REMARK  2 active torsions:
REMARK  status: ('A' for Active; 'I' for Inactive)
REMARK    1  A    between atoms: C_6  and  C_7
REMARK    2  A    between atoms: C_10  and  C_16
REMARK                            x       y       z     vdW  Elec       q    Type
REMARK                         _______ _______ _______ _____ _____    ______ ____
ROOT
ATOM      1  C   UNL     1      -1.267  -0.764   0.011  0.00  0.00    +0.130 C 
ATOM      2  N   UNL     1      -1.445  -2.054   0.011  0.00  0.00    -0.168 NA
ATOM      3  N   UNL     1      -2.719  -2.611   0.019  0.00  0.00    -0.175 N 
ATOM      4  C   UNL     1      -3.348  -3.956   0.022  0.00  0.00    +0.230 C 
ATOM      5  N   UNL     1      -4.794  -3.687   0.032  0.00  0.00    -0.242 N 
ATOM      6  N   UNL     1      -4.928  -2.293   0.035  0.00  0.00    -0.161 NA
ATOM      7  C   UNL     1      -3.780  -1.715   0.028  0.00  0.00    +0.201 C 
ATOM      8  S   UNL     1      -2.940  -0.143   0.031  0.00  0.00    -0.029 S 
ATOM      9  H   UNL     1      -5.509  -4.342   0.036  0.00  0.00    +0.170 HD
ENDROOT
BRANCH   4  10
ATOM     10  C   UNL     1      -2.956  -4.732  -1.237  0.00  0.00    +0.197 C 
ATOM     11  C   UNL     1      -3.642  -6.082  -1.272  0.00  0.00    -0.017 C 
ATOM     12  C   UNL     1      -2.649  -6.968  -1.257  0.00  0.00    +0.065 C 
ATOM     13  C   UNL     1      -3.215  -8.377  -1.291  0.00  0.00    +0.057 C 
ATOM     14  C   UNL     1      -4.699  -8.223  -0.895  0.00  0.00    +0.011 C 
ATOM     15  C   UNL     1      -4.986  -6.763  -1.313  0.00  0.00    +0.035 C 
ATOM     16  N   UNL     1      -1.452  -6.322  -1.218  0.00  0.00    -0.158 NA
ATOM     17  N   UNL     1      -1.527  -5.088  -1.206  0.00  0.00    -0.176 NA
ENDBRANCH   4  10
BRANCH   1  23
ATOM     18  C   UNL     1      -0.017   1.391   0.010  0.00  0.00    +0.012 A 
ATOM     19  C   UNL     1       1.170   2.094   0.002  0.00  0.00    +0.016 A 
ATOM     20  C   UNL     1       2.378   1.419  -0.013  0.00  0.00    +0.018 A 
ATOM     21  C   UNL     1       2.403   0.034  -0.021  0.00  0.00    +0.016 A 
ATOM     22  C   UNL     1       1.223  -0.680  -0.014  0.00  0.00    +0.012 A 
ATOM     23  C   UNL     1       0.002  -0.004   0.002  0.00  0.00    +0.009 A 
ATOM     24 BR   UNL     1       4.000   2.390  -0.023  0.00  0.00    -0.050 Br
ENDBRANCH   1  23
TORSDOF 2
