REMARK  Name = ZINC04744818
REMARK  14 active torsions:
REMARK  status: ('A' for Active; 'I' for Inactive)
REMARK    1  A    between atoms: C_1  and  C_2
REMARK    2  A    between atoms: C_2  and  O_3
REMARK    3  A    between atoms: O_3  and  C_4
REMARK    4  A    between atoms: C_6  and  C_26
REMARK    5  A    between atoms: C_7  and  S_13
REMARK    6  A    between atoms: C_9  and  C_10
REMARK    7  A    between atoms: C_10  and  C_11
REMARK    8  A    between atoms: C_10  and  C_12
REMARK    9  A    between atoms: S_13  and  N_16
REMARK   10  A    between atoms: N_16  and  C_17
REMARK   11  A    between atoms: C_19  and  C_24
REMARK   12  A    between atoms: C_19  and  C_25
REMARK   13  A    between atoms: C_20  and  C_22
REMARK   14  A    between atoms: C_20  and  C_23
REMARK                            x       y       z     vdW  Elec       q    Type
REMARK                         _______ _______ _______ _____ _____    ______ ____
ROOT
ATOM      1  S   UNL     1       0.568   4.626  -4.323  0.00  0.00    +0.059 S 
ATOM      2  O   UNL     1       1.212   4.511  -5.584  0.00  0.00    -0.153 OA
ATOM      3  O   UNL     1      -0.742   5.157  -4.182  0.00  0.00    -0.153 OA
ENDROOT
BRANCH   1   7
ATOM      4  C   UNL     1       3.274   7.149  -1.712  0.00  0.00    +0.124 A 
ATOM      5  C   UNL     1       3.794   6.070  -2.413  0.00  0.00    +0.051 A 
ATOM      6  C   UNL     1       2.965   5.299  -3.205  0.00  0.00    -0.021 A 
ATOM      7  C   UNL     1       1.621   5.607  -3.307  0.00  0.00    +0.109 A 
ATOM      8  C   UNL     1       1.101   6.681  -2.609  0.00  0.00    +0.036 A 
ATOM      9  C   UNL     1       1.925   7.453  -1.811  0.00  0.00    -0.001 A 
ATOM     10  C   UNL     1       3.528   4.124  -3.962  0.00  0.00    +0.046 C 
BRANCH   9  11
ATOM     11  C   UNL     1       1.357   8.623  -1.050  0.00  0.00    +0.016 C 
ATOM     12  C   UNL     1       0.751   9.626  -2.034  0.00  0.00    +0.012 C 
ATOM     13  C   UNL     1       0.271   8.130  -0.092  0.00  0.00    +0.012 C 
ENDBRANCH   9  11
BRANCH   4  14
ATOM     14  O   UNL     1       4.086   7.906  -0.928  0.00  0.00    -0.492 OA
BRANCH  14  16
ATOM     15  C   UNL     1       6.216   8.495   0.051  0.00  0.00    +0.048 C 
ATOM     16  C   UNL     1       5.465   7.534  -0.873  0.00  0.00    +0.225 C 
ENDBRANCH  14  16
ENDBRANCH   4  14
ENDBRANCH   1   7
BRANCH   1  17
ATOM     17  N   UNL     1       0.535   3.105  -3.669  0.00  0.00    -0.187 NA
ATOM     18  H   UNL     1       0.881   2.352  -4.173  0.00  0.00    +0.148 HD
BRANCH  17  19
ATOM     19  C   UNL     1      -0.018   2.896  -2.325  0.00  0.00    +0.074 C 
ATOM     20  C   UNL     1       0.791   1.814  -1.610  0.00  0.00    +0.007 C 
ATOM     21  C   UNL     1       0.225   1.560  -0.215  0.00  0.00    -0.072 C 
ATOM     22  C   UNL     1      -2.060   2.173  -1.060  0.00  0.00    -0.072 C 
ATOM     23  C   UNL     1      -1.466   2.421  -2.444  0.00  0.00    +0.007 C 
ATOM     24  C   UNL     1      -3.399   1.429  -1.255  0.00  0.00    -0.010 C 
ATOM     25  C   UNL     1      -2.381   3.516  -0.392  0.00  0.00    -0.010 C 
ATOM     26  C   UNL     1       0.622   2.712   0.716  0.00  0.00    -0.010 C 
ATOM     27  C   UNL     1       0.891   0.279   0.332  0.00  0.00    -0.010 C 
ATOM     28  N   UNL     1      -1.240   1.306  -0.172  0.00  0.00    +0.386 N 
ATOM     29  H   UNL     1      -1.559   1.448   0.794  0.00  0.00    -0.084 HD
ATOM     30  H   UNL     1      -1.401   0.329  -0.445  0.00  0.00    -0.084 HD
ENDBRANCH  17  19
ENDBRANCH   1  17
TORSDOF 6
