REMARK  Name = ZINC67289192
REMARK  7 active torsions:
REMARK  status: ('A' for Active; 'I' for Inactive)
REMARK    1  A    between atoms: C_1  and  C_2
REMARK    2  A    between atoms: C_2  and  C_3
REMARK    3  A    between atoms: C_6  and  N_9
REMARK    4  A    between atoms: C_10  and  C_12
REMARK    5  A    between atoms: C_12  and  N_13
REMARK    6  A    between atoms: C_15  and  C_20
REMARK    7  A    between atoms: C_22  and  C_25
REMARK                            x       y       z     vdW  Elec       q    Type
REMARK                         _______ _______ _______ _____ _____    ______ ____
ROOT
ATOM      1  N   UNL     1       1.900  -2.519   8.133  0.00  0.00    -0.306 N 
ATOM      2  C   UNL     1       1.652  -1.429   8.886  0.00  0.00    +0.103 A 
ATOM      3  C   UNL     1       0.775  -1.497   9.947  0.00  0.00    +0.056 A 
ATOM      4  C   UNL     1       0.134  -2.723  10.244  0.00  0.00    +0.020 A 
ATOM      5  C   UNL     1       0.400  -3.811   9.472  0.00  0.00    +0.071 A 
ATOM      6  C   UNL     1       1.298  -3.694   8.395  0.00  0.00    +0.252 A 
ATOM      7  O   UNL     1       1.535  -4.665   7.696  0.00  0.00    -0.268 OA
ENDROOT
BRANCH   3   8
ATOM      8  C   UNL     1       0.507  -0.300  10.769  0.00  0.00    +0.260 A 
ATOM      9  N   UNL     1      -0.299  -0.241  11.804  0.00  0.00    -0.187 NA
ATOM     10  C   UNL     1      -0.302   1.002  12.311  0.00  0.00    +0.202 A 
ATOM     11  N   UNL     1       0.507   1.751  11.601  0.00  0.00    -0.056 NA
ATOM     12  O   UNL     1       1.052   0.917  10.590  0.00  0.00    -0.332 OA
BRANCH  10  13
ATOM     13  C   UNL     1      -1.092   1.454  13.483  0.00  0.00    +0.023 A 
ATOM     14  C   UNL     1      -1.915   0.557  14.160  0.00  0.00    +0.013 A 
ATOM     15  C   UNL     1      -2.647   0.982  15.250  0.00  0.00    +0.016 A 
ATOM     16  C   UNL     1      -2.564   2.298  15.671  0.00  0.00    +0.018 A 
ATOM     17  C   UNL     1      -1.748   3.194  15.002  0.00  0.00    +0.016 A 
ATOM     18  C   UNL     1      -1.008   2.777  13.914  0.00  0.00    +0.013 A 
ATOM     19 BR   UNL     1      -3.570   2.874  17.165  0.00  0.00    -0.050 Br
ENDBRANCH  10  13
ENDBRANCH   3   8
BRANCH   1  20
ATOM     20  C   UNL     1       2.836  -2.423   7.010  0.00  0.00    +0.220 C 
BRANCH  20  22
ATOM     21  N   UNL     1       2.746  -1.883   4.598  0.00  0.00    -0.284 N 
ATOM     22  C   UNL     1       2.085  -2.032   5.763  0.00  0.00    +0.237 C 
ATOM     23  O   UNL     1       0.887  -1.852   5.809  0.00  0.00    -0.274 OA
ATOM     24  H   UNL     1       3.689  -2.102   4.544  0.00  0.00    +0.155 HD
BRANCH  21  28
ATOM     25  C   UNL     1       0.736  -0.485   1.228  0.00  0.00    -0.048 A 
ATOM     26  C   UNL     1       0.375  -0.033   2.483  0.00  0.00    +0.005 A 
ATOM     27  C   UNL     1       1.039  -0.494   3.603  0.00  0.00    +0.023 A 
ATOM     28  C   UNL     1       2.071  -1.414   3.466  0.00  0.00    +0.033 A 
ATOM     29  C   UNL     1       2.431  -1.866   2.204  0.00  0.00    +0.023 A 
ATOM     30  C   UNL     1       1.759  -1.404   1.089  0.00  0.00    +0.005 A 
BRANCH  25  32
ATOM     31  C   UNL     1      -1.189  -0.885  -0.284  0.00  0.00    +0.009 C 
ATOM     32  C   UNL     1       0.009   0.021   0.008  0.00  0.00    +0.032 C 
ENDBRANCH  25  32
ENDBRANCH  21  28
ENDBRANCH  20  22
ENDBRANCH   1  20
TORSDOF 6
