REMARK  Name = ZINC23844573
REMARK  4 active torsions:
REMARK  status: ('A' for Active; 'I' for Inactive)
REMARK    1  A    between atoms: C_6  and  C_7
REMARK    2  A    between atoms: C_15  and  C_17
REMARK    3  A    between atoms: C_17  and  N_18
REMARK    4  A    between atoms: C_23  and  C_25
REMARK                            x       y       z     vdW  Elec       q    Type
REMARK                         _______ _______ _______ _____ _____    ______ ____
ROOT
ATOM      1  C   UNL     1       6.838  -3.126  -0.441  0.00  0.00    +0.022 A 
ATOM      2  C   UNL     1       5.488  -2.928  -0.353  0.00  0.00    +0.044 A 
ATOM      3  C   UNL     1       4.920  -1.772  -0.876  0.00  0.00    +0.086 A 
ATOM      4  C   UNL     1       5.809  -0.868  -1.474  0.00  0.00    +0.104 A 
ATOM      5  S   UNL     1       7.388  -1.653  -1.288  0.00  0.00    -0.081 S 
ATOM      6  C   UNL     1       5.356   0.331  -2.036  0.00  0.00    +0.288 A 
ATOM      7  O   UNL     1       6.141   1.111  -2.554  0.00  0.00    -0.265 OA
ATOM      8  N   UNL     1       4.036   0.611  -1.996  0.00  0.00    -0.195 NA
ATOM      9  C   UNL     1       3.200  -0.224  -1.442  0.00  0.00    +0.117 A 
ATOM     10  N   UNL     1       3.577  -1.383  -0.884  0.00  0.00    -0.233 NA
ENDROOT
BRANCH   1  16
ATOM     11  C   UNL     1       7.016  -5.336   0.693  0.00  0.00    +0.010 A 
ATOM     12  C   UNL     1       7.769  -6.403   1.137  0.00  0.00    +0.020 A 
ATOM     13  C   UNL     1       9.141  -6.413   0.948  0.00  0.00    +0.041 A 
ATOM     14  C   UNL     1       9.765  -5.356   0.308  0.00  0.00    +0.020 A 
ATOM     15  C   UNL     1       9.022  -4.285  -0.146  0.00  0.00    +0.010 A 
ATOM     16  C   UNL     1       7.639  -4.270   0.042  0.00  0.00    -0.011 A 
ATOM     17 CL   UNL     1      10.082  -7.758   1.514  0.00  0.00    -0.084 Cl
ENDBRANCH   1  16
BRANCH   9  18
ATOM     18  C   UNL     1       1.737   0.137  -1.422  0.00  0.00    -0.000 C 
BRANCH  18  19
ATOM     19  N   UNL     1       1.458   0.991  -0.260  0.00  0.00    +0.392 N 
ATOM     20  C   UNL     1       1.959   0.377   0.976  0.00  0.00    -0.077 C 
ATOM     21  C   UNL     1       1.783   1.354   2.141  0.00  0.00    -0.019 C 
ATOM     22  C   UNL     1       0.300   1.704   2.287  0.00  0.00    -0.003 C 
ATOM     23  C   UNL     1      -0.209   2.297   0.970  0.00  0.00    -0.006 C 
ATOM     24  C   UNL     1       0.025   1.292  -0.160  0.00  0.00    +0.020 C 
ATOM     25  H   UNL     1       1.992   1.942  -0.402  0.00  0.00    -0.080 HD
BRANCH  24  26
ATOM     26  C   UNL     1      -0.457   1.880  -1.462  0.00  0.00    +0.197 C 
ATOM     27  O   UNL     1       0.291   2.558  -2.134  0.00  0.00    -0.278 OA
ATOM     28  N   UNL     1      -1.718   1.652  -1.878  0.00  0.00    -0.331 N 
ATOM     29  H   UNL     1      -2.070   2.081  -2.828  0.00  0.00    +0.145 HD
ATOM     30  H   UNL     1      -2.396   1.037  -1.268  0.00  0.00    +0.145 HD
ENDBRANCH  24  26
ENDBRANCH  18  19
ENDBRANCH   9  18
TORSDOF 4
