REMARK  Name = ZINC20239152
REMARK  6 active torsions:
REMARK  status: ('A' for Active; 'I' for Inactive)
REMARK    1  A    between atoms: C_4  and  S_7
REMARK    2  A    between atoms: S_7  and  N_10
REMARK    3  A    between atoms: N_10  and  C_11
REMARK    4  A    between atoms: N_10  and  C_24
REMARK    5  A    between atoms: C_11  and  C_12
REMARK    6  A    between atoms: N_14  and  C_15
REMARK                            x       y       z     vdW  Elec       q    Type
REMARK                         _______ _______ _______ _____ _____    ______ ____
ROOT
ATOM      1  N   UNL     1       4.335  -1.257  -1.932  0.00  0.00    -0.193 N 
ENDROOT
BRANCH   1   2
ATOM      2  C   UNL     1       3.953  -2.308  -2.771  0.00  0.00    +0.070 A 
ATOM      3  C   UNL     1       4.813  -3.378  -2.981  0.00  0.00    +0.027 A 
ATOM      4  C   UNL     1       4.433  -4.416  -3.810  0.00  0.00    +0.022 A 
ATOM      5  C   UNL     1       3.196  -4.391  -4.431  0.00  0.00    +0.042 A 
ATOM      6  C   UNL     1       2.337  -3.326  -4.224  0.00  0.00    +0.042 A 
ATOM      7  C   UNL     1       2.709  -2.288  -3.391  0.00  0.00    +0.065 A 
ATOM      8 CL   UNL     1       1.627  -0.957  -3.125  0.00  0.00    -0.082 Cl
ATOM      9 CL   UNL     1       2.723  -5.697  -5.472  0.00  0.00    -0.083 Cl
ENDBRANCH   1   2
BRANCH   1  10
ATOM     10  S   UNL     1       3.877  -1.259  -0.341  0.00  0.00    +0.075 S 
ATOM     11  O   UNL     1       4.816  -0.449   0.353  0.00  0.00    -0.150 OA
ATOM     12  O   UNL     1       3.633  -2.614   0.010  0.00  0.00    -0.150 OA
BRANCH  10  16
ATOM     13  C   UNL     1      -0.106   0.878  -0.091  0.00  0.00    +0.000 A 
ATOM     14  C   UNL     1       1.071   1.592   0.036  0.00  0.00    +0.002 A 
ATOM     15  C   UNL     1       2.287   0.940  -0.040  0.00  0.00    +0.029 A 
ATOM     16  C   UNL     1       2.327  -0.427  -0.243  0.00  0.00    +0.109 A 
ATOM     17  C   UNL     1       1.150  -1.141  -0.370  0.00  0.00    +0.029 A 
ATOM     18  C   UNL     1      -0.066  -0.489  -0.293  0.00  0.00    +0.002 A 
ENDBRANCH  10  16
ENDBRANCH   1  10
BRANCH   1  19
ATOM     19  C   UNL     1       5.139  -0.153  -2.462  0.00  0.00    +0.227 C 
BRANCH  19  20
ATOM     20  C   UNL     1       6.598  -0.528  -2.416  0.00  0.00    +0.236 C 
ATOM     21  O   UNL     1       6.933  -1.611  -1.983  0.00  0.00    -0.274 OA
ATOM     22  N   UNL     1       7.532   0.339  -2.855  0.00  0.00    -0.284 N 
ATOM     23  H   UNL     1       7.225   1.284  -3.327  0.00  0.00    +0.155 HD
BRANCH  22  24
ATOM     24  C   UNL     1       8.892   0.037  -2.711  0.00  0.00    +0.037 A 
ATOM     25  C   UNL     1       9.330  -0.686  -1.609  0.00  0.00    +0.027 A 
ATOM     26  C   UNL     1      10.671  -0.988  -1.468  0.00  0.00    +0.051 A 
ATOM     27  C   UNL     1      11.583  -0.563  -2.420  0.00  0.00    +0.166 A 
ATOM     28  C   UNL     1      11.148   0.167  -3.524  0.00  0.00    +0.168 A 
ATOM     29  C   UNL     1       9.803   0.465  -3.667  0.00  0.00    +0.072 A 
ATOM     30  O   UNL     1      12.227   0.463  -4.305  0.00  0.00    -0.453 OA
ATOM     31  C   UNL     1      13.378   0.261  -3.463  0.00  0.00    +0.466 C 
ATOM     32  O   UNL     1      12.937  -0.724  -2.510  0.00  0.00    -0.453 OA
ENDBRANCH  22  24
ENDBRANCH  19  20
ENDBRANCH   1  19
TORSDOF 6
