REMARK  Name = ZINC43666592
REMARK  4 active torsions:
REMARK  status: ('A' for Active; 'I' for Inactive)
REMARK    1  A    between atoms: C_1  and  C_2
REMARK    2  A    between atoms: C_7  and  C_17
REMARK    3  A    between atoms: C_9  and  N_10
REMARK    4  A    between atoms: C_11  and  N_16
REMARK                            x       y       z     vdW  Elec       q    Type
REMARK                         _______ _______ _______ _____ _____    ______ ____
ROOT
ATOM      1  N   UNL     1       0.056  -0.038   2.447  0.00  0.00    -0.246 N 
ATOM      2  C   UNL     1       0.591   0.752   3.413  0.00  0.00    +0.128 A 
ATOM      3  C   UNL     1      -0.374   0.958   4.353  0.00  0.00    +0.072 A 
ATOM      4  C   UNL     1      -1.522   0.274   3.945  0.00  0.00    +0.150 A 
ATOM      5  N   UNL     1      -1.269  -0.317   2.805  0.00  0.00    -0.177 NA
ATOM      6  I   UNL     1      -0.171   2.096   6.100  0.00  0.00    -0.039 I 
ENDROOT
BRANCH   1  13
ATOM      7  C   UNL     1      -0.019   1.526   0.010  0.00  0.00    +0.009 C 
ATOM      8  C   UNL     1       0.002  -0.004   0.002  0.00  0.00    +0.011 C 
ATOM      9  C   UNL     1       0.718  -0.497  -1.257  0.00  0.00    +0.005 C 
ATOM     10  C   UNL     1       0.739  -2.027  -1.265  0.00  0.00    +0.001 C 
ATOM     11  C   UNL     1       1.479  -2.534  -0.026  0.00  0.00    +0.005 C 
ATOM     12  C   UNL     1       0.763  -2.041   1.233  0.00  0.00    +0.011 C 
ATOM     13  C   UNL     1       0.742  -0.511   1.242  0.00  0.00    +0.115 C 
ATOM     14  C   UNL     1      -0.673  -2.570   1.244  0.00  0.00    +0.009 C 
ENDBRANCH   1  13
BRANCH   2  15
ATOM     15  N   UNL     1       1.887   1.259   3.439  0.00  0.00    -0.343 N 
ATOM     16  H   UNL     1       2.503   1.054   2.718  0.00  0.00    +0.144 HD
ATOM     17  H   UNL     1       2.175   1.818   4.178  0.00  0.00    +0.144 HD
ENDBRANCH   2  15
TORSDOF 2
