REMARK  Name = ZINC08193526
REMARK  6 active torsions:
REMARK  status: ('A' for Active; 'I' for Inactive)
REMARK    1  A    between atoms: C_1  and  C_2
REMARK    2  A    between atoms: C_2  and  C_19
REMARK    3  A    between atoms: N_5  and  C_9
REMARK    4  A    between atoms: C_9  and  C_10
REMARK    5  A    between atoms: C_10  and  O_11
REMARK    6  A    between atoms: O_11  and  C_12
REMARK                            x       y       z     vdW  Elec       q    Type
REMARK                         _______ _______ _______ _____ _____    ______ ____
ROOT
ATOM      1  C   UNL     1      -0.411   7.325   3.771  0.00  0.00    +0.047 C 
ATOM      2  C   UNL     1       0.717   6.721   2.933  0.00  0.00    +0.135 C 
ATOM      3  C   UNL     1       2.010   6.689   3.722  0.00  0.00    +0.251 C 
ATOM      4  O   UNL     1       2.222   6.095   4.758  0.00  0.00    -0.272 OA
ATOM      5  N   UNL     1       2.876   7.460   3.034  0.00  0.00    -0.221 N 
ATOM      6  C   UNL     1       2.315   7.968   1.931  0.00  0.00    +0.310 C 
ATOM      7  O   UNL     1       2.898   8.694   1.150  0.00  0.00    -0.252 OA
ATOM      8  N   UNL     1       1.034   7.586   1.783  0.00  0.00    -0.281 N 
ATOM      9  H   UNL     1       0.435   7.832   1.061  0.00  0.00    +0.152 HD
ENDROOT
BRANCH   2  10
ATOM     10  C   UNL     1       0.346   5.336   2.467  0.00  0.00    -0.012 A 
ATOM     11  C   UNL     1       0.716   4.235   3.217  0.00  0.00    +0.010 A 
ATOM     12  C   UNL     1       0.380   2.961   2.796  0.00  0.00    +0.050 A 
ATOM     13  C   UNL     1      -0.330   2.792   1.619  0.00  0.00    +0.162 A 
ATOM     14  C   UNL     1      -0.702   3.897   0.867  0.00  0.00    +0.162 A 
ATOM     15  C   UNL     1      -0.364   5.171   1.292  0.00  0.00    +0.055 A 
ATOM     16  O   UNL     1      -1.402   3.720  -0.291  0.00  0.00    -0.488 OA
ATOM     17  C   UNL     1      -0.690   3.098  -1.362  0.00  0.00    +0.232 C 
ATOM     18  C   UNL     1      -0.736   1.583  -1.234  0.00  0.00    +0.082 C 
ATOM     19  C   UNL     1      -0.013   1.086   0.008  0.00  0.00    +0.232 C 
ATOM     20  O   UNL     1      -0.670   1.541   1.193  0.00  0.00    -0.488 OA
ENDBRANCH   2  10
BRANCH   5  21
ATOM     21  C   UNL     1       4.260   7.710   3.445  0.00  0.00    +0.159 C 
BRANCH  21  22
ATOM     22  C   UNL     1       5.173   6.643   2.837  0.00  0.00    +0.248 C 
BRANCH  22  23
ATOM     23  O   UNL     1       5.171   6.769   1.414  0.00  0.00    -0.489 OA
BRANCH  23  24
ATOM     24  C   UNL     1       5.938   5.889   0.716  0.00  0.00    +0.139 A 
ATOM     25  C   UNL     1       6.680   4.929   1.388  0.00  0.00    +0.047 A 
ATOM     26  C   UNL     1       7.454   4.033   0.676  0.00  0.00    +0.004 A 
ATOM     27  C   UNL     1       7.498   4.099  -0.704  0.00  0.00    +0.002 A 
ATOM     28  C   UNL     1       6.764   5.058  -1.377  0.00  0.00    +0.023 A 
ATOM     29  C   UNL     1       5.984   5.954  -0.670  0.00  0.00    +0.083 A 
ATOM     30 CL   UNL     1       5.062   7.158  -1.514  0.00  0.00    -0.080 Cl
ENDBRANCH  23  24
ENDBRANCH  22  23
ENDBRANCH  21  22
ENDBRANCH   5  21
TORSDOF 5
