REMARK  Name = ZINC14966623
REMARK  6 active torsions:
REMARK  status: ('A' for Active; 'I' for Inactive)
REMARK    1  A    between atoms: C_1  and  C_2
REMARK    2  A    between atoms: C_2  and  C_4
REMARK    3  A    between atoms: C_2  and  C_16
REMARK    4  A    between atoms: N_18  and  C_19
REMARK    5  A    between atoms: C_19  and  C_20
REMARK    6  A    between atoms: C_27  and  C_30
REMARK                            x       y       z     vdW  Elec       q    Type
REMARK                         _______ _______ _______ _____ _____    ______ ____
ROOT
ATOM      1  C   UNL     1       2.173   0.558  -0.424  0.00  0.00    +0.195 C 
ATOM      2  C   UNL     1       1.427   1.847  -0.002  0.00  0.00    +0.085 C 
ATOM      3  C   UNL     1      -0.017   1.383   0.010  0.00  0.00    -0.000 A 
ATOM      4  C   UNL     1      -1.209   2.074   0.020  0.00  0.00    +0.027 A 
ATOM      5  C   UNL     1      -2.413   1.388   0.021  0.00  0.00    +0.042 A 
ATOM      6  C   UNL     1      -2.418   0.006   0.009  0.00  0.00    +0.032 A 
ATOM      7  C   UNL     1      -1.218  -0.697  -0.001  0.00  0.00    +0.025 A 
ATOM      8  C   UNL     1       0.002  -0.004   0.002  0.00  0.00    +0.132 A 
ATOM      9  O   UNL     1       1.277  -0.482   0.002  0.00  0.00    -0.486 OA
ATOM     10 CL   UNL     1      -3.912   2.263   0.037  0.00  0.00    -0.084 Cl
ENDROOT
BRANCH   7  11
ATOM     11  C   UNL     1      -1.229  -2.181  -0.014  0.00  0.00    -0.014 A 
ATOM     12  C   UNL     1      -0.457  -2.876  -0.951  0.00  0.00    +0.010 A 
ATOM     13  C   UNL     1      -0.454  -4.241  -0.977  0.00  0.00    +0.027 A 
ATOM     14  C   UNL     1      -1.224  -4.960  -0.067  0.00  0.00    +0.046 A 
ATOM     15  C   UNL     1      -2.006  -4.271   0.880  0.00  0.00    +0.000 A 
ATOM     16  C   UNL     1      -2.000  -2.876   0.906  0.00  0.00    +0.018 A 
ATOM     17  C   UNL     1      -2.683  -5.300   1.673  0.00  0.00    +0.027 A 
ATOM     18  C   UNL     1      -2.293  -6.489   1.187  0.00  0.00    +0.083 A 
ATOM     19  N   UNL     1      -1.422  -6.306   0.147  0.00  0.00    -0.361 N 
ATOM     20  H   UNL     1      -1.006  -7.018  -0.363  0.00  0.00    +0.165 HD
ENDBRANCH   7  11
BRANCH   1  21
ATOM     21  C   UNL     1       3.518   0.445   0.297  0.00  0.00    +0.149 C 
BRANCH  21  24
ATOM     22  C   UNL     1       5.403  -1.096   0.385  0.00  0.00    +0.222 C 
ATOM     23  O   UNL     1       5.931  -0.359   1.190  0.00  0.00    -0.275 OA
ATOM     24  N   UNL     1       4.194  -0.785  -0.124  0.00  0.00    -0.311 N 
ATOM     25  H   UNL     1       3.772  -1.375  -0.768  0.00  0.00    +0.149 HD
BRANCH  22  27
ATOM     26  C   UNL     1       5.228  -3.569   0.304  0.00  0.00    +0.024 C 
ATOM     27  C   UNL     1       6.099  -2.361  -0.048  0.00  0.00    +0.123 C 
BRANCH  27  28
ATOM     28  C   UNL     1       7.424  -2.473   0.662  0.00  0.00    +0.081 A 
ATOM     29  C   UNL     1       8.339  -3.567   0.335  0.00  0.00    +0.011 A 
ATOM     30  C   UNL     1       8.030  -4.520  -0.638  0.00  0.00    +0.010 A 
ATOM     31  C   UNL     1       8.921  -5.519  -0.912  0.00  0.00    +0.001 A 
ATOM     32  C   UNL     1      10.135  -5.598  -0.242  0.00  0.00    +0.001 A 
ATOM     33  C   UNL     1      10.469  -4.668   0.718  0.00  0.00    +0.014 A 
ATOM     34  C   UNL     1       9.576  -3.640   1.015  0.00  0.00    +0.050 A 
ATOM     35  C   UNL     1       9.873  -2.618   2.027  0.00  0.00    +0.272 A 
ATOM     36  O   UNL     1      10.924  -2.643   2.644  0.00  0.00    -0.266 OA
ATOM     37  N   UNL     1       8.961  -1.652   2.261  0.00  0.00    -0.242 N 
ATOM     38  H   UNL     1       9.152  -0.974   2.929  0.00  0.00    +0.192 HD
ATOM     39  N   UNL     1       7.750  -1.602   1.570  0.00  0.00    -0.175 NA
ENDBRANCH  27  28
ENDBRANCH  22  27
ENDBRANCH  21  24
ENDBRANCH   1  21
TORSDOF 5
