REMARK  Name = ZINC14244736
REMARK  3 active torsions:
REMARK  status: ('A' for Active; 'I' for Inactive)
REMARK    1  A    between atoms: N_10  and  S_11
REMARK    2  A    between atoms: S_11  and  C_14
REMARK    3  A    between atoms: C_17  and  C_20
REMARK                            x       y       z     vdW  Elec       q    Type
REMARK                         _______ _______ _______ _____ _____    ______ ____
ROOT
ATOM      1  S   UNL     1       1.223  -2.445  -0.022  0.00  0.00    +0.075 S 
ATOM      2  O   UNL     1       2.477  -2.842   0.514  0.00  0.00    -0.150 OA
ATOM      3  O   UNL     1      -0.013  -2.865   0.539  0.00  0.00    -0.150 OA
ENDROOT
BRANCH   1  13
ATOM      4  C   UNL     1       4.791  -3.193  -3.719  0.00  0.00    +0.000 A 
ATOM      5  C   UNL     1       4.750  -2.537  -2.502  0.00  0.00    +0.002 A 
ATOM      6  C   UNL     1       3.561  -2.450  -1.807  0.00  0.00    +0.025 A 
ATOM      7  C   UNL     1       2.406  -3.022  -2.329  0.00  0.00    +0.054 A 
ATOM      8  C   UNL     1       2.447  -3.678  -3.550  0.00  0.00    -0.025 A 
ATOM      9  C   UNL     1       3.645  -3.761  -4.240  0.00  0.00    +0.005 A 
ATOM     10  C   UNL     1       1.216  -4.303  -4.149  0.00  0.00    +0.038 C 
ATOM     11  C   UNL     1       0.164  -4.556  -3.069  0.00  0.00    +0.025 C 
ATOM     12  C   UNL     1      -0.052  -3.265  -2.275  0.00  0.00    +0.132 C 
ATOM     13  N   UNL     1       1.212  -2.926  -1.607  0.00  0.00    -0.203 N 
ENDBRANCH   1  13
BRANCH   1  14
ATOM     14  C   UNL     1       1.206  -0.683  -0.013  0.00  0.00    +0.109 A 
ATOM     15  C   UNL     1       0.000  -0.005   0.002  0.00  0.00    +0.029 A 
ATOM     16  C   UNL     1      -0.020   1.374   0.010  0.00  0.00    +0.015 A 
ATOM     17  C   UNL     1       1.181   2.087   0.002  0.00  0.00    +0.037 A 
ATOM     18  C   UNL     1       2.394   1.397  -0.013  0.00  0.00    +0.015 A 
ATOM     19  C   UNL     1       2.400   0.017  -0.021  0.00  0.00    +0.029 A 
BRANCH  17  20
ATOM     20  C   UNL     1       1.167   3.565   0.010  0.00  0.00    +0.242 C 
ATOM     21  O   UNL     1       0.109   4.163   0.023  0.00  0.00    -0.270 OA
ATOM     22  N   UNL     1       2.328   4.250   0.002  0.00  0.00    -0.325 N 
ATOM     23  H   UNL     1       3.172   3.772  -0.009  0.00  0.00    +0.145 HD
ATOM     24  H   UNL     1       2.319   5.220   0.007  0.00  0.00    +0.145 HD
ENDBRANCH  17  20
ENDBRANCH   1  14
TORSDOF 3
