REMARK  Name = ZINC36146384
REMARK  14 active torsions:
REMARK  status: ('A' for Active; 'I' for Inactive)
REMARK    1  A    between atoms: C_1  and  C_2
REMARK    2  A    between atoms: C_2  and  C_3
REMARK    3  A    between atoms: C_2  and  C_4
REMARK    4  A    between atoms: C_4  and  O_5
REMARK    5  A    between atoms: O_5  and  C_6
REMARK    6  A    between atoms: C_6  and  C_7
REMARK    7  A    between atoms: C_7  and  C_9
REMARK    8  A    between atoms: C_7  and  O_34
REMARK    9  A    between atoms: C_9  and  N_10
REMARK   10  A    between atoms: N_10  and  C_11
REMARK   11  A    between atoms: N_10  and  C_19
REMARK   12  A    between atoms: C_11  and  C_12
REMARK   13  A    between atoms: C_19  and  C_20
REMARK   14  A    between atoms: C_23  and  C_26
REMARK                            x       y       z     vdW  Elec       q    Type
REMARK                         _______ _______ _______ _____ _____    ______ ____
ROOT
ATOM      1  N   UNL     1      -3.943  -6.345  -0.283  0.00  0.00    +0.387 N 
ATOM      2  H   UNL     1      -3.486  -6.818  -1.048  0.00  0.00    -0.081 HD
ENDROOT
BRANCH   1   3
ATOM      3  C   UNL     1      -4.011  -4.905  -0.568  0.00  0.00    -0.044 C 
BRANCH   3   4
ATOM      4  C   UNL     1      -2.605  -4.377  -0.861  0.00  0.00    +0.124 C 
BRANCH   4   5
ATOM      5  O   UNL     1      -2.111  -4.977  -2.060  0.00  0.00    -0.391 OA
ATOM      6  H   UNL     1      -2.651  -4.798  -2.841  0.00  0.00    +0.210 HD
ENDBRANCH   4   5
BRANCH   4   7
ATOM      7  C   UNL     1      -2.658  -2.858  -1.035  0.00  0.00    +0.189 C 
BRANCH   7   8
ATOM      8  O   UNL     1      -1.331  -2.350  -1.192  0.00  0.00    -0.377 OA
BRANCH   8   9
ATOM      9  C   UNL     1      -1.268  -0.933  -1.363  0.00  0.00    +0.163 C 
BRANCH   9  11
ATOM     10  C   UNL     1       0.253   0.995  -1.827  0.00  0.00    +0.009 C 
ATOM     11  C   UNL     1       0.192  -0.503  -1.520  0.00  0.00    +0.009 C 
ATOM     12  C   UNL     1       0.951  -0.789  -0.223  0.00  0.00    +0.009 C 
ENDBRANCH   9  11
ENDBRANCH   8   9
ENDBRANCH   7   8
ENDBRANCH   4   7
ENDBRANCH   3   4
ENDBRANCH   1   3
BRANCH   1  13
ATOM     13  C   UNL     1      -3.181  -6.564   0.953  0.00  0.00    -0.043 C 
BRANCH  13  14
ATOM     14  C   UNL     1      -3.837  -5.819   2.087  0.00  0.00    -0.063 A 
ATOM     15  C   UNL     1      -3.502  -4.501   2.334  0.00  0.00    +0.002 A 
ATOM     16  C   UNL     1      -4.104  -3.818   3.374  0.00  0.00    +0.002 A 
ATOM     17  C   UNL     1      -5.042  -4.452   4.168  0.00  0.00    +0.020 A 
ATOM     18  C   UNL     1      -5.377  -5.771   3.921  0.00  0.00    +0.041 A 
ATOM     19  C   UNL     1      -4.779  -6.453   2.876  0.00  0.00    +0.021 A 
ATOM     20 CL   UNL     1      -6.554  -6.569   4.917  0.00  0.00    -0.084 Cl
ENDBRANCH  13  14
ENDBRANCH   1  13
BRANCH   1  21
ATOM     21  C   UNL     1      -5.303  -6.877  -0.120  0.00  0.00    -0.030 C 
BRANCH  21  22
ATOM     22  C   UNL     1      -5.248  -8.404  -0.050  0.00  0.00    +0.194 C 
ATOM     23  C   UNL     1      -6.665  -9.001   0.125  0.00  0.00    +0.104 C 
ATOM     24  C   UNL     1      -6.419 -10.163   1.068  0.00  0.00    +0.091 C 
ATOM     25  N   UNL     1      -5.253 -10.011   1.602  0.00  0.00    -0.089 NA
ATOM     26  O   UNL     1      -4.594  -8.841   1.159  0.00  0.00    -0.392 OA
BRANCH  24  27
ATOM     27  C   UNL     1      -7.353 -11.276   1.332  0.00  0.00    +0.001 A 
ATOM     28  C   UNL     1      -8.587 -11.324   0.681  0.00  0.00    +0.011 A 
ATOM     29  C   UNL     1      -9.456 -12.366   0.930  0.00  0.00    +0.022 A 
ATOM     30  C   UNL     1      -9.105 -13.364   1.824  0.00  0.00    +0.059 A 
ATOM     31  C   UNL     1      -7.882 -13.323   2.473  0.00  0.00    +0.060 A 
ATOM     32  C   UNL     1      -7.002 -12.287   2.228  0.00  0.00    +0.031 A 
ATOM     33 CL   UNL     1      -7.451 -14.579   3.592  0.00  0.00    -0.082 Cl
ATOM     34 CL   UNL     1     -10.204 -14.672   2.133  0.00  0.00    -0.082 Cl
ENDBRANCH  24  27
ENDBRANCH  21  22
ENDBRANCH   1  21
TORSDOF 12
