REMARK  Name = ZINC63514325
REMARK  9 active torsions:
REMARK  status: ('A' for Active; 'I' for Inactive)
REMARK    1  A    between atoms: C_1  and  C_2
REMARK    2  A    between atoms: C_4  and  C_13
REMARK    3  A    between atoms: C_13  and  C_14
REMARK    4  A    between atoms: C_14  and  N_15
REMARK    5  A    between atoms: C_16  and  C_18
REMARK    6  A    between atoms: C_18  and  C_19
REMARK    7  A    between atoms: C_19  and  C_20
REMARK    8  A    between atoms: N_22  and  C_29
REMARK    9  A    between atoms: C_29  and  C_30
REMARK                            x       y       z     vdW  Elec       q    Type
REMARK                         _______ _______ _______ _____ _____    ______ ____
ROOT
ATOM      1  N   UNL     1      -4.819  -0.826  -1.544  0.00  0.00    -0.315 N 
ATOM      2  C   UNL     1      -6.036  -1.379  -1.371  0.00  0.00    +0.213 C 
ATOM      3  O   UNL     1      -6.258  -2.061  -0.393  0.00  0.00    -0.276 OA
ATOM      4  H   UNL     1      -4.641  -0.280  -2.326  0.00  0.00    +0.149 HD
ENDROOT
BRANCH   1   5
ATOM      5  C   UNL     1      -3.765  -1.049  -0.551  0.00  0.00    +0.108 C 
BRANCH   5   6
ATOM      6  C   UNL     1      -2.494  -0.316  -0.984  0.00  0.00    +0.052 C 
BRANCH   6   9
ATOM      7  C   UNL     1      -0.019   1.526   0.010  0.00  0.00    +0.035 C 
ATOM      8  C   UNL     1       0.002  -0.004   0.002  0.00  0.00    +0.103 C 
ATOM      9  C   UNL     1      -1.410  -0.545   0.038  0.00  0.00    -0.037 C 
ATOM     10  C   UNL     1      -1.503  -1.275   1.172  0.00  0.00    +0.000 A 
ATOM     11  C   UNL     1      -2.599  -2.045   1.772  0.00  0.00    +0.025 A 
ATOM     12  C   UNL     1      -2.386  -2.686   2.945  0.00  0.00    +0.019 A 
ATOM     13  C   UNL     1      -1.147  -2.632   3.600  0.00  0.00    +0.017 A 
ATOM     14  C   UNL     1      -0.093  -1.946   3.111  0.00  0.00    +0.027 A 
ATOM     15  C   UNL     1      -0.205  -1.235   1.884  0.00  0.00    +0.043 A 
ATOM     16  N   UNL     1       0.658  -0.508   1.214  0.00  0.00    -0.378 N 
ATOM     17 BR   UNL     1      -3.796  -3.679   3.720  0.00  0.00    -0.050 Br
ATOM     18  H   UNL     1       1.576  -0.332   1.475  0.00  0.00    +0.160 HD
ENDBRANCH   6   9
ENDBRANCH   5   6
ENDBRANCH   1   5
BRANCH   2  19
ATOM     19  C   UNL     1      -7.120  -1.150  -2.393  0.00  0.00    +0.100 C 
BRANCH  19  20
ATOM     20  C   UNL     1      -8.392  -1.883  -1.960  0.00  0.00    +0.046 C 
BRANCH  20  21
ATOM     21  C   UNL     1      -9.476  -1.654  -2.981  0.00  0.00    -0.022 A 
ATOM     22  C   UNL     1     -10.427  -0.708  -2.938  0.00  0.00    +0.090 A 
ATOM     23  N   UNL     1     -11.234  -0.807  -4.038  0.00  0.00    -0.342 N 
ATOM     24  C   UNL     1     -10.811  -1.846  -4.837  0.00  0.00    +0.050 A 
ATOM     25  C   UNL     1      -9.688  -2.418  -4.213  0.00  0.00    +0.003 A 
ATOM     26  C   UNL     1      -9.037  -3.501  -4.807  0.00  0.00    +0.010 A 
ATOM     27  C   UNL     1      -9.495  -3.998  -5.995  0.00  0.00    +0.001 A 
ATOM     28  C   UNL     1     -10.600  -3.435  -6.617  0.00  0.00    +0.002 A 
ATOM     29  C   UNL     1     -11.262  -2.371  -6.043  0.00  0.00    +0.026 A 
BRANCH  23  30
ATOM     30  C   UNL     1     -12.377   0.063  -4.324  0.00  0.00    +0.157 C 
BRANCH  30  31
ATOM     31  C   UNL     1     -13.641  -0.587  -3.823  0.00  0.00    -0.028 A 
ATOM     32  C   UNL     1     -14.361  -1.427  -4.651  0.00  0.00    +0.005 A 
ATOM     33  C   UNL     1     -15.521  -2.024  -4.191  0.00  0.00    +0.000 A 
ATOM     34  C   UNL     1     -15.959  -1.781  -2.903  0.00  0.00    +0.000 A 
ATOM     35  C   UNL     1     -15.238  -0.941  -2.074  0.00  0.00    +0.000 A 
ATOM     36  C   UNL     1     -14.077  -0.348  -2.533  0.00  0.00    +0.005 A 
ENDBRANCH  30  31
ENDBRANCH  23  30
ENDBRANCH  20  21
ENDBRANCH  19  20
ENDBRANCH   2  19
TORSDOF 8
