REMARK  Name = ZINC03034390
REMARK  10 active torsions:
REMARK  status: ('A' for Active; 'I' for Inactive)
REMARK    1  A    between atoms: C_1  and  C_2
REMARK    2  A    between atoms: C_4  and  O_9
REMARK    3  A    between atoms: O_9  and  C_10
REMARK    4  A    between atoms: C_10  and  C_11
REMARK    5  A    between atoms: N_13  and  N_14
REMARK    6  A    between atoms: C_15  and  C_16
REMARK    7  A    between atoms: C_21  and  O_22
REMARK    8  A    between atoms: O_22  and  C_23
REMARK    9  A    between atoms: C_23  and  C_25
REMARK   10  A    between atoms: C_26  and  C_27
REMARK                            x       y       z     vdW  Elec       q    Type
REMARK                         _______ _______ _______ _____ _____    ______ ____
ROOT
ATOM      1  C   UNL     1       1.558   2.038   0.018  0.00  0.00    +0.038 A 
ATOM      2  C   UNL     1       2.869   1.556   0.032  0.00  0.00    +0.028 A 
ATOM      3  C   UNL     1       3.926   2.442   0.064  0.00  0.00    +0.019 A 
ATOM      4  C   UNL     1       3.694   3.807   0.082  0.00  0.00    +0.019 A 
ATOM      5  C   UNL     1       2.401   4.296   0.068  0.00  0.00    +0.048 A 
ATOM      6  C   UNL     1       1.328   3.421   0.030  0.00  0.00    +0.141 A 
ATOM      7 BR   UNL     1       5.701   1.788   0.084  0.00  0.00    -0.050 Br
ENDROOT
BRANCH   1   9
ATOM      8  N   UNL     1      -0.794   1.551  -0.035  0.00  0.00    -0.188 NA
ATOM      9  C   UNL     1       0.423   1.099  -0.016  0.00  0.00    +0.142 C 
BRANCH   8  12
ATOM     10  C   UNL     1      -3.136   1.127  -0.092  0.00  0.00    +0.270 C 
ATOM     11  O   UNL     1      -3.339   2.323  -0.076  0.00  0.00    -0.270 OA
ATOM     12  N   UNL     1      -1.872   0.658  -0.073  0.00  0.00    -0.204 N 
ATOM     13  H   UNL     1      -1.688  -0.427  -0.087  0.00  0.00    +0.177 HD
BRANCH  10  14
ATOM     14  C   UNL     1      -4.296   0.166  -0.133  0.00  0.00    +0.326 C 
BRANCH  14  15
ATOM     15  O   UNL     1      -5.522   0.900  -0.147  0.00  0.00    -0.483 OA
BRANCH  15  19
ATOM     16  C   UNL     1     -10.400   0.795  -0.253  0.00  0.00    +0.045 C 
ATOM     17  C   UNL     1      -9.068   0.091  -0.237  0.00  0.00    -0.029 A 
ATOM     18  C   UNL     1      -7.899   0.827  -0.199  0.00  0.00    +0.050 A 
ATOM     19  C   UNL     1      -6.673   0.178  -0.183  0.00  0.00    +0.122 A 
ATOM     20  C   UNL     1      -6.623  -1.208  -0.211  0.00  0.00    +0.047 A 
ATOM     21  C   UNL     1      -7.794  -1.940  -0.244  0.00  0.00    +0.024 A 
ATOM     22  C   UNL     1      -9.016  -1.291  -0.259  0.00  0.00    +0.044 A 
ATOM     23 CL   UNL     1     -10.486  -2.213  -0.306  0.00  0.00    -0.083 Cl
ENDBRANCH  15  19
ENDBRANCH  14  15
ENDBRANCH  10  14
ENDBRANCH   8  12
ENDBRANCH   1   9
BRANCH   6  24
ATOM     24  O   UNL     1       0.057   3.901   0.011  0.00  0.00    -0.422 OA
BRANCH  24  25
ATOM     25  C   UNL     1      -0.591   4.028   1.188  0.00  0.00    +0.337 C 
ATOM     26  O   UNL     1      -0.071   3.630   2.214  0.00  0.00    -0.245 OA
BRANCH  25  27
ATOM     27  C   UNL     1      -1.871   4.622   1.229  0.00  0.00    +0.095 C 
ATOM     28  C   UNL     1      -2.523   4.750   2.413  0.00  0.00    +0.053 C 
BRANCH  28  29
ATOM     29  C   UNL     1      -3.806   5.346   2.454  0.00  0.00    +0.128 A 
ATOM     30  C   UNL     1      -4.580   5.533   3.581  0.00  0.00    +0.049 A 
ATOM     31  C   UNL     1      -5.762   6.158   3.155  0.00  0.00    +0.042 A 
ATOM     32  C   UNL     1      -5.670   6.315   1.815  0.00  0.00    +0.195 A 
ATOM     33  O   UNL     1      -4.494   5.827   1.397  0.00  0.00    -0.464 OA
ENDBRANCH  28  29
ENDBRANCH  25  27
ENDBRANCH  24  25
ENDBRANCH   6  24
TORSDOF 9
