REMARK  Name = ZINC39920788
REMARK  7 active torsions:
REMARK  status: ('A' for Active; 'I' for Inactive)
REMARK    1  A    between atoms: C_1  and  C_2
REMARK    2  A    between atoms: C_2  and  C_3
REMARK    3  A    between atoms: C_2  and  O_4
REMARK    4  A    between atoms: O_4  and  C_5
REMARK    5  A    between atoms: C_9  and  C_11
REMARK    6  A    between atoms: C_24  and  N_25
REMARK    7  A    between atoms: N_25  and  C_26
REMARK                            x       y       z     vdW  Elec       q    Type
REMARK                         _______ _______ _______ _____ _____    ______ ____
ROOT
ATOM      1  C   UNL     1      -4.548  -3.713  -1.651  0.00  0.00    +0.057 A 
ATOM      2  C   UNL     1      -5.374  -3.720  -2.846  0.00  0.00    +0.115 A 
ATOM      3  C   UNL     1      -6.639  -4.187  -2.439  0.00  0.00    +0.155 A 
ATOM      4  C   UNL     1      -7.691  -4.295  -3.457  0.00  0.00    +0.060 A 
ATOM      5  C   UNL     1      -9.020  -4.549  -3.131  0.00  0.00    +0.015 A 
ATOM      6  C   UNL     1      -9.964  -4.624  -4.133  0.00  0.00    +0.001 A 
ATOM      7  C   UNL     1      -9.589  -4.446  -5.456  0.00  0.00    +0.004 A 
ATOM      8  C   UNL     1      -8.274  -4.199  -5.792  0.00  0.00    +0.047 A 
ATOM      9  C   UNL     1      -7.301  -4.126  -4.802  0.00  0.00    +0.143 A 
ATOM     10  O   UNL     1      -6.006  -3.923  -5.143  0.00  0.00    -0.422 OA
ATOM     11  C   UNL     1      -5.146  -3.370  -4.247  0.00  0.00    +0.349 A 
ATOM     12  O   UNL     1      -4.244  -2.630  -4.590  0.00  0.00    -0.244 OA
ATOM     13  O   UNL     1      -6.585  -4.438  -1.140  0.00  0.00    -0.440 OA
ATOM     14  C   UNL     1      -5.360  -4.170  -0.643  0.00  0.00    +0.200 A 
ENDROOT
BRANCH   1  19
ATOM     15  C   UNL     1      -1.450  -1.813  -0.685  0.00  0.00    +0.121 A 
ATOM     16  C   UNL     1      -0.471  -2.542  -1.348  0.00  0.00    +0.046 A 
ATOM     17  C   UNL     1      -0.818  -3.645  -2.105  0.00  0.00    +0.004 A 
ATOM     18  C   UNL     1      -2.140  -4.029  -2.207  0.00  0.00    +0.009 A 
ATOM     19  C   UNL     1      -3.130  -3.303  -1.544  0.00  0.00    -0.009 A 
ATOM     20  C   UNL     1      -2.778  -2.193  -0.776  0.00  0.00    +0.054 A 
BRANCH  15  21
ATOM     21  O   UNL     1      -1.103  -0.729   0.057  0.00  0.00    -0.489 OA
BRANCH  21  23
ATOM     22  C   UNL     1       0.370   1.166   0.344  0.00  0.00    +0.051 C 
ATOM     23  C   UNL     1       0.267  -0.325   0.016  0.00  0.00    +0.167 C 
ATOM     24  C   UNL     1       1.067  -1.129   1.043  0.00  0.00    +0.051 C 
ENDBRANCH  21  23
ENDBRANCH  15  21
ENDBRANCH   1  19
BRANCH  14  25
ATOM     25  N   UNL     1      -4.980  -4.330   0.680  0.00  0.00    -0.285 N 
ATOM     26  H   UNL     1      -4.104  -4.033   0.972  0.00  0.00    +0.155 HD
BRANCH  25  27
ATOM     27  C   UNL     1      -5.858  -4.920   1.593  0.00  0.00    +0.034 A 
ATOM     28  C   UNL     1      -5.818  -4.555   2.933  0.00  0.00    +0.023 A 
ATOM     29  C   UNL     1      -6.687  -5.140   3.832  0.00  0.00    +0.002 A 
ATOM     30  C   UNL     1      -7.597  -6.088   3.400  0.00  0.00    +0.000 A 
ATOM     31  C   UNL     1      -7.640  -6.453   2.067  0.00  0.00    +0.002 A 
ATOM     32  C   UNL     1      -6.777  -5.868   1.161  0.00  0.00    +0.023 A 
ENDBRANCH  25  27
ENDBRANCH  14  25
TORSDOF 5
