REMARK  Name = ZINC39609731
REMARK  6 active torsions:
REMARK  status: ('A' for Active; 'I' for Inactive)
REMARK    1  A    between atoms: C_3  and  O_8
REMARK    2  A    between atoms: O_8  and  C_9
REMARK    3  A    between atoms: C_9  and  C_10
REMARK    4  A    between atoms: C_14  and  C_23
REMARK    5  A    between atoms: N_25  and  C_26
REMARK    6  A    between atoms: C_26  and  C_27
REMARK                            x       y       z     vdW  Elec       q    Type
REMARK                         _______ _______ _______ _____ _____    ______ ____
ROOT
ATOM      1  C   UNL     1       5.813   2.011   0.069  0.00  0.00    +0.253 C 
ATOM      2  O   UNL     1       5.542   3.192   0.112  0.00  0.00    -0.272 OA
ATOM      3  N   UNL     1       7.101   1.617   0.015  0.00  0.00    -0.297 N 
ATOM      4  C   UNL     1       7.625   0.232  -0.050  0.00  0.00    +0.121 C 
ATOM      5  C   UNL     1       8.815   0.310  -1.033  0.00  0.00    +0.100 C 
ATOM      6  C   UNL     1       9.263   1.781  -0.991  0.00  0.00    -0.004 C 
ATOM      7  C   UNL     1       8.313   2.471  -0.001  0.00  0.00    +0.115 C 
ATOM      8  C   UNL     1       9.127   2.415  -2.372  0.00  0.00    -0.010 C 
ATOM      9  C   UNL     1       9.632   3.860  -2.317  0.00  0.00    -0.082 C 
ATOM     10  N   UNL     1      11.035   3.873  -1.886  0.00  0.00    +0.379 N 
ATOM     11  C   UNL     1      11.145   3.348  -0.520  0.00  0.00    -0.082 C 
ATOM     12  C   UNL     1      10.704   1.881  -0.499  0.00  0.00    -0.010 C 
ATOM     13  H   UNL     1      11.583   3.301  -2.510  0.00  0.00    -0.086 HD
ATOM     14  H   UNL     1      11.383   4.820  -1.909  0.00  0.00    -0.086 HD
ENDROOT
BRANCH   5  15
ATOM     15  C   UNL     1       8.372  -0.066  -2.423  0.00  0.00    +0.218 C 
ATOM     16  O   UNL     1       7.233   0.153  -2.777  0.00  0.00    -0.275 OA
ATOM     17  N   UNL     1       9.242  -0.645  -3.274  0.00  0.00    -0.311 N 
ATOM     18  H   UNL     1      10.154  -0.820  -2.991  0.00  0.00    +0.149 HD
BRANCH  17  19
ATOM     19  C   UNL     1       8.812  -1.011  -4.626  0.00  0.00    +0.139 C 
BRANCH  19  20
ATOM     20  C   UNL     1       9.965  -1.637  -5.368  0.00  0.00    -0.029 A 
ATOM     21  C   UNL     1      10.827  -0.843  -6.101  0.00  0.00    +0.007 A 
ATOM     22  C   UNL     1      11.884  -1.416  -6.782  0.00  0.00    +0.022 A 
ATOM     23  C   UNL     1      12.081  -2.784  -6.731  0.00  0.00    +0.059 A 
ATOM     24  C   UNL     1      11.217  -3.579  -5.996  0.00  0.00    +0.060 A 
ATOM     25  C   UNL     1      10.162  -3.003  -5.310  0.00  0.00    +0.026 A 
ATOM     26 CL   UNL     1      11.462  -5.297  -5.931  0.00  0.00    -0.082 Cl
ATOM     27 CL   UNL     1      13.408  -3.504  -7.587  0.00  0.00    -0.082 Cl
ENDBRANCH  19  20
ENDBRANCH  17  19
ENDBRANCH   5  15
BRANCH   1  28
ATOM     28  C   UNL     1       4.711   0.984   0.075  0.00  0.00    +0.324 C 
BRANCH  28  29
ATOM     29  O   UNL     1       3.445   1.644   0.137  0.00  0.00    -0.483 OA
BRANCH  29  32
ATOM     30  C   UNL     1      -0.048   0.628   0.223  0.00  0.00    +0.005 A 
ATOM     31  C   UNL     1       1.077   1.431   0.209  0.00  0.00    +0.046 A 
ATOM     32  C   UNL     1       2.338   0.856   0.150  0.00  0.00    +0.123 A 
ATOM     33  C   UNL     1       2.467  -0.524   0.105  0.00  0.00    +0.065 A 
ATOM     34  C   UNL     1       1.340  -1.324   0.119  0.00  0.00    +0.044 A 
ATOM     35  C   UNL     1       0.083  -0.747   0.177  0.00  0.00    +0.020 A 
ATOM     36 CL   UNL     1       1.500  -3.051   0.062  0.00  0.00    -0.083 Cl
ENDBRANCH  29  32
ENDBRANCH  28  29
ENDBRANCH   1  28
TORSDOF 6
