REMARK  Name = ZINC01896396
REMARK  6 active torsions:
REMARK  status: ('A' for Active; 'I' for Inactive)
REMARK    1  A    between atoms: C_3  and  O_30
REMARK    2  A    between atoms: C_6  and  C_7
REMARK    3  A    between atoms: C_13  and  C_15
REMARK    4  A    between atoms: O_30  and  C_31
REMARK    5  A    between atoms: C_31  and  C_32
REMARK    6  A    between atoms: C_32  and  O_33
REMARK                            x       y       z     vdW  Elec       q    Type
REMARK                         _______ _______ _______ _____ _____    ______ ____
ROOT
ATOM      1  C   UNL     1      -1.293  -0.774   0.011  0.00  0.00    +0.294 C 
ATOM      2  N   UNL     1      -1.103  -2.054   0.656  0.00  0.00    -0.175 NA
ATOM      3  C   UNL     1      -2.438  -2.710   0.813  0.00  0.00    +0.138 C 
ATOM      4  C   UNL     1      -2.047  -3.902   1.644  0.00  0.00    +0.023 C 
ATOM      5  C   UNL     1      -0.928  -3.503   2.293  0.00  0.00    +0.047 C 
ATOM      6  N   UNL     1      -0.609  -2.179   1.909  0.00  0.00    -0.273 N 
ATOM      7  C   UNL     1      -2.929  -2.970  -0.573  0.00  0.00    +0.018 A 
ATOM      8  C   UNL     1      -3.736  -4.046  -0.867  0.00  0.00    +0.024 A 
ATOM      9  C   UNL     1      -4.181  -4.247  -2.162  0.00  0.00    +0.018 A 
ATOM     10  C   UNL     1      -3.813  -3.364  -3.161  0.00  0.00    +0.019 A 
ATOM     11  C   UNL     1      -3.001  -2.287  -2.872  0.00  0.00    +0.047 A 
ATOM     12  C   UNL     1      -2.545  -2.080  -1.575  0.00  0.00    +0.128 A 
ATOM     13  O   UNL     1      -1.714  -1.043  -1.339  0.00  0.00    -0.468 OA
ATOM     14 BR   UNL     1      -5.287  -5.727  -2.565  0.00  0.00    -0.050 Br
ATOM     15  H   UNL     1      -0.138  -1.508   2.429  0.00  0.00    +0.167 HD
ENDROOT
BRANCH   5  16
ATOM     16  C   UNL     1      -0.159  -4.324   3.256  0.00  0.00    -0.003 A 
ATOM     17  C   UNL     1      -0.570  -5.623   3.553  0.00  0.00    +0.011 A 
ATOM     18  C   UNL     1       0.151  -6.384   4.450  0.00  0.00    +0.020 A 
ATOM     19  C   UNL     1       1.281  -5.859   5.056  0.00  0.00    +0.041 A 
ATOM     20  C   UNL     1       1.693  -4.570   4.765  0.00  0.00    +0.020 A 
ATOM     21  C   UNL     1       0.983  -3.803   3.865  0.00  0.00    +0.011 A 
ATOM     22 CL   UNL     1       2.183  -6.822   6.185  0.00  0.00    -0.084 Cl
ENDBRANCH   5  16
BRANCH   1  28
ATOM     23  C   UNL     1      -0.017   1.378   0.010  0.00  0.00    +0.012 A 
ATOM     24  C   UNL     1       1.169   2.087   0.002  0.00  0.00    +0.046 A 
ATOM     25  C   UNL     1       2.380   1.409  -0.013  0.00  0.00    +0.121 A 
ATOM     26  C   UNL     1       2.396   0.022  -0.021  0.00  0.00    +0.046 A 
ATOM     27  C   UNL     1       1.207  -0.681  -0.013  0.00  0.00    +0.012 A 
ATOM     28  C   UNL     1       0.002  -0.004   0.002  0.00  0.00    +0.009 A 
BRANCH  25  29
ATOM     29  O   UNL     1       3.548   2.104  -0.021  0.00  0.00    -0.490 OA
BRANCH  29  30
ATOM     30  C   UNL     1       4.756   1.341  -0.036  0.00  0.00    +0.256 C 
BRANCH  30  31
ATOM     31  C   UNL     1       5.958   2.288  -0.043  0.00  0.00    +0.196 C 
BRANCH  31  32
ATOM     32  O   UNL     1       5.991   3.024   1.181  0.00  0.00    -0.392 OA
ATOM     33  H   UNL     1       6.729   3.646   1.246  0.00  0.00    +0.210 HD
ENDBRANCH  31  32
ENDBRANCH  30  31
ENDBRANCH  29  30
ENDBRANCH  25  29
ENDBRANCH   1  28
TORSDOF 6
