REMARK  Name = ZINC28120812
REMARK  15 active torsions:
REMARK  status: ('A' for Active; 'I' for Inactive)
REMARK    1  A    between atoms: C_1  and  C_2
REMARK    2  A    between atoms: C_2  and  C_3
REMARK    3  A    between atoms: C_8  and  C_26
REMARK    4  A    between atoms: C_9  and  C_23
REMARK    5  A    between atoms: C_12  and  C_15
REMARK    6  A    between atoms: C_13  and  O_14
REMARK    7  A    between atoms: C_15  and  N_16
REMARK    8  A    between atoms: N_16  and  C_17
REMARK    9  A    between atoms: N_16  and  C_20
REMARK   10  A    between atoms: C_17  and  C_18
REMARK   11  A    between atoms: C_18  and  O_19
REMARK   12  A    between atoms: C_20  and  C_21
REMARK   13  A    between atoms: C_21  and  O_22
REMARK   14  A    between atoms: C_23  and  C_24
REMARK   15  A    between atoms: C_23  and  C_25
REMARK                            x       y       z     vdW  Elec       q    Type
REMARK                         _______ _______ _______ _____ _____    ______ ____
ROOT
ATOM      1  C   UNL     1      -1.116  -5.364  -1.069  0.00  0.00    -0.005 A 
ATOM      2  C   UNL     1      -0.661  -5.910   0.097  0.00  0.00    +0.022 A 
ATOM      3  C   UNL     1      -0.687  -5.157   1.271  0.00  0.00    +0.065 A 
ATOM      4  C   UNL     1      -0.204  -5.714   2.548  0.00  0.00    +0.202 A 
ATOM      5  O   UNL     1       0.232  -6.849   2.625  0.00  0.00    -0.286 OA
ATOM      6  C   UNL     1      -0.276  -4.831   3.726  0.00  0.00    +0.093 A 
ATOM      7  C   UNL     1      -0.775  -3.574   3.571  0.00  0.00    +0.122 A 
ATOM      8  O   UNL     1      -1.200  -3.111   2.394  0.00  0.00    -0.458 OA
ATOM      9  C   UNL     1      -1.177  -3.839   1.260  0.00  0.00    +0.144 A 
ATOM     10  C   UNL     1      -1.635  -3.299   0.066  0.00  0.00    +0.021 A 
ATOM     11  C   UNL     1      -1.609  -4.061  -1.090  0.00  0.00    +0.125 A 
ENDROOT
BRANCH   6  12
ATOM     12  C   UNL     1       0.183  -5.301   5.048  0.00  0.00    +0.116 A 
ATOM     13  N   UNL     1       0.179  -4.663   6.199  0.00  0.00    -0.239 NA
ATOM     14  C   UNL     1       0.630  -5.222   7.339  0.00  0.00    +0.079 A 
ATOM     15  C   UNL     1       0.677  -4.652   8.634  0.00  0.00    +0.029 A 
ATOM     16  C   UNL     1       1.173  -5.355   9.687  0.00  0.00    +0.002 A 
ATOM     17  C   UNL     1       1.650  -6.649   9.540  0.00  0.00    +0.001 A 
ATOM     18  C   UNL     1       1.622  -7.244   8.292  0.00  0.00    +0.017 A 
ATOM     19  C   UNL     1       1.123  -6.543   7.221  0.00  0.00    +0.040 A 
ATOM     20  S   UNL     1       0.895  -6.880   5.492  0.00  0.00    -0.067 S 
ENDBRANCH   6  12
BRANCH   7  21
ATOM     21  C   UNL     1      -0.848  -2.670   4.774  0.00  0.00    +0.050 C 
ATOM     22  C   UNL     1       0.478  -1.923   4.934  0.00  0.00    +0.015 C 
ATOM     23  C   UNL     1      -1.982  -1.660   4.585  0.00  0.00    +0.015 C 
ENDBRANCH   7  21
BRANCH   1  25
ATOM     24  C   UNL     1       0.191  -5.865  -3.116  0.00  0.00    +0.009 C 
ATOM     25  C   UNL     1      -1.089  -6.176  -2.339  0.00  0.00    +0.035 C 
ENDBRANCH   1  25
BRANCH  11  26
ATOM     26  O   UNL     1      -2.063  -3.532  -2.255  0.00  0.00    -0.506 OA
ATOM     27  H   UNL     1      -2.454  -2.504  -2.276  0.00  0.00    +0.292 HD
ENDBRANCH  11  26
BRANCH  10  28
ATOM     28  C   UNL     1      -2.165  -1.889   0.029  0.00  0.00    -0.035 C 
BRANCH  28  29
ATOM     29  N   UNL     1      -1.050  -0.951  -0.161  0.00  0.00    +0.385 N 
ATOM     30  H   UNL     1      -1.453   0.070  -0.102  0.00  0.00    -0.081 HD
BRANCH  29  31
ATOM     31  C   UNL     1      -0.048  -1.103   0.903  0.00  0.00    -0.050 C 
BRANCH  31  32
ATOM     32  C   UNL     1       0.963   0.043   0.819  0.00  0.00    +0.137 C 
BRANCH  32  33
ATOM     33  O   UNL     1       0.304   1.280   1.094  0.00  0.00    -0.397 OA
ATOM     34  H   UNL     1       0.873   2.222   1.079  0.00  0.00    +0.209 HD
ENDBRANCH  32  33
ENDBRANCH  31  32
ENDBRANCH  29  31
BRANCH  29  35
ATOM     35  C   UNL     1      -0.439  -1.120  -1.486  0.00  0.00    -0.050 C 
BRANCH  35  36
ATOM     36  C   UNL     1      -1.382  -0.565  -2.556  0.00  0.00    +0.137 C 
BRANCH  36  37
ATOM     37  O   UNL     1      -1.550   0.841  -2.359  0.00  0.00    -0.397 OA
ATOM     38  H   UNL     1      -2.197   1.417  -3.036  0.00  0.00    +0.209 HD
ENDBRANCH  36  37
ENDBRANCH  35  36
ENDBRANCH  29  35
ENDBRANCH  28  29
ENDBRANCH  10  28
TORSDOF 12
