REMARK  Name = ZINC60330185
REMARK  10 active torsions:
REMARK  status: ('A' for Active; 'I' for Inactive)
REMARK    1  A    between atoms: C_1  and  C_2
REMARK    2  A    between atoms: C_2  and  C_4
REMARK    3  A    between atoms: C_2  and  O_11
REMARK    4  A    between atoms: O_11  and  C_12
REMARK    5  A    between atoms: C_12  and  C_13
REMARK    6  A    between atoms: C_13  and  C_15
REMARK    7  A    between atoms: C_13  and  O_35
REMARK    8  A    between atoms: C_15  and  N_16
REMARK    9  A    between atoms: N_23  and  C_25
REMARK   10  A    between atoms: C_25  and  C_26
REMARK                            x       y       z     vdW  Elec       q    Type
REMARK                         _______ _______ _______ _____ _____    ______ ____
ROOT
ATOM      1  N   UNL     1      -5.154  -2.190   2.493  0.00  0.00    -0.222 N 
ATOM      2  C   UNL     1      -6.314  -1.500   2.495  0.00  0.00    +0.245 C 
ATOM      3  O   UNL     1      -6.454  -0.300   2.589  0.00  0.00    -0.273 OA
ATOM      4  C   UNL     1      -7.402  -2.540   2.356  0.00  0.00    +0.098 C 
ATOM      5  C   UNL     1      -8.200  -2.308   1.076  0.00  0.00    +0.031 C 
ATOM      6  C   UNL     1      -9.319  -3.352   0.987  0.00  0.00    -0.016 C 
ATOM      7  C   UNL     1     -10.180  -3.274   2.249  0.00  0.00    -0.078 C 
ATOM      8  N   UNL     1      -9.353  -3.553   3.430  0.00  0.00    +0.384 N 
ATOM      9  C   UNL     1      -8.321  -2.518   3.571  0.00  0.00    -0.043 C 
ATOM     10  N   UNL     1      -6.673  -3.813   2.284  0.00  0.00    -0.287 N 
ATOM     11  C   UNL     1      -5.364  -3.506   2.367  0.00  0.00    +0.309 C 
ATOM     12  O   UNL     1      -4.473  -4.333   2.334  0.00  0.00    -0.252 OA
ATOM     13  H   UNL     1      -7.058  -4.698   2.191  0.00  0.00    +0.151 HD
ATOM     14  H   UNL     1      -8.912  -4.455   3.325  0.00  0.00    -0.081 HD
ENDROOT
BRANCH   1  15
ATOM     15  C   UNL     1      -3.830  -1.575   2.607  0.00  0.00    +0.151 C 
BRANCH  15  16
ATOM     16  C   UNL     1      -3.303  -1.234   1.212  0.00  0.00    +0.158 C 
BRANCH  16  17
ATOM     17  O   UNL     1      -4.135  -0.234   0.620  0.00  0.00    -0.388 OA
ATOM     18  H   UNL     1      -4.173   0.593   1.120  0.00  0.00    +0.210 HD
ENDBRANCH  16  17
BRANCH  16  19
ATOM     19  C   UNL     1      -1.871  -0.707   1.322  0.00  0.00    +0.193 C 
BRANCH  19  20
ATOM     20  O   UNL     1      -1.339  -0.499   0.012  0.00  0.00    -0.370 OA
BRANCH  20  22
ATOM     21  C   UNL     1      -0.019   1.526   0.010  0.00  0.00    +0.043 C 
ATOM     22  C   UNL     1       0.002  -0.004   0.002  0.00  0.00    +0.145 C 
BRANCH  22  23
ATOM     23  C   UNL     1       0.707  -0.490  -1.238  0.00  0.00    -0.019 A 
ATOM     24  C   UNL     1       0.037  -0.521  -2.447  0.00  0.00    +0.007 A 
ATOM     25  C   UNL     1       0.684  -0.967  -3.584  0.00  0.00    +0.020 A 
ATOM     26  C   UNL     1       2.002  -1.382  -3.513  0.00  0.00    +0.041 A 
ATOM     27  C   UNL     1       2.672  -1.350  -2.303  0.00  0.00    +0.020 A 
ATOM     28  C   UNL     1       2.026  -0.899  -1.167  0.00  0.00    +0.007 A 
ATOM     29 CL   UNL     1       2.814  -1.942  -4.941  0.00  0.00    -0.084 Cl
ENDBRANCH  22  23
ENDBRANCH  20  22
ENDBRANCH  19  20
ENDBRANCH  16  19
ENDBRANCH  15  16
ENDBRANCH   1  15
BRANCH   8  30
ATOM     30  C   UNL     1     -10.202  -3.563   4.629  0.00  0.00    -0.043 C 
BRANCH  30  31
ATOM     31  C   UNL     1     -11.178  -4.709   4.544  0.00  0.00    -0.064 A 
ATOM     32  C   UNL     1     -12.411  -4.524   3.948  0.00  0.00    +0.002 A 
ATOM     33  C   UNL     1     -13.306  -5.575   3.870  0.00  0.00    +0.000 A 
ATOM     34  C   UNL     1     -12.967  -6.811   4.388  0.00  0.00    +0.000 A 
ATOM     35  C   UNL     1     -11.733  -6.996   4.984  0.00  0.00    +0.000 A 
ATOM     36  C   UNL     1     -10.837  -5.946   5.058  0.00  0.00    +0.002 A 
ENDBRANCH  30  31
ENDBRANCH   8  30
TORSDOF 9
