REMARK  Name = ZINC39911190
REMARK  13 active torsions:
REMARK  status: ('A' for Active; 'I' for Inactive)
REMARK    1  A    between atoms: C_1  and  C_2
REMARK    2  A    between atoms: C_2  and  C_3
REMARK    3  A    between atoms: C_3  and  C_4
REMARK    4  A    between atoms: C_4  and  C_5
REMARK    5  A    between atoms: C_5  and  O_6
REMARK    6  A    between atoms: O_6  and  C_7
REMARK    7  A    between atoms: C_10  and  C_15
REMARK    8  A    between atoms: C_12  and  O_13
REMARK    9  A    between atoms: O_13  and  C_14
REMARK   10  A    between atoms: C_22  and  C_40
REMARK   11  A    between atoms: C_24  and  C_39
REMARK   12  A    between atoms: N_30  and  C_31
REMARK   13  A    between atoms: C_31  and  C_32
REMARK                            x       y       z     vdW  Elec       q    Type
REMARK                         _______ _______ _______ _____ _____    ______ ____
ROOT
ATOM      1  C   UNL     1      -7.818  -6.645   0.041  0.00  0.00    +0.145 C 
ATOM      2  C   UNL     1      -8.424  -6.614  -1.324  0.00  0.00    +0.072 A 
ATOM      3  C   UNL     1      -7.951  -7.151  -2.604  0.00  0.00    +0.199 A 
ATOM      4  O   UNL     1      -6.993  -7.897  -2.701  0.00  0.00    -0.287 OA
ATOM      5  C   UNL     1      -8.751  -6.700  -3.770  0.00  0.00    +0.065 A 
ATOM      6  C   UNL     1      -8.315  -6.959  -5.069  0.00  0.00    +0.018 A 
ATOM      7  C   UNL     1      -9.061  -6.532  -6.133  0.00  0.00    -0.049 A 
ATOM      8  C   UNL     1     -10.247  -5.843  -5.922  0.00  0.00    +0.010 A 
ATOM      9  C   UNL     1     -10.694  -5.580  -4.647  0.00  0.00    -0.007 A 
ATOM     10  C   UNL     1      -9.952  -6.007  -3.545  0.00  0.00    +0.142 A 
ATOM     11  O   UNL     1     -10.415  -5.747  -2.301  0.00  0.00    -0.449 OA
ATOM     12  C   UNL     1      -9.611  -5.944  -1.237  0.00  0.00    +0.199 A 
ATOM     13  C   UNL     1      -9.803  -5.522   0.162  0.00  0.00    +0.283 C 
ATOM     14  O   UNL     1     -10.760  -4.900   0.576  0.00  0.00    -0.267 OA
ATOM     15  N   UNL     1      -8.760  -5.929   0.917  0.00  0.00    -0.279 N 
ATOM     16  C   UNL     1     -11.985  -4.830  -4.440  0.00  0.00    +0.047 C 
ATOM     17  C   UNL     1      -8.593  -6.810  -7.538  0.00  0.00    +0.044 C 
ENDROOT
BRANCH   1  21
ATOM     18  C   UNL     1      -4.032  -4.656   0.016  0.00  0.00    +0.162 A 
ATOM     19  C   UNL     1      -5.205  -3.918   0.025  0.00  0.00    +0.050 A 
ATOM     20  C   UNL     1      -6.427  -4.564   0.033  0.00  0.00    +0.009 A 
ATOM     21  C   UNL     1      -6.482  -5.946   0.032  0.00  0.00    -0.019 A 
ATOM     22  C   UNL     1      -5.316  -6.687   0.023  0.00  0.00    +0.055 A 
ATOM     23  C   UNL     1      -4.088  -6.046   0.009  0.00  0.00    +0.162 A 
BRANCH  23  24
ATOM     24  O   UNL     1      -2.939  -6.774  -0.006  0.00  0.00    -0.491 OA
ATOM     25  C   UNL     1      -3.073  -8.197  -0.013  0.00  0.00    +0.277 C 
ENDBRANCH  23  24
BRANCH  18  26
ATOM     26  O   UNL     1      -2.829  -4.022   0.007  0.00  0.00    -0.488 OA
BRANCH  26  27
ATOM     27  C   UNL     1      -2.848  -2.593   0.015  0.00  0.00    +0.229 C 
BRANCH  27  28
ATOM     28  C   UNL     1      -1.413  -2.063   0.004  0.00  0.00    +0.041 C 
BRANCH  28  29
ATOM     29  C   UNL     1      -1.433  -0.534   0.013  0.00  0.00    +0.003 C 
BRANCH  29  31
ATOM     30  C   UNL     1      -0.019   1.526   0.010  0.00  0.00    +0.004 C 
ATOM     31  C   UNL     1       0.002  -0.004   0.002  0.00  0.00    -0.003 C 
ENDBRANCH  29  31
ENDBRANCH  28  29
ENDBRANCH  27  28
ENDBRANCH  26  27
ENDBRANCH  18  26
ENDBRANCH   1  21
BRANCH  15  32
ATOM     32  C   UNL     1      -8.593  -5.699   2.354  0.00  0.00    +0.144 C 
BRANCH  32  33
ATOM     33  C   UNL     1      -7.863  -4.399   2.573  0.00  0.00    -0.030 A 
ATOM     34  C   UNL     1      -6.482  -4.385   2.640  0.00  0.00    +0.008 A 
ATOM     35  C   UNL     1      -5.811  -3.194   2.841  0.00  0.00    +0.038 A 
ATOM     36  C   UNL     1      -6.523  -2.014   2.975  0.00  0.00    +0.123 A 
ATOM     37  C   UNL     1      -7.906  -2.029   2.908  0.00  0.00    +0.038 A 
ATOM     38  C   UNL     1      -8.574  -3.220   2.701  0.00  0.00    +0.008 A 
ATOM     39  F   UNL     1      -5.868  -0.848   3.172  0.00  0.00    -0.205 F 
ENDBRANCH  32  33
ENDBRANCH  15  32
TORSDOF 9
