REMARK  Name = ZINC08636448
REMARK  8 active torsions:
REMARK  status: ('A' for Active; 'I' for Inactive)
REMARK    1  A    between atoms: C_1  and  C_2
REMARK    2  A    between atoms: C_4  and  C_34
REMARK    3  A    between atoms: C_6  and  N_8
REMARK    4  A    between atoms: C_11  and  C_25
REMARK    5  A    between atoms: C_14  and  O_24
REMARK    6  A    between atoms: C_16  and  O_23
REMARK    7  A    between atoms: N_27  and  C_28
REMARK    8  A    between atoms: C_28  and  C_29
REMARK                            x       y       z     vdW  Elec       q    Type
REMARK                         _______ _______ _______ _____ _____    ______ ____
ROOT
ATOM      1  N   UNL     1      -2.598   1.272  -0.377  0.00  0.00    -0.277 N 
ATOM      2  C   UNL     1      -3.929   1.852  -0.195  0.00  0.00    +0.115 C 
ATOM      3  C   UNL     1      -3.997   2.978   0.770  0.00  0.00    +0.100 C 
ATOM      4  C   UNL     1      -4.435   2.610   2.168  0.00  0.00    +0.048 C 
ATOM      5  C   UNL     1      -5.639   1.691   2.160  0.00  0.00    +0.146 C 
ATOM      6  C   UNL     1      -5.405   0.443   1.347  0.00  0.00    +0.165 C 
ATOM      7  C   UNL     1      -4.865   0.676  -0.044  0.00  0.00    +0.124 C 
ATOM      8  N   UNL     1      -4.008  -0.481  -0.401  0.00  0.00    -0.319 N 
ATOM      9  C   UNL     1      -2.741  -0.056  -0.524  0.00  0.00    +0.138 C 
ATOM     10  S   UNL     1      -1.429  -1.109  -0.839  0.00  0.00    -0.018 S 
ATOM     11  H   UNL     1      -4.312  -1.393  -0.525  0.00  0.00    +0.148 HD
ENDROOT
BRANCH   1  17
ATOM     12  C   UNL     1       0.294   4.679  -2.427  0.00  0.00    +0.044 C 
ATOM     13  C   UNL     1       0.039   3.633  -1.372  0.00  0.00    -0.048 A 
ATOM     14  C   UNL     1       1.004   3.363  -0.419  0.00  0.00    +0.006 A 
ATOM     15  C   UNL     1       0.774   2.405   0.550  0.00  0.00    -0.048 A 
ATOM     16  C   UNL     1      -0.420   1.712   0.570  0.00  0.00    +0.027 A 
ATOM     17  C   UNL     1      -1.389   1.976  -0.390  0.00  0.00    +0.036 A 
ATOM     18  C   UNL     1      -1.158   2.944  -1.358  0.00  0.00    +0.027 A 
ATOM     19  C   UNL     1       1.829   2.115   1.587  0.00  0.00    +0.044 C 
ENDBRANCH   1  17
BRANCH   3  20
ATOM     20  C   UNL     1      -2.630   3.606   0.853  0.00  0.00    +0.218 C 
ATOM     21  O   UNL     1      -1.746   3.054   1.473  0.00  0.00    -0.275 OA
ATOM     22  N   UNL     1      -2.390   4.782   0.240  0.00  0.00    -0.310 N 
ATOM     23  H   UNL     1      -3.063   5.173  -0.340  0.00  0.00    +0.149 HD
BRANCH  22  24
ATOM     24  C   UNL     1      -1.114   5.470   0.449  0.00  0.00    +0.146 C 
BRANCH  24  25
ATOM     25  C   UNL     1      -1.177   6.844  -0.168  0.00  0.00    +0.007 A 
ATOM     26  C   UNL     1      -1.572   8.013   0.391  0.00  0.00    +0.013 A 
ATOM     27  C   UNL     1      -1.546   9.165  -0.373  0.00  0.00    +0.008 A 
ATOM     28  C   UNL     1      -1.126   9.090  -1.660  0.00  0.00    +0.045 A 
ATOM     29  S   UNL     1      -0.743   7.354  -1.823  0.00  0.00    -0.100 S 
ENDBRANCH  24  25
ENDBRANCH  22  24
ENDBRANCH   3  20
BRANCH   6  30
ATOM     30  O   UNL     1      -4.483  -0.388   2.054  0.00  0.00    -0.387 OA
ATOM     31  H   UNL     1      -4.751  -0.590   2.962  0.00  0.00    +0.210 HD
ENDBRANCH   6  30
BRANCH   5  32
ATOM     32  O   UNL     1      -6.755   2.396   1.614  0.00  0.00    -0.389 OA
ATOM     33  H   UNL     1      -6.971   3.214   2.083  0.00  0.00    +0.210 HD
ENDBRANCH   5  32
TORSDOF 6
