REMARK  Name = ZINC00257812
REMARK  1 active torsions:
REMARK  status: ('A' for Active; 'I' for Inactive)
REMARK    1  A    between atoms: C_3  and  C_6
REMARK                            x       y       z     vdW  Elec       q    Type
REMARK                         _______ _______ _______ _____ _____    ______ ____
ROOT
ATOM      1  C   UNL     1       4.825   1.784   3.684  0.00  0.00    +0.066 C 
ATOM      2  C   UNL     1       3.805   1.365   2.884  0.00  0.00    +0.083 A 
ATOM      3  C   UNL     1       3.380   1.873   1.573  0.00  0.00    +0.267 A 
ATOM      4  O   UNL     1       3.966   2.798   1.040  0.00  0.00    -0.266 OA
ATOM      5  N   UNL     1       2.335   1.294   0.982  0.00  0.00    -0.287 N 
ATOM      6  C   UNL     1       1.718   0.232   1.633  0.00  0.00    +0.172 A 
ATOM      7  N   UNL     1       0.709  -0.452   1.205  0.00  0.00    -0.261 NA
ATOM      8  C   UNL     1       0.130  -0.118  -0.105  0.00  0.00    +0.146 C 
ATOM      9  C   UNL     1       0.313   1.377  -0.378  0.00  0.00    +0.045 C 
ATOM     10  C   UNL     1       1.801   1.738  -0.334  0.00  0.00    +0.129 C 
ATOM     11  S   UNL     1       2.625   0.047   3.146  0.00  0.00    -0.046 S 
ENDROOT
BRANCH   1  14
ATOM     12  C   UNL     1       7.033   4.619   3.350  0.00  0.00    +0.042 A 
ATOM     13  C   UNL     1       6.669   3.429   4.001  0.00  0.00    +0.049 A 
ATOM     14  C   UNL     1       5.538   2.963   3.362  0.00  0.00    +0.129 A 
ATOM     15  O   UNL     1       5.231   3.835   2.380  0.00  0.00    -0.463 OA
ATOM     16  C   UNL     1       6.128   4.831   2.370  0.00  0.00    +0.195 A 
ENDBRANCH   1  14
TORSDOF 1
