REMARK  Name = ZINC63009632
REMARK  7 active torsions:
REMARK  status: ('A' for Active; 'I' for Inactive)
REMARK    1  A    between atoms: C_1  and  C_2
REMARK    2  A    between atoms: C_2  and  C_3
REMARK    3  A    between atoms: C_3  and  C_5
REMARK    4  A    between atoms: C_3  and  C_6
REMARK    5  A    between atoms: C_6  and  N_7
REMARK    6  A    between atoms: N_10  and  C_11
REMARK    7  A    between atoms: C_14  and  C_18
REMARK                            x       y       z     vdW  Elec       q    Type
REMARK                         _______ _______ _______ _____ _____    ______ ____
ROOT
ATOM      1  N   UNL     1       1.652  -2.481  -2.342  0.00  0.00    -0.299 N 
ATOM      2  C   UNL     1       1.887  -3.797  -2.510  0.00  0.00    +0.304 C 
ATOM      3  O   UNL     1       1.447  -4.601  -1.712  0.00  0.00    -0.253 OA
ATOM      4  N   UNL     1       2.611  -4.222  -3.565  0.00  0.00    -0.267 N 
ATOM      5  H   UNL     1       2.003  -1.839  -2.979  0.00  0.00    +0.150 HD
ATOM      6  H   UNL     1       2.893  -3.591  -4.246  0.00  0.00    +0.156 HD
ENDROOT
BRANCH   4   7
ATOM      7  C   UNL     1       2.955  -5.569  -3.677  0.00  0.00    +0.070 A 
ATOM      8  C   UNL     1       3.031  -6.363  -2.537  0.00  0.00    +0.027 A 
ATOM      9  C   UNL     1       3.370  -7.692  -2.643  0.00  0.00    +0.017 A 
ATOM     10  C   UNL     1       3.639  -8.247  -3.900  0.00  0.00    +0.066 A 
ATOM     11  C   UNL     1       3.562  -7.446  -5.045  0.00  0.00    +0.055 A 
ATOM     12  C   UNL     1       3.216  -6.117  -4.931  0.00  0.00    +0.145 A 
ATOM     13  F   UNL     1       3.136  -5.344  -6.036  0.00  0.00    -0.204 F 
BRANCH  10  14
ATOM     14  C   UNL     1       4.002  -9.668  -4.016  0.00  0.00    +0.387 C 
ATOM     15  O   UNL     1       4.069 -10.367  -3.014  0.00  0.00    -0.241 OA
ATOM     16  O   UNL     1       4.237 -10.152  -5.116  0.00  0.00    -0.241 OA
ENDBRANCH  10  14
ENDBRANCH   4   7
BRANCH   1  17
ATOM     17  C   UNL     1       0.865  -2.019  -1.195  0.00  0.00    +0.109 C 
BRANCH  17  18
ATOM     18  C   UNL     1       0.747  -0.494  -1.239  0.00  0.00    +0.003 C 
ATOM     19  C   UNL     1      -0.056  -0.080  -2.474  0.00  0.00    +0.009 C 
BRANCH  18  21
ATOM     20  C   UNL     1       0.025   1.528   0.038  0.00  0.00    +0.004 C 
ATOM     21  C   UNL     1       0.033  -0.001   0.021  0.00  0.00    +0.001 C 
ENDBRANCH  18  21
ENDBRANCH  17  18
ENDBRANCH   1  17
TORSDOF 5
