REMARK  Name = ZINC20807109
REMARK  11 active torsions:
REMARK  status: ('A' for Active; 'I' for Inactive)
REMARK    1  A    between atoms: C_1  and  C_2
REMARK    2  A    between atoms: C_2  and  C_33
REMARK    3  A    between atoms: C_6  and  C_7
REMARK    4  A    between atoms: N_8  and  C_9
REMARK    5  A    between atoms: C_9  and  C_11
REMARK    6  A    between atoms: C_9  and  C_18
REMARK    7  A    between atoms: C_11  and  C_12
REMARK    8  A    between atoms: C_12  and  C_13
REMARK    9  A    between atoms: C_13  and  N_14
REMARK   10  A    between atoms: N_20  and  C_21
REMARK   11  A    between atoms: C_24  and  N_27
REMARK                            x       y       z     vdW  Elec       q    Type
REMARK                         _______ _______ _______ _____ _____    ______ ____
ROOT
ATOM      1  C   UNL     1      -1.296   2.057   0.020  0.00  0.00    +0.191 C 
ENDROOT
BRANCH   1   2
ATOM      2  C   UNL     1      -1.110   3.432  -0.568  0.00  0.00    +0.242 C 
ATOM      3  O   UNL     1      -0.016   3.781  -0.958  0.00  0.00    -0.273 OA
ATOM      4  N   UNL     1      -2.159   4.274  -0.659  0.00  0.00    -0.284 N 
ATOM      5  H   UNL     1      -3.165   3.931  -0.376  0.00  0.00    +0.155 HD
BRANCH   4   6
ATOM      6  C   UNL     1      -1.967   5.583  -1.114  0.00  0.00    +0.034 A 
ATOM      7  C   UNL     1      -2.726   6.620  -0.587  0.00  0.00    +0.025 A 
ATOM      8  C   UNL     1      -2.532   7.912  -1.035  0.00  0.00    +0.034 A 
ATOM      9  C   UNL     1      -1.590   8.172  -2.014  0.00  0.00    +0.126 A 
ATOM     10  C   UNL     1      -0.836   7.141  -2.543  0.00  0.00    +0.034 A 
ATOM     11  C   UNL     1      -1.022   5.847  -2.096  0.00  0.00    +0.025 A 
BRANCH   9  12
ATOM     12  N   UNL     1      -1.387   9.557  -2.495  0.00  0.00    +0.056 N 
ATOM     13  O   UNL     1      -0.558   9.788  -3.356  0.00  0.00    -0.126 OA
ATOM     14  O   UNL     1      -2.050  10.467  -2.029  0.00  0.00    -0.126 OA
ENDBRANCH   9  12
ENDBRANCH   4   6
ENDBRANCH   1   2
BRANCH   1  16
ATOM     15  C   UNL     1       0.003  -0.005  -0.007  0.00  0.00    +0.104 C 
ATOM     16  N   UNL     1      -0.017   1.343   0.007  0.00  0.00    -0.282 NA
BRANCH  15  22
ATOM     17  C   UNL     1       4.675  -2.623   1.392  0.00  0.00    +0.104 C 
ATOM     18  C   UNL     1       3.633  -2.035   0.438  0.00  0.00    +0.254 C 
ATOM     19  O   UNL     1       2.349  -2.683   0.662  0.00  0.00    -0.422 OA
ATOM     20  C   UNL     1       1.302  -2.160  -0.034  0.00  0.00    +0.330 C 
ATOM     21  O   UNL     1       0.501  -2.857  -0.626  0.00  0.00    -0.249 OA
ATOM     22  C   UNL     1       1.209  -0.678  -0.018  0.00  0.00    +0.246 C 
ATOM     23  C   UNL     1       2.519   0.020  -0.023  0.00  0.00    +0.330 C 
ATOM     24  O   UNL     1       2.694   1.073  -0.607  0.00  0.00    -0.249 OA
ATOM     25  O   UNL     1       3.510  -0.604   0.678  0.00  0.00    -0.422 OA
ATOM     26  C   UNL     1       4.077  -2.272  -1.007  0.00  0.00    +0.104 C 
ENDBRANCH  15  22
ENDBRANCH   1  16
BRANCH   1  27
ATOM     27  C   UNL     1      -1.797   2.181   1.460  0.00  0.00    +0.038 C 
BRANCH  27  28
ATOM     28  C   UNL     1      -2.105   0.789   2.015  0.00  0.00    +0.023 C 
BRANCH  28  29
ATOM     29  C   UNL     1      -2.606   0.913   3.455  0.00  0.00    +0.115 C 
BRANCH  29  30
ATOM     30  N   UNL     1      -2.901  -0.420   3.986  0.00  0.00    -0.358 N 
ATOM     31  C   UNL     1      -3.367  -0.560   5.272  0.00  0.00    +0.166 C 
ATOM     32  N   UNL     1      -3.548   0.493   6.018  0.00  0.00    -0.372 N 
ATOM     33  N   UNL     1      -3.644  -1.811   5.770  0.00  0.00    -0.372 N 
ATOM     34  H   UNL     1      -2.748  -1.309   3.357  0.00  0.00    +0.162 HD
ATOM     35  H   UNL     1      -3.921   0.381   7.047  0.00  0.00    +0.159 HD
ATOM     36  H   UNL     1      -4.018  -1.923   6.799  0.00  0.00    +0.159 HD
ATOM     37  H   UNL     1      -3.492  -2.700   5.141  0.00  0.00    +0.159 HD
ATOM     38  H   UNL     1      -3.326   1.494   5.619  0.00  0.00    +0.159 HD
ENDBRANCH  29  30
ENDBRANCH  28  29
ENDBRANCH  27  28
ENDBRANCH   1  27
TORSDOF 9
