REMARK  Name = ZINC60354889
REMARK  12 active torsions:
REMARK  status: ('A' for Active; 'I' for Inactive)
REMARK    1  A    between atoms: C_1  and  C_2
REMARK    2  A    between atoms: C_5  and  C_7
REMARK    3  A    between atoms: C_7  and  C_9
REMARK    4  A    between atoms: C_7  and  N_32
REMARK    5  A    between atoms: C_9  and  N_10
REMARK    6  A    between atoms: C_11  and  C_13
REMARK    7  A    between atoms: C_13  and  C_15
REMARK    8  A    between atoms: C_13  and  N_18
REMARK    9  A    between atoms: C_15  and  C_16
REMARK   10  A    between atoms: C_15  and  C_17
REMARK   11  A    between atoms: C_19  and  C_21
REMARK   12  A    between atoms: C_21  and  C_22
REMARK                            x       y       z     vdW  Elec       q    Type
REMARK                         _______ _______ _______ _____ _____    ______ ____
ROOT
ATOM      1  C   UNL     1       5.340  -4.980  -1.810  0.00  0.00    +0.161 C 
ENDROOT
BRANCH   1   3
ATOM      2  N   UNL     1       3.028  -4.760  -0.960  0.00  0.00    -0.315 N 
ATOM      3  C   UNL     1       3.895  -4.586  -1.977  0.00  0.00    +0.234 C 
ATOM      4  O   UNL     1       3.513  -4.112  -3.026  0.00  0.00    -0.274 OA
ATOM      5  H   UNL     1       3.322  -5.182  -0.138  0.00  0.00    +0.149 HD
BRANCH   2   6
ATOM      6  C   UNL     1       1.640  -4.311  -1.097  0.00  0.00    +0.096 C 
BRANCH   6   7
ATOM      7  C   UNL     1       0.822  -5.392  -1.807  0.00  0.00    +0.016 C 
BRANCH   7  12
ATOM      8  C   UNL     1      -3.990  -4.342  -0.720  0.00  0.00    +0.086 C 
ATOM      9  C   UNL     1      -2.696  -4.472  -1.482  0.00  0.00    +0.102 A 
ATOM     10  C   UNL     1      -2.499  -4.113  -2.764  0.00  0.00    +0.044 A 
ATOM     11  C   UNL     1      -1.150  -4.407  -3.068  0.00  0.00    +0.043 A 
ATOM     12  C   UNL     1      -0.604  -4.928  -1.955  0.00  0.00    +0.093 A 
ATOM     13  O   UNL     1      -1.543  -4.959  -0.996  0.00  0.00    -0.466 OA
ENDBRANCH   7  12
BRANCH   7  14
ATOM     14  N   UNL     1       0.855  -6.630  -1.016  0.00  0.00    +0.387 N 
ATOM     15  C   UNL     1       0.006  -7.668  -1.655  0.00  0.00    -0.078 C 
ATOM     16  C   UNL     1       0.570  -8.991  -1.077  0.00  0.00    -0.020 C 
ATOM     17  C   UNL     1       2.091  -8.720  -1.013  0.00  0.00    -0.020 C 
ATOM     18  C   UNL     1       2.225  -7.186  -0.995  0.00  0.00    -0.078 C 
ATOM     19  H   UNL     1       0.538  -6.450  -0.075  0.00  0.00    -0.081 HD
ENDBRANCH   7  14
ENDBRANCH   6   7
ENDBRANCH   2   6
ENDBRANCH   1   3
BRANCH   1  20
ATOM     20  N   UNL     1       6.009  -4.947  -3.113  0.00  0.00    -0.303 N 
ATOM     21  C   UNL     1       7.101  -5.706  -3.329  0.00  0.00    +0.218 C 
ATOM     22  O   UNL     1       7.531  -6.417  -2.445  0.00  0.00    -0.275 OA
ATOM     23  H   UNL     1       5.666  -4.379  -3.820  0.00  0.00    +0.149 HD
BRANCH  21  24
ATOM     24  C   UNL     1       7.790  -5.672  -4.669  0.00  0.00    +0.131 C 
BRANCH  24  25
ATOM     25  C   UNL     1       8.974  -6.604  -4.650  0.00  0.00    -0.038 A 
ATOM     26  C   UNL     1      10.219  -6.122  -4.249  0.00  0.00    +0.005 A 
ATOM     27  C   UNL     1      11.309  -6.937  -4.221  0.00  0.00    +0.009 A 
ATOM     28  C   UNL     1      11.181  -8.284  -4.599  0.00  0.00    -0.018 A 
ATOM     29  C   UNL     1      12.283  -9.155  -4.582  0.00  0.00    +0.008 A 
ATOM     30  C   UNL     1      12.121 -10.454  -4.955  0.00  0.00    +0.001 A 
ATOM     31  C   UNL     1      10.875 -10.936  -5.355  0.00  0.00    +0.001 A 
ATOM     32  C   UNL     1       9.786 -10.121  -5.384  0.00  0.00    +0.008 A 
ATOM     33  C   UNL     1       9.914  -8.774  -5.006  0.00  0.00    -0.018 A 
ATOM     34  C   UNL     1       8.811  -7.904  -5.018  0.00  0.00    +0.012 A 
ENDBRANCH  24  25
ENDBRANCH  21  24
ENDBRANCH   1  20
BRANCH   1  35
ATOM     35  C   UNL     1       6.029  -4.000  -0.858  0.00  0.00    +0.012 C 
ATOM     36  C   UNL     1       5.996  -2.595  -1.460  0.00  0.00    +0.009 C 
ATOM     37  C   UNL     1       5.298  -3.996   0.486  0.00  0.00    +0.009 C 
ENDBRANCH   1  35
TORSDOF 9
