REMARK  Name = ZINC65397012
REMARK  6 active torsions:
REMARK  status: ('A' for Active; 'I' for Inactive)
REMARK    1  A    between atoms: C_1  and  N_2
REMARK    2  A    between atoms: C_6  and  C_7
REMARK    3  A    between atoms: C_9  and  C_23
REMARK    4  A    between atoms: N_13  and  C_14
REMARK    5  A    between atoms: C_14  and  C_15
REMARK    6  A    between atoms: C_18  and  C_20
REMARK                            x       y       z     vdW  Elec       q    Type
REMARK                         _______ _______ _______ _____ _____    ______ ____
ROOT
ATOM      1  C   UNL     1       0.030  -0.354   2.521  0.00  0.00    +0.144 C 
ATOM      2  C   UNL     1       1.476  -0.265   3.044  0.00  0.00    +0.110 C 
ATOM      3  N   UNL     1       1.678   1.155   3.419  0.00  0.00    -0.295 NA
ATOM      4  C   UNL     1       0.308   1.669   3.674  0.00  0.00    +0.170 C 
ATOM      5  N   UNL     1      -0.520   1.018   2.624  0.00  0.00    -0.273 NA
ATOM      6  H   UNL     1       2.253   1.233   4.244  0.00  0.00    +0.124 HD
ENDROOT
BRANCH   1  12
ATOM      7  C   UNL     1      -0.018   1.461   0.010  0.00  0.00    +0.150 C 
ATOM      8  N   UNL     1       0.002  -0.004   0.002  0.00  0.00    -0.338 N 
ATOM      9  C   UNL     1       0.009  -0.810  -1.104  0.00  0.00    +0.104 A 
ATOM     10  C   UNL     1       0.029  -2.081  -0.660  0.00  0.00    +0.101 A 
ATOM     11  N   UNL     1       0.034  -2.052   0.681  0.00  0.00    -0.348 N 
ATOM     12  C   UNL     1       0.023  -0.811   1.085  0.00  0.00    +0.106 A 
ATOM     13  H   UNL     1       0.048  -2.831   1.260  0.00  0.00    +0.166 HD
ENDBRANCH   1  12
BRANCH   2  14
ATOM     14  C   UNL     1       2.447  -0.663   1.963  0.00  0.00    -0.029 A 
ATOM     15  C   UNL     1       2.799   0.244   0.981  0.00  0.00    +0.005 A 
ATOM     16  C   UNL     1       3.689  -0.121  -0.011  0.00  0.00    +0.000 A 
ATOM     17  C   UNL     1       4.229  -1.393  -0.021  0.00  0.00    +0.000 A 
ATOM     18  C   UNL     1       3.878  -2.301   0.961  0.00  0.00    +0.000 A 
ATOM     19  C   UNL     1       2.991  -1.934   1.956  0.00  0.00    +0.005 A 
ENDBRANCH   2  14
BRANCH   5  20
ATOM     20  C   UNL     1      -1.937   0.991   3.010  0.00  0.00    +0.139 C 
BRANCH  20  21
ATOM     21  C   UNL     1      -2.523   2.371   2.868  0.00  0.00    +0.061 C 
ATOM     22  N   UNL     1      -1.915   3.438   2.467  0.00  0.00    -0.157 NA
ATOM     23  N   UNL     1      -2.749   4.551   2.450  0.00  0.00    -0.158 NA
ATOM     24  C   UNL     1      -3.949   4.274   2.839  0.00  0.00    +0.050 C 
ATOM     25  C   UNL     1      -3.950   2.792   3.159  0.00  0.00    +0.107 C 
BRANCH  24  26
ATOM     26  C   UNL     1      -5.112   5.227   2.948  0.00  0.00    +0.036 C 
ATOM     27  C   UNL     1      -5.620   5.871   1.656  0.00  0.00    +0.010 C 
ATOM     28  C   UNL     1      -4.839   6.707   2.673  0.00  0.00    +0.010 C 
ENDBRANCH  24  26
ENDBRANCH  20  21
ENDBRANCH   5  20
TORSDOF 5
