REMARK  Name = ZINC39850366
REMARK  9 active torsions:
REMARK  status: ('A' for Active; 'I' for Inactive)
REMARK    1  A    between atoms: C_1  and  C_2
REMARK    2  A    between atoms: C_2  and  C_3
REMARK    3  A    between atoms: C_2  and  O_4
REMARK    4  A    between atoms: O_4  and  C_5
REMARK    5  A    between atoms: C_8  and  C_11
REMARK    6  A    between atoms: C_13  and  C_25
REMARK    7  A    between atoms: C_15  and  C_20
REMARK    8  A    between atoms: C_15  and  O_24
REMARK    9  A    between atoms: C_25  and  C_27
REMARK                            x       y       z     vdW  Elec       q    Type
REMARK                         _______ _______ _______ _____ _____    ______ ____
ROOT
ATOM      1  C   UNL     1      -2.573  -1.109   5.392  0.00  0.00    +0.120 C 
ATOM      2  C   UNL     1      -2.754  -2.479   6.054  0.00  0.00    +0.145 C 
ATOM      3  C   UNL     1      -3.389  -2.274   7.433  0.00  0.00    +0.243 C 
ATOM      4  N   UNL     1      -2.563  -1.347   8.210  0.00  0.00    -0.264 N 
ATOM      5  C   UNL     1      -1.828  -0.399   7.611  0.00  0.00    +0.302 C 
ATOM      6  O   UNL     1      -1.168   0.352   8.303  0.00  0.00    -0.253 OA
ATOM      7  N   UNL     1      -1.792  -0.245   6.278  0.00  0.00    -0.292 N 
ATOM      8  H   UNL     1      -2.548  -1.421   9.177  0.00  0.00    +0.153 HD
ATOM      9  H   UNL     1      -1.238   0.453   5.895  0.00  0.00    +0.151 HD
ENDROOT
BRANCH   1  13
ATOM     10  C   UNL     1      -0.512  -1.579   1.677  0.00  0.00    +0.121 A 
ATOM     11  C   UNL     1      -1.899  -1.586   1.708  0.00  0.00    +0.046 A 
ATOM     12  C   UNL     1      -2.563  -1.434   2.910  0.00  0.00    +0.009 A 
ATOM     13  C   UNL     1      -1.846  -1.275   4.082  0.00  0.00    -0.026 A 
ATOM     14  C   UNL     1      -0.464  -1.267   4.054  0.00  0.00    +0.009 A 
ATOM     15  C   UNL     1       0.205  -1.425   2.855  0.00  0.00    +0.046 A 
BRANCH  10  16
ATOM     16  O   UNL     1       0.143  -1.728   0.496  0.00  0.00    -0.489 OA
BRANCH  16  18
ATOM     17  C   UNL     1      -1.230  -0.693  -1.202  0.00  0.00    +0.051 C 
ATOM     18  C   UNL     1      -0.654  -2.002  -0.658  0.00  0.00    +0.167 C 
ATOM     19  C   UNL     1       0.213  -2.663  -1.731  0.00  0.00    +0.051 C 
ENDBRANCH  16  18
ENDBRANCH  10  16
ENDBRANCH   1  13
BRANCH   3  20
ATOM     20  C   UNL     1      -4.794  -1.690   7.268  0.00  0.00    +0.436 C 
ATOM     21  F   UNL     1      -5.580  -2.573   6.519  0.00  0.00    -0.166 F 
ATOM     22  F   UNL     1      -5.373  -1.504   8.527  0.00  0.00    -0.166 F 
ATOM     23  F   UNL     1      -4.713  -0.461   6.604  0.00  0.00    -0.166 F 
ENDBRANCH   3  20
BRANCH   3  24
ATOM     24  O   UNL     1      -3.469  -3.528   8.114  0.00  0.00    -0.364 OA
ATOM     25  H   UNL     1      -3.862  -3.473   8.996  0.00  0.00    +0.212 HD
ENDBRANCH   3  24
BRANCH   2  26
ATOM     26  C   UNL     1      -1.413  -3.149   6.205  0.00  0.00    +0.179 C 
ATOM     27  O   UNL     1      -0.439  -2.495   6.522  0.00  0.00    -0.291 OA
BRANCH  26  28
ATOM     28  C   UNL     1      -1.287  -4.537   5.978  0.00  0.00    +0.055 A 
ATOM     29  C   UNL     1      -0.155  -5.342   6.068  0.00  0.00    +0.019 A 
ATOM     30  C   UNL     1      -0.347  -6.671   5.785  0.00  0.00    +0.008 A 
ATOM     31  C   UNL     1      -1.589  -7.102   5.447  0.00  0.00    +0.046 A 
ATOM     32  S   UNL     1      -2.538  -5.717   5.509  0.00  0.00    -0.094 S 
ENDBRANCH  26  28
ENDBRANCH   2  26
TORSDOF 7
