REMARK  Name = ZINC35664225
REMARK  15 active torsions:
REMARK  status: ('A' for Active; 'I' for Inactive)
REMARK    1  A    between atoms: C_1  and  C_2
REMARK    2  A    between atoms: C_2  and  C_3
REMARK    3  A    between atoms: C_3  and  N_4
REMARK    4  A    between atoms: N_11  and  C_14
REMARK    5  A    between atoms: C_14  and  C_15
REMARK    6  A    between atoms: C_16  and  C_34
REMARK    7  A    between atoms: C_17  and  C_24
REMARK    8  A    between atoms: N_22  and  C_23
REMARK    9  A    between atoms: C_28  and  O_32
REMARK   10  A    between atoms: C_29  and  O_30
REMARK   11  A    between atoms: O_30  and  C_31
REMARK   12  A    between atoms: O_32  and  C_33
REMARK   13  A    between atoms: C_34  and  O_36
REMARK   14  A    between atoms: O_36  and  C_37
REMARK   15  A    between atoms: C_37  and  C_38
REMARK                            x       y       z     vdW  Elec       q    Type
REMARK                         _______ _______ _______ _____ _____    ______ ____
ROOT
ATOM      1  C   UNL     1      -5.596  -6.471   3.102  0.00  0.00    +0.010 C 
ATOM      2  C   UNL     1      -5.450  -7.745   3.524  0.00  0.00    +0.077 C 
ATOM      3  C   UNL     1      -6.701  -8.589   3.664  0.00  0.00    +0.147 C 
ATOM      4  N   UNL     1      -7.981  -7.946   3.325  0.00  0.00    -0.288 N 
ATOM      5  C   UNL     1      -7.965  -6.662   2.917  0.00  0.00    +0.307 C 
ATOM      6  O   UNL     1      -9.017  -6.121   2.635  0.00  0.00    -0.252 OA
ATOM      7  N   UNL     1      -6.830  -5.960   2.817  0.00  0.00    -0.264 N 
ATOM      8  C   UNL     1      -6.915  -4.567   2.370  0.00  0.00    +0.139 C 
ATOM      9  H   UNL     1      -8.816  -8.435   3.394  0.00  0.00    +0.151 HD
ENDROOT
BRANCH   3  10
ATOM     10  C   UNL     1      -6.783  -9.065   5.092  0.00  0.00    +0.023 A 
ATOM     11  C   UNL     1      -6.016  -8.457   6.068  0.00  0.00    +0.009 A 
ATOM     12  C   UNL     1      -6.090  -8.890   7.379  0.00  0.00    +0.004 A 
ATOM     13  C   UNL     1      -6.930  -9.934   7.719  0.00  0.00    +0.049 A 
ATOM     14  C   UNL     1      -7.701 -10.548   6.745  0.00  0.00    +0.162 A 
ATOM     15  C   UNL     1      -7.632 -10.107   5.427  0.00  0.00    +0.167 A 
BRANCH  15  16
ATOM     16  O   UNL     1      -8.391 -10.703   4.468  0.00  0.00    -0.491 OA
ATOM     17  C   UNL     1      -7.866 -11.889   3.869  0.00  0.00    +0.277 C 
ENDBRANCH  15  16
BRANCH  14  18
ATOM     18  O   UNL     1      -8.528 -11.575   7.078  0.00  0.00    -0.491 OA
ATOM     19  C   UNL     1      -8.553 -11.969   8.451  0.00  0.00    +0.277 C 
ENDBRANCH  14  18
ENDBRANCH   3  10
BRANCH   2  20
ATOM     20  C   UNL     1      -4.173  -8.274   3.825  0.00  0.00    +0.339 C 
ATOM     21  O   UNL     1      -3.185  -7.572   3.727  0.00  0.00    -0.245 OA
BRANCH  20  22
ATOM     22  O   UNL     1      -4.051  -9.559   4.221  0.00  0.00    -0.462 OA
BRANCH  22  23
ATOM     23  C   UNL     1      -2.749  -9.995   4.617  0.00  0.00    +0.229 C 
ATOM     24  C   UNL     1      -2.783 -11.495   4.917  0.00  0.00    +0.048 C 
ENDBRANCH  22  23
ENDBRANCH  20  22
ENDBRANCH   2  20
BRANCH   1  25
ATOM     25  C   UNL     1      -4.378  -5.597   2.950  0.00  0.00    -0.026 C 
BRANCH  25  33
ATOM     26  N   UNL     1      -4.507  -3.740  -2.109  0.00  0.00    -0.299 N 
ATOM     27  C   UNL     1      -3.227  -4.047  -1.819  0.00  0.00    +0.302 C 
ATOM     28  O   UNL     1      -2.326  -3.332  -2.213  0.00  0.00    -0.253 OA
ATOM     29  N   UNL     1      -2.946  -5.147  -1.093  0.00  0.00    -0.287 N 
ATOM     30  C   UNL     1      -1.547  -5.396  -0.690  0.00  0.00    +0.107 C 
ATOM     31  C   UNL     1      -1.470  -5.899   0.763  0.00  0.00    +0.000 C 
ATOM     32  C   UNL     1      -2.468  -5.142   1.611  0.00  0.00    -0.077 C 
ATOM     33  N   UNL     1      -3.719  -5.894   1.671  0.00  0.00    +0.384 N 
ATOM     34  C   UNL     1      -4.629  -5.618   0.626  0.00  0.00    -0.059 C 
ATOM     35  C   UNL     1      -4.028  -6.039  -0.729  0.00  0.00    +0.091 C 
ATOM     36  H   UNL     1      -5.221  -4.347  -1.857  0.00  0.00    +0.150 HD
ATOM     37  H   UNL     1      -3.500  -6.878   1.651  0.00  0.00    -0.081 HD
BRANCH  26  38
ATOM     38  C   UNL     1      -4.821  -2.489  -2.804  0.00  0.00    +0.105 C 
BRANCH  38  40
ATOM     39  C   UNL     1      -6.661  -1.078  -3.734  0.00  0.00    +0.005 C 
ATOM     40  C   UNL     1      -6.333  -2.385  -3.009  0.00  0.00    +0.015 C 
ENDBRANCH  38  40
ENDBRANCH  26  38
ENDBRANCH  25  33
ENDBRANCH   1  25
TORSDOF 10
