REMARK  Name = ZINC20239536
REMARK  9 active torsions:
REMARK  status: ('A' for Active; 'I' for Inactive)
REMARK    1  A    between atoms: C_1  and  C_2
REMARK    2  A    between atoms: C_2  and  C_3
REMARK    3  A    between atoms: C_8  and  N_9
REMARK    4  A    between atoms: C_10  and  C_12
REMARK    5  A    between atoms: N_15  and  S_18
REMARK    6  A    between atoms: S_18  and  C_21
REMARK    7  A    between atoms: C_22  and  C_33
REMARK    8  A    between atoms: C_25  and  C_26
REMARK    9  A    between atoms: C_27  and  C_28
REMARK                            x       y       z     vdW  Elec       q    Type
REMARK                         _______ _______ _______ _____ _____    ______ ____
ROOT
ATOM      1  C   UNL     1       2.455   0.808   0.111  0.00  0.00    +0.078 C 
ATOM      2  C   UNL     1       2.458   0.010   1.416  0.00  0.00    +0.030 C 
ATOM      3  C   UNL     1       3.742  -0.822   1.499  0.00  0.00    +0.110 C 
ATOM      4  N   UNL     1       4.896   0.073   1.336  0.00  0.00    -0.176 NA
ATOM      5  C   UNL     1       4.949   0.951   0.159  0.00  0.00    +0.110 C 
ATOM      6  C   UNL     1       3.651   1.762   0.091  0.00  0.00    +0.030 C 
ENDROOT
BRANCH   1   8
ATOM      7  N   UNL     1      -0.011   0.966   0.007  0.00  0.00    -0.285 N 
ATOM      8  C   UNL     1       1.178   1.601   0.009  0.00  0.00    +0.220 C 
ATOM      9  O   UNL     1       1.220   2.810  -0.070  0.00  0.00    -0.275 OA
ATOM     10  H   UNL     1      -0.048  -0.133  -0.011  0.00  0.00    +0.155 HD
BRANCH   7  16
ATOM     11  C   UNL     1      -2.368   1.157  -0.482  0.00  0.00    -0.026 A 
ATOM     12  C   UNL     1      -3.540   1.888  -0.457  0.00  0.00    +0.005 A 
ATOM     13  C   UNL     1      -3.547   3.167   0.067  0.00  0.00    +0.000 A 
ATOM     14  C   UNL     1      -2.383   3.718   0.572  0.00  0.00    +0.002 A 
ATOM     15  C   UNL     1      -1.210   2.991   0.553  0.00  0.00    +0.023 A 
ATOM     16  C   UNL     1      -1.199   1.705   0.028  0.00  0.00    +0.037 A 
BRANCH  11  18
ATOM     17  C   UNL     1      -2.547  -1.254   0.067  0.00  0.00    +0.009 C 
ATOM     18  C   UNL     1      -2.360  -0.235  -1.059  0.00  0.00    +0.033 C 
ENDBRANCH  11  18
ENDBRANCH   7  16
ENDBRANCH   1   8
BRANCH   4  19
ATOM     19  S   UNL     1       6.114   0.092   2.458  0.00  0.00    +0.066 S 
ATOM     20  O   UNL     1       6.084  -1.170   3.112  0.00  0.00    -0.153 OA
ATOM     21  O   UNL     1       7.272   0.577   1.792  0.00  0.00    -0.153 OA
BRANCH  19  22
ATOM     22  C   UNL     1       5.688   1.298   3.670  0.00  0.00    +0.174 A 
ATOM     23  C   UNL     1       4.950   1.116   4.854  0.00  0.00    +0.107 A 
ATOM     24  N   UNL     1       4.883   2.281   5.437  0.00  0.00    -0.081 NA
ATOM     25  O   UNL     1       5.455   3.141   4.810  0.00  0.00    -0.353 OA
ATOM     26  C   UNL     1       6.005   2.646   3.684  0.00  0.00    +0.187 A 
ATOM     27  C   UNL     1       4.353  -0.174   5.353  0.00  0.00    +0.071 C 
BRANCH  26  28
ATOM     28  C   UNL     1       6.777   3.382   2.682  0.00  0.00    +0.054 C 
ATOM     29  C   UNL     1       7.003   4.706   2.841  0.00  0.00    +0.050 C 
BRANCH  29  30
ATOM     30  C   UNL     1       7.774   5.441   1.839  0.00  0.00    +0.128 A 
ATOM     31  C   UNL     1       8.069   6.776   1.873  0.00  0.00    +0.049 A 
ATOM     32  C   UNL     1       8.825   7.051   0.720  0.00  0.00    +0.042 A 
ATOM     33  C   UNL     1       8.948   5.892   0.039  0.00  0.00    +0.195 A 
ATOM     34  O   UNL     1       8.313   4.923   0.716  0.00  0.00    -0.464 OA
ENDBRANCH  29  30
ENDBRANCH  26  28
ENDBRANCH  19  22
ENDBRANCH   4  19
TORSDOF 7
