REMARK  Name = ZINC21999667
REMARK  1 active torsions:
REMARK  status: ('A' for Active; 'I' for Inactive)
REMARK    1  A    between atoms: C_1  and  C_2
REMARK                            x       y       z     vdW  Elec       q    Type
REMARK                         _______ _______ _______ _____ _____    ______ ____
ROOT
ATOM      1  C   UNL     1      -0.013   1.086   0.008  0.00  0.00    +0.044 C 
ATOM      2  C   UNL     1      -0.729   1.579   1.267  0.00  0.00    +0.159 C 
ATOM      3  N   UNL     1      -0.666   3.051   1.374  0.00  0.00    -0.281 NA
ATOM      4  C   UNL     1      -0.328   3.598   2.454  0.00  0.00    +0.089 C 
ATOM      5  C   UNL     1       0.015   2.714   3.646  0.00  0.00    +0.118 C 
ATOM      6  S   UNL     1       0.187   1.084   2.792  0.00  0.00    -0.129 S 
ENDROOT
TORSDOF 0
