REMARK  Name = ZINC15007708
REMARK  11 active torsions:
REMARK  status: ('A' for Active; 'I' for Inactive)
REMARK    1  A    between atoms: C_1  and  C_2
REMARK    2  A    between atoms: C_2  and  C_3
REMARK    3  A    between atoms: C_2  and  O_4
REMARK    4  A    between atoms: O_4  and  C_5
REMARK    5  A    between atoms: C_5  and  C_6
REMARK    6  A    between atoms: C_6  and  C_7
REMARK    7  A    between atoms: C_7  and  N_64
REMARK    8  A    between atoms: C_8  and  N_64
REMARK    9  A    between atoms: N_19  and  C_22
REMARK   10  A    between atoms: C_22  and  C_23
REMARK   11  A    between atoms: C_23  and  C_24
REMARK                            x       y       z     vdW  Elec       q    Type
REMARK                         _______ _______ _______ _____ _____    ______ ____
ROOT
ATOM      1  C   UNL     1      -2.239   1.220  -1.132  0.00  0.00    -0.067 C 
ATOM      2  C   UNL     1      -0.757   1.595  -1.227  0.00  0.00    -0.011 C 
ATOM      3  C   UNL     1      -0.013   1.086   0.008  0.00  0.00    +0.035 C 
ATOM      4  C   UNL     1      -0.732   1.580   1.260  0.00  0.00    -0.023 A 
ATOM      5  C   UNL     1      -2.017   2.007   1.189  0.00  0.00    -0.006 A 
ATOM      6  S   UNL     1      -2.441   2.480   2.847  0.00  0.00    -0.073 S 
ATOM      7  C   UNL     1      -0.895   2.105   3.629  0.00  0.00    +0.116 A 
ATOM      8  C   UNL     1      -0.100   1.622   2.567  0.00  0.00    +0.076 A 
ATOM      9  C   UNL     1       1.242   1.225   2.886  0.00  0.00    +0.262 A 
ATOM     10  O   UNL     1       2.010   0.796   2.042  0.00  0.00    -0.267 OA
ATOM     11  N   UNL     1       1.602   1.360   4.185  0.00  0.00    -0.298 N 
ATOM     12  C   UNL     1       0.764   1.835   5.138  0.00  0.00    +0.203 A 
ATOM     13  N   UNL     1      -0.471   2.208   4.885  0.00  0.00    -0.230 NA
ATOM     14  C   UNL     1      -2.889   2.065  -0.027  0.00  0.00    +0.027 C 
ENDROOT
BRANCH   1  15
ATOM     15  N   UNL     1      -2.896   1.502  -2.423  0.00  0.00    +0.381 N 
ATOM     16  H   UNL     1      -3.177   2.489  -2.451  0.00  0.00    -0.086 HD
ATOM     17  H   UNL     1      -2.237   1.311  -3.187  0.00  0.00    -0.086 HD
BRANCH  15  18
ATOM     18  C   UNL     1      -4.090   0.651  -2.586  0.00  0.00    -0.080 C 
BRANCH  18  19
ATOM     19  C   UNL     1      -4.749   0.964  -3.930  0.00  0.00    +0.009 C 
BRANCH  19  20
ATOM     20  C   UNL     1      -5.989   0.086  -4.108  0.00  0.00    +0.158 C 
BRANCH  20  21
ATOM     21  O   UNL     1      -6.604   0.378  -5.364  0.00  0.00    -0.377 OA
BRANCH  21  23
ATOM     22  C   UNL     1      -8.733   0.419  -6.506  0.00  0.00    +0.037 C 
ATOM     23  C   UNL     1      -7.778  -0.393  -5.629  0.00  0.00    +0.112 C 
ATOM     24  C   UNL     1      -7.388  -1.681  -6.357  0.00  0.00    +0.037 C 
ENDBRANCH  21  23
ENDBRANCH  20  21
ENDBRANCH  19  20
ENDBRANCH  18  19
ENDBRANCH  15  18
ENDBRANCH   1  15
BRANCH  11  25
ATOM     25  C   UNL     1       2.959   0.974   4.578  0.00  0.00    +0.131 C 
BRANCH  25  26
ATOM     26  C   UNL     1       2.973  -0.503   4.979  0.00  0.00    +0.059 C 
BRANCH  26  27
ATOM     27  C   UNL     1       4.369  -0.900   5.383  0.00  0.00    -0.021 A 
ATOM     28  C   UNL     1       5.295  -1.473   4.598  0.00  0.00    +0.087 A 
ATOM     29  N   UNL     1       6.443  -1.687   5.311  0.00  0.00    -0.360 N 
ATOM     30  H   UNL     1       7.252  -2.090   4.957  0.00  0.00    +0.165 HD
ATOM     31  C   UNL     1       6.280  -1.247   6.605  0.00  0.00    +0.047 A 
ATOM     32  C   UNL     1       4.976  -0.729   6.706  0.00  0.00    +0.003 A 
ATOM     33  C   UNL     1       4.528  -0.201   7.918  0.00  0.00    +0.010 A 
ATOM     34  C   UNL     1       5.361  -0.186   9.001  0.00  0.00    +0.001 A 
ATOM     35  C   UNL     1       6.650  -0.693   8.906  0.00  0.00    +0.002 A 
ATOM     36  C   UNL     1       7.110  -1.226   7.721  0.00  0.00    +0.026 A 
ENDBRANCH  26  27
ENDBRANCH  25  26
ENDBRANCH  11  25
TORSDOF 9
