REMARK  Name = ZINC35722701
REMARK  6 active torsions:
REMARK  status: ('A' for Active; 'I' for Inactive)
REMARK    1  A    between atoms: C_1  and  N_2
REMARK    2  A    between atoms: C_3  and  S_7
REMARK    3  A    between atoms: S_7  and  C_8
REMARK    4  A    between atoms: C_11  and  C_19
REMARK    5  A    between atoms: C_15  and  C_17
REMARK    6  A    between atoms: C_17  and  N_18
REMARK                            x       y       z     vdW  Elec       q    Type
REMARK                         _______ _______ _______ _____ _____    ______ ____
ROOT
ATOM      1  C   UNL     1       0.011  -1.884  -3.688  0.00  0.00    +0.056 C 
ATOM      2  C   UNL     1       1.330  -2.614  -3.427  0.00  0.00    +0.023 C 
ATOM      3  C   UNL     1       2.498  -1.739  -3.887  0.00  0.00    +0.020 C 
ATOM      4  C   UNL     1       2.361  -1.452  -5.384  0.00  0.00    +0.008 C 
ATOM      5  C   UNL     1       1.042  -0.721  -5.644  0.00  0.00    +0.003 C 
ATOM      6  C   UNL     1      -0.125  -1.596  -5.184  0.00  0.00    -0.015 C 
ENDROOT
BRANCH   3   7
ATOM      7  C   UNL     1       3.796  -2.458  -3.630  0.00  0.00    -0.044 A 
ATOM      8  C   UNL     1       4.042  -3.678  -4.233  0.00  0.00    +0.004 A 
ATOM      9  C   UNL     1       5.234  -4.338  -3.998  0.00  0.00    +0.000 A 
ATOM     10  C   UNL     1       6.180  -3.778  -3.160  0.00  0.00    +0.000 A 
ATOM     11  C   UNL     1       5.935  -2.558  -2.558  0.00  0.00    +0.000 A 
ATOM     12  C   UNL     1       4.745  -1.896  -2.796  0.00  0.00    +0.004 A 
ENDBRANCH   3   7
BRANCH   1  13
ATOM     13  S   UNL     1      -0.006  -0.321  -2.768  0.00  0.00    -0.081 S 
BRANCH  13  16
ATOM     14  C   UNL     1      -0.018   1.461   0.010  0.00  0.00    +0.177 C 
ATOM     15  N   UNL     1       0.002  -0.004   0.002  0.00  0.00    -0.223 N 
ATOM     16  C   UNL     1       0.008  -0.820  -1.078  0.00  0.00    +0.209 A 
ATOM     17  N   UNL     1       0.027  -2.056  -0.629  0.00  0.00    -0.102 NA
ATOM     18  N   UNL     1       0.033  -2.068   0.655  0.00  0.00    -0.022 NA
ATOM     19  N   UNL     1       0.025  -0.864   1.114  0.00  0.00    -0.043 NA
ENDBRANCH  13  16
ENDBRANCH   1  13
BRANCH   6  20
ATOM     20  C   UNL     1      -1.444  -0.866  -5.445  0.00  0.00    -0.082 C 
BRANCH  20  21
ATOM     21  N   UNL     1      -1.632  -0.696  -6.892  0.00  0.00    +0.378 N 
ATOM     22  H   UNL     1      -2.502  -0.214  -7.064  0.00  0.00    -0.090 HD
ATOM     23  H   UNL     1      -0.868  -0.156  -7.269  0.00  0.00    -0.090 HD
ATOM     24  H   UNL     1      -1.656  -1.601  -7.337  0.00  0.00    -0.090 HD
ENDBRANCH  20  21
ENDBRANCH   6  20
TORSDOF 5
