REMARK  Name = ZINC13958637
REMARK  6 active torsions:
REMARK  status: ('A' for Active; 'I' for Inactive)
REMARK    1  A    between atoms: C_1  and  C_2
REMARK    2  A    between atoms: C_5  and  N_12
REMARK    3  A    between atoms: C_8  and  C_10
REMARK    4  A    between atoms: C_8  and  C_11
REMARK    5  A    between atoms: N_15  and  C_16
REMARK    6  A    between atoms: N_21  and  C_23
REMARK                            x       y       z     vdW  Elec       q    Type
REMARK                         _______ _______ _______ _____ _____    ______ ____
ROOT
ATOM      1  N   UNL     1      -2.214   1.597   0.402  0.00  0.00    -0.297 N 
ATOM      2  C   UNL     1      -2.528   0.323   0.710  0.00  0.00    +0.300 C 
ATOM      3  O   UNL     1      -1.653  -0.461   1.022  0.00  0.00    -0.253 OA
ATOM      4  N   UNL     1      -3.813  -0.082   0.673  0.00  0.00    -0.295 N 
ATOM      5  H   UNL     1      -2.912   2.223   0.153  0.00  0.00    +0.151 HD
ATOM      6  H   UNL     1      -4.512   0.544   0.424  0.00  0.00    +0.151 HD
ENDROOT
BRANCH   1  10
ATOM      7  C   UNL     1      -1.434   5.763  -0.310  0.00  0.00    +0.007 C 
ATOM      8  C   UNL     1      -1.567   4.420   0.412  0.00  0.00    -0.012 C 
ATOM      9  C   UNL     1      -0.684   3.380  -0.279  0.00  0.00    +0.025 C 
ATOM     10  C   UNL     1      -0.817   2.037   0.443  0.00  0.00    +0.075 C 
ATOM     11  C   UNL     1      -0.375   2.195   1.899  0.00  0.00    +0.028 C 
ATOM     12  C   UNL     1      -1.258   3.236   2.590  0.00  0.00    -0.033 C 
ATOM     13  C   UNL     1      -1.125   4.578   1.868  0.00  0.00    +0.009 C 
ATOM     14  C   UNL     1      -0.815   3.394   4.046  0.00  0.00    +0.011 C 
ATOM     15  C   UNL     1      -2.716   2.776   2.548  0.00  0.00    +0.011 C 
ENDBRANCH   1  10
BRANCH   4  16
ATOM     16  C   UNL     1      -4.155  -1.466   1.008  0.00  0.00    +0.101 C 
ATOM     17  C   UNL     1      -4.356  -1.633   2.532  0.00  0.00    +0.120 C 
ATOM     18  C   UNL     1      -5.497  -2.619   2.650  0.00  0.00    +0.222 C 
ATOM     19  O   UNL     1      -5.785  -3.231   3.657  0.00  0.00    -0.275 OA
ATOM     20  N   UNL     1      -6.146  -2.718   1.477  0.00  0.00    -0.270 N 
ATOM     21  C   UNL     1      -5.552  -1.838   0.463  0.00  0.00    +0.136 C 
BRANCH  20  22
ATOM     22  C   UNL     1      -7.246  -3.554   1.250  0.00  0.00    +0.036 A 
ATOM     23  C   UNL     1      -7.693  -4.403   2.254  0.00  0.00    +0.026 A 
ATOM     24  C   UNL     1      -8.781  -5.223   2.030  0.00  0.00    +0.040 A 
ATOM     25  C   UNL     1      -9.420  -5.208   0.802  0.00  0.00    +0.124 A 
ATOM     26  C   UNL     1      -8.973  -4.366  -0.203  0.00  0.00    +0.040 A 
ATOM     27  C   UNL     1      -7.888  -3.541   0.019  0.00  0.00    +0.026 A 
ATOM     28  F   UNL     1     -10.481  -6.015   0.583  0.00  0.00    -0.205 F 
ENDBRANCH  20  22
ENDBRANCH   4  16
TORSDOF 3
