REMARK  Name = ZINC20751435
REMARK  7 active torsions:
REMARK  status: ('A' for Active; 'I' for Inactive)
REMARK    1  A    between atoms: C_1  and  N_2
REMARK    2  A    between atoms: N_2  and  C_3
REMARK    3  A    between atoms: N_2  and  S_10
REMARK    4  A    between atoms: C_3  and  C_4
REMARK    5  A    between atoms: S_10  and  C_13
REMARK    6  A    between atoms: C_26  and  C_29
REMARK    7  A    between atoms: C_38  and  O_39
REMARK                            x       y       z     vdW  Elec       q    Type
REMARK                         _______ _______ _______ _____ _____    ______ ____
ROOT
ATOM      1  C   UNL     1       3.168  -1.181   2.863  0.00  0.00    +0.106 A 
ATOM      2  C   UNL     1       3.845  -0.044   2.463  0.00  0.00    +0.030 A 
ATOM      3  C   UNL     1       3.251   0.830   1.574  0.00  0.00    +0.025 A 
ATOM      4  C   UNL     1       1.978   0.564   1.084  0.00  0.00    +0.031 A 
ATOM      5  C   UNL     1       1.295  -0.574   1.483  0.00  0.00    -0.018 A 
ATOM      6  C   UNL     1       1.904  -1.445   2.377  0.00  0.00    +0.034 A 
ATOM      7  C   UNL     1      -0.077  -0.901   0.984  0.00  0.00    +0.049 C 
ATOM      8  C   UNL     1      -1.123  -0.635   2.040  0.00  0.00    -0.023 C 
ATOM      9  C   UNL     1      -2.219  -0.174   1.488  0.00  0.00    -0.030 C 
ATOM     10  C   UNL     1      -2.056  -0.070  -0.038  0.00  0.00    +0.033 C 
ATOM     11  C   UNL     1      -0.509  -0.023  -0.206  0.00  0.00    +0.029 C 
ATOM     12  C   UNL     1      -0.069   1.425   0.025  0.00  0.00    +0.109 C 
ATOM     13  N   UNL     1       1.386   1.457   0.207  0.00  0.00    -0.336 N 
ATOM     14  H   UNL     1       1.994   2.185  -0.350  0.00  0.00    +0.147 HD
ENDROOT
BRANCH  12  15
ATOM     15  C   UNL     1      -0.744   1.967   1.258  0.00  0.00    +0.022 A 
ATOM     16  C   UNL     1      -2.002   2.583   1.162  0.00  0.00    -0.009 A 
ATOM     17  C   UNL     1      -2.664   2.700  -0.072  0.00  0.00    +0.009 A 
ATOM     18  C   UNL     1      -3.886   3.298  -0.128  0.00  0.00    +0.001 A 
ATOM     19  C   UNL     1      -4.495   3.793   1.024  0.00  0.00    +0.001 A 
ATOM     20  C   UNL     1      -3.886   3.694   2.237  0.00  0.00    +0.008 A 
ATOM     21  C   UNL     1      -2.624   3.083   2.334  0.00  0.00    -0.017 A 
ATOM     22  C   UNL     1      -1.966   2.962   3.571  0.00  0.00    +0.012 A 
ATOM     23  C   UNL     1      -0.746   2.365   3.630  0.00  0.00    +0.046 A 
ATOM     24  C   UNL     1      -0.133   1.866   2.476  0.00  0.00    +0.122 A 
BRANCH  24  25
ATOM     25  O   UNL     1       1.087   1.274   2.567  0.00  0.00    -0.506 OA
ATOM     26  H   UNL     1       1.585   1.189   3.544  0.00  0.00    +0.292 HD
ENDBRANCH  24  25
ENDBRANCH  12  15
BRANCH   1  27
ATOM     27  S   UNL     1       3.923  -2.299   3.997  0.00  0.00    +0.061 S 
ATOM     28  O   UNL     1       3.307  -3.563   3.792  0.00  0.00    -0.153 OA
ATOM     29  O   UNL     1       5.326  -2.107   3.882  0.00  0.00    -0.153 OA
BRANCH  27  31
ATOM     30  C   UNL     1       4.343  -0.850   6.241  0.00  0.00    +0.132 C 
ATOM     31  N   UNL     1       3.502  -1.808   5.521  0.00  0.00    -0.175 NA
BRANCH  31  32
ATOM     32  C   UNL     1       2.287  -2.333   6.150  0.00  0.00    +0.144 C 
BRANCH  32  33
ATOM     33  C   UNL     1       2.639  -3.514   7.016  0.00  0.00    -0.032 A 
ATOM     34  C   UNL     1       2.630  -4.790   6.484  0.00  0.00    +0.005 A 
ATOM     35  C   UNL     1       2.958  -5.873   7.277  0.00  0.00    +0.000 A 
ATOM     36  C   UNL     1       3.285  -5.681   8.607  0.00  0.00    +0.000 A 
ATOM     37  C   UNL     1       3.290  -4.407   9.141  0.00  0.00    +0.000 A 
ATOM     38  C   UNL     1       2.966  -3.323   8.346  0.00  0.00    +0.005 A 
ENDBRANCH  32  33
ENDBRANCH  31  32
ENDBRANCH  27  31
ENDBRANCH   1  27
TORSDOF 6
