REMARK  Name = ZINC22472767
REMARK  7 active torsions:
REMARK  status: ('A' for Active; 'I' for Inactive)
REMARK    1  A    between atoms: C_1  and  N_2
REMARK    2  A    between atoms: N_2  and  C_3
REMARK    3  A    between atoms: C_3  and  C_4
REMARK    4  A    between atoms: C_4  and  C_5
REMARK    5  A    between atoms: C_5  and  N_6
REMARK    6  A    between atoms: C_9  and  O_10
REMARK    7  A    between atoms: C_18  and  C_20
REMARK                            x       y       z     vdW  Elec       q    Type
REMARK                         _______ _______ _______ _____ _____    ______ ____
ROOT
ATOM      1  C   UNL     1      -2.291   1.552   0.359  0.00  0.00    +0.114 C 
ENDROOT
BRANCH   1   2
ATOM      2  N   UNL     1      -1.056   2.227   0.766  0.00  0.00    -0.384 N 
ATOM      3  C   UNL     1       0.133   1.532   0.787  0.00  0.00    +0.053 A 
ATOM      4  C   UNL     1       0.185   0.209   0.431  0.00  0.00    +0.113 A 
ATOM      5  C   UNL     1       1.411  -0.469   0.456  0.00  0.00    +0.286 A 
ATOM      6  O   UNL     1       2.550   0.139   0.822  0.00  0.00    -0.425 OA
ATOM      7  C   UNL     1       2.576   1.440   1.186  0.00  0.00    +0.141 A 
ATOM      8  C   UNL     1       1.389   2.189   1.186  0.00  0.00    +0.041 A 
ATOM      9  C   UNL     1       1.412   3.533   1.560  0.00  0.00    +0.013 A 
ATOM     10  C   UNL     1       2.604   4.118   1.928  0.00  0.00    +0.001 A 
ATOM     11  C   UNL     1       3.776   3.377   1.927  0.00  0.00    +0.004 A 
ATOM     12  C   UNL     1       3.767   2.047   1.560  0.00  0.00    +0.047 A 
ATOM     13  H   UNL     1      -1.078   3.288   1.055  0.00  0.00    +0.160 HD
BRANCH   5  14
ATOM     14  O   UNL     1       1.443  -1.645   0.137  0.00  0.00    -0.480 OA
ATOM     15  H   UNL     1       2.397  -2.193   0.151  0.00  0.00    +0.295 HD
ENDBRANCH   5  14
ENDBRANCH   1   2
BRANCH   1  16
ATOM     16  C   UNL     1      -3.457   2.541   0.424  0.00  0.00    +0.040 C 
BRANCH  16  17
ATOM     17  C   UNL     1      -4.747   1.837  -0.001  0.00  0.00    +0.109 C 
BRANCH  17  19
ATOM     18  C   UNL     1      -6.206   3.590  -1.113  0.00  0.00    +0.132 C 
ATOM     19  N   UNL     1      -5.863   2.783   0.061  0.00  0.00    -0.301 N 
ATOM     20  C   UNL     1      -6.575   2.913   1.198  0.00  0.00    +0.246 C 
ATOM     21  O   UNL     1      -6.215   2.341   2.209  0.00  0.00    -0.270 OA
BRANCH  20  22
ATOM     22  C   UNL     1      -7.793   3.750   1.217  0.00  0.00    +0.037 A 
ATOM     23  C   UNL     1      -8.450   4.058   0.024  0.00  0.00    +0.014 A 
ATOM     24  C   UNL     1      -9.589   4.834   0.049  0.00  0.00    +0.016 A 
ATOM     25  C   UNL     1     -10.075   5.318   1.252  0.00  0.00    +0.018 A 
ATOM     26  C   UNL     1      -9.425   5.020   2.438  0.00  0.00    +0.016 A 
ATOM     27  C   UNL     1      -8.288   4.240   2.427  0.00  0.00    +0.014 A 
ATOM     28 BR   UNL     1     -11.634   6.389   1.276  0.00  0.00    -0.050 Br
ENDBRANCH  20  22
ENDBRANCH  17  19
ENDBRANCH  16  17
ENDBRANCH   1  16
TORSDOF 6
