REMARK  Name = ZINC15227825
REMARK  10 active torsions:
REMARK  status: ('A' for Active; 'I' for Inactive)
REMARK    1  A    between atoms: C_1  and  C_2
REMARK    2  A    between atoms: C_2  and  O_3
REMARK    3  A    between atoms: O_3  and  C_4
REMARK    4  A    between atoms: C_4  and  C_6
REMARK    5  A    between atoms: C_10  and  N_11
REMARK    6  A    between atoms: C_12  and  C_14
REMARK    7  A    between atoms: C_14  and  C_16
REMARK    8  A    between atoms: C_14  and  S_17
REMARK    9  A    between atoms: S_17  and  C_18
REMARK   10  A    between atoms: C_20  and  C_24
REMARK                            x       y       z     vdW  Elec       q    Type
REMARK                         _______ _______ _______ _____ _____    ______ ____
ROOT
ATOM      1  N   UNL     1      -3.033  -2.524   2.498  0.00  0.00    -0.278 N 
ATOM      2  C   UNL     1      -3.808  -2.867   3.546  0.00  0.00    +0.231 C 
ATOM      3  O   UNL     1      -4.910  -3.337   3.357  0.00  0.00    -0.274 OA
ATOM      4  H   UNL     1      -2.152  -2.147   2.650  0.00  0.00    +0.155 HD
ENDROOT
BRANCH   1   9
ATOM      5  C   UNL     1      -2.842  -2.416   0.016  0.00  0.00    +0.091 A 
ATOM      6  C   UNL     1      -3.548  -2.714  -1.219  0.00  0.00    -0.021 A 
ATOM      7  C   UNL     1      -4.777  -3.242  -1.039  0.00  0.00    -0.004 A 
ATOM      8  S   UNL     1      -4.974  -3.335   0.716  0.00  0.00    -0.077 S 
ATOM      9  C   UNL     1      -3.495  -2.708   1.205  0.00  0.00    +0.086 A 
ATOM     10  C   UNL     1      -5.745  -3.651  -2.106  0.00  0.00    +0.043 C 
ATOM     11  C   UNL     1      -5.287  -3.033  -3.435  0.00  0.00    +0.005 C 
ATOM     12  C   UNL     1      -3.790  -3.300  -3.616  0.00  0.00    +0.005 C 
ATOM     13  C   UNL     1      -2.988  -2.468  -2.612  0.00  0.00    +0.037 C 
BRANCH   5  14
ATOM     14  C   UNL     1      -1.497  -1.838   0.006  0.00  0.00    +0.342 C 
ATOM     15  O   UNL     1      -0.523  -2.566  -0.007  0.00  0.00    -0.245 OA
BRANCH  14  16
ATOM     16  O   UNL     1      -1.339  -0.499   0.012  0.00  0.00    -0.461 OA
BRANCH  16  18
ATOM     17  C   UNL     1      -0.019   1.526   0.010  0.00  0.00    +0.048 C 
ATOM     18  C   UNL     1       0.002  -0.004   0.002  0.00  0.00    +0.229 C 
ENDBRANCH  16  18
ENDBRANCH  14  16
ENDBRANCH   5  14
ENDBRANCH   1   9
BRANCH   2  19
ATOM     19  C   UNL     1      -3.306  -2.666   4.953  0.00  0.00    +0.137 C 
ATOM     20  C   UNL     1      -3.595  -1.231   5.397  0.00  0.00    +0.029 C 
BRANCH  19  21
ATOM     21  S   UNL     1      -4.147  -3.825   6.066  0.00  0.00    -0.074 S 
BRANCH  21  22
ATOM     22  C   UNL     1      -3.357  -3.572   7.621  0.00  0.00    +0.185 A 
ATOM     23  N   UNL     1      -2.383  -2.723   7.862  0.00  0.00    -0.200 NA
ATOM     24  C   UNL     1      -2.027  -2.800   9.154  0.00  0.00    +0.189 A 
ATOM     25  N   UNL     1      -2.776  -3.704   9.748  0.00  0.00    -0.151 NA
ATOM     26  H   UNL     1      -4.329  -4.895   8.902  0.00  0.00    +0.191 HD
ATOM     27  N   UNL     1      -3.650  -4.214   8.774  0.00  0.00    -0.253 N 
BRANCH  24  28
ATOM     28  C   UNL     1      -0.967  -2.000   9.804  0.00  0.00    +0.058 A 
ATOM     29  C   UNL     1      -0.544  -2.024  11.106  0.00  0.00    +0.019 A 
ATOM     30  C   UNL     1       0.473  -1.177  11.488  0.00  0.00    +0.008 A 
ATOM     31  C   UNL     1       1.024  -0.347  10.565  0.00  0.00    +0.046 A 
ATOM     32  S   UNL     1       0.100  -0.757   9.094  0.00  0.00    -0.093 S 
ENDBRANCH  24  28
ENDBRANCH  21  22
ENDBRANCH  19  21
ENDBRANCH   2  19
TORSDOF 8
