REMARK  Name = ZINC39669501
REMARK  9 active torsions:
REMARK  status: ('A' for Active; 'I' for Inactive)
REMARK    1  A    between atoms: C_1  and  C_2
REMARK    2  A    between atoms: C_2  and  C_3
REMARK    3  A    between atoms: C_3  and  C_4
REMARK    4  A    between atoms: C_4  and  C_5
REMARK    5  A    between atoms: C_5  and  C_7
REMARK    6  A    between atoms: C_5  and  C_8
REMARK    7  A    between atoms: C_12  and  C_21
REMARK    8  A    between atoms: N_23  and  C_24
REMARK    9  A    between atoms: C_24  and  C_25
REMARK                            x       y       z     vdW  Elec       q    Type
REMARK                         _______ _______ _______ _____ _____    ______ ____
ROOT
ATOM      1  C   UNL     1       1.551  -4.180  -2.453  0.00  0.00    +0.218 C 
ATOM      2  O   UNL     1       1.171  -4.815  -1.492  0.00  0.00    -0.275 OA
ATOM      3  N   UNL     1       2.189  -4.804  -3.463  0.00  0.00    -0.300 N 
ATOM      4  C   UNL     1       2.728  -4.204  -4.705  0.00  0.00    +0.121 C 
ATOM      5  C   UNL     1       4.066  -4.939  -4.946  0.00  0.00    +0.100 C 
ATOM      6  C   UNL     1       3.915  -6.279  -4.207  0.00  0.00    -0.004 C 
ATOM      7  C   UNL     1       2.515  -6.246  -3.579  0.00  0.00    +0.115 C 
ATOM      8  C   UNL     1       4.974  -6.403  -3.116  0.00  0.00    -0.010 C 
ATOM      9  C   UNL     1       4.840  -7.768  -2.434  0.00  0.00    -0.082 C 
ATOM     10  N   UNL     1       5.008  -8.833  -3.430  0.00  0.00    +0.379 N 
ATOM     11  C   UNL     1       3.932  -8.763  -4.425  0.00  0.00    -0.082 C 
ATOM     12  C   UNL     1       4.027  -7.440  -5.191  0.00  0.00    -0.010 C 
ATOM     13  H   UNL     1       5.899  -8.722  -3.891  0.00  0.00    -0.086 HD
ATOM     14  H   UNL     1       4.981  -9.730  -2.969  0.00  0.00    -0.086 HD
ENDROOT
BRANCH   5  15
ATOM     15  C   UNL     1       4.281  -5.170  -6.419  0.00  0.00    +0.218 C 
ATOM     16  O   UNL     1       3.328  -5.327  -7.153  0.00  0.00    -0.275 OA
ATOM     17  N   UNL     1       5.531  -5.202  -6.921  0.00  0.00    -0.315 N 
ATOM     18  H   UNL     1       6.293  -5.077  -6.334  0.00  0.00    +0.149 HD
BRANCH  17  19
ATOM     19  C   UNL     1       5.740  -5.427  -8.354  0.00  0.00    +0.109 C 
BRANCH  19  20
ATOM     20  C   UNL     1       7.239  -5.417  -8.658  0.00  0.00    +0.024 C 
ATOM     21  C   UNL     1       7.454  -5.529 -10.169  0.00  0.00    +0.008 C 
ATOM     22  C   UNL     1       8.952  -5.486 -10.478  0.00  0.00    +0.019 C 
ATOM     23  C   UNL     1       9.643  -6.675  -9.802  0.00  0.00    +0.108 C 
ATOM     24  N   UNL     1       9.321  -6.657  -8.369  0.00  0.00    -0.299 N 
ATOM     25  C   UNL     1       7.910  -6.605  -7.961  0.00  0.00    +0.113 C 
ATOM     26  C   UNL     1      10.328  -6.688  -7.420  0.00  0.00    +0.218 A 
ATOM     27  N   UNL     1      10.005  -6.676  -6.134  0.00  0.00    -0.223 NA
ATOM     28  C   UNL     1      10.943  -6.705  -5.202  0.00  0.00    +0.116 A 
ATOM     29  C   UNL     1      12.275  -6.749  -5.583  0.00  0.00    +0.039 A 
ATOM     30  C   UNL     1      12.577  -6.760  -6.936  0.00  0.00    +0.116 A 
ATOM     31  N   UNL     1      11.591  -6.734  -7.817  0.00  0.00    -0.223 NA
ENDBRANCH  19  20
ENDBRANCH  17  19
ENDBRANCH   5  15
BRANCH   1  32
ATOM     32  C   UNL     1       1.310  -2.694  -2.518  0.00  0.00    +0.072 C 
ATOM     33  C   UNL     1       0.461  -2.369  -3.748  0.00  0.00    +0.017 C 
BRANCH  32  34
ATOM     34  C   UNL     1       0.573  -2.241  -1.256  0.00  0.00    +0.012 C 
BRANCH  34  35
ATOM     35  C   UNL     1       0.439  -0.717  -1.263  0.00  0.00    +0.000 C 
BRANCH  35  37
ATOM     36  C   UNL     1      -0.432   1.260  -0.008  0.00  0.00    +0.004 C 
ATOM     37  C   UNL     1      -0.298  -0.264  -0.001  0.00  0.00    -0.003 C 
ENDBRANCH  35  37
ENDBRANCH  34  35
ENDBRANCH  32  34
ENDBRANCH   1  32
TORSDOF 7
