REMARK  Name = ZINC25394233
REMARK  8 active torsions:
REMARK  status: ('A' for Active; 'I' for Inactive)
REMARK    1  A    between atoms: C_1  and  C_2
REMARK    2  A    between atoms: C_2  and  C_3
REMARK    3  A    between atoms: C_3  and  C_30
REMARK    4  A    between atoms: N_6  and  N_10
REMARK    5  A    between atoms: C_11  and  C_13
REMARK    6  A    between atoms: C_17  and  S_19
REMARK    7  A    between atoms: S_19  and  N_22
REMARK    8  A    between atoms: N_22  and  C_23
REMARK                            x       y       z     vdW  Elec       q    Type
REMARK                         _______ _______ _______ _____ _____    ______ ____
ROOT
ATOM      1  N   UNL     1      -3.519   1.912   0.458  0.00  0.00    -0.220 N 
ATOM      2  C   UNL     1      -2.374   1.205   0.371  0.00  0.00    +0.261 C 
ATOM      3  O   UNL     1      -2.410  -0.010   0.356  0.00  0.00    -0.269 OA
ATOM      4  H   UNL     1      -3.487   3.011   0.472  0.00  0.00    +0.174 HD
ENDROOT
BRANCH   1   8
ATOM      5  C   UNL     1      -6.714   0.339   1.264  0.00  0.00    +0.139 C 
ATOM      6  C   UNL     1      -5.479   1.124   1.658  0.00  0.00    +0.268 C 
ATOM      7  O   UNL     1      -5.204   1.554   2.758  0.00  0.00    -0.271 OA
ATOM      8  N   UNL     1      -4.749   1.246   0.531  0.00  0.00    -0.137 N 
ATOM      9  C   UNL     1      -5.348   0.657  -0.510  0.00  0.00    +0.327 C 
ATOM     10  O   UNL     1      -4.885   0.638  -1.634  0.00  0.00    -0.251 OA
ATOM     11  N   UNL     1      -6.519   0.085  -0.174  0.00  0.00    -0.280 N 
ATOM     12  H   UNL     1      -7.273  -0.480  -0.741  0.00  0.00    +0.152 HD
BRANCH   5  13
ATOM     13  C   UNL     1      -6.782  -0.959   2.026  0.00  0.00    -0.015 A 
ATOM     14  C   UNL     1      -7.443  -1.014   3.239  0.00  0.00    +0.006 A 
ATOM     15  C   UNL     1      -7.510  -2.206   3.937  0.00  0.00    +0.000 A 
ATOM     16  C   UNL     1      -6.908  -3.340   3.425  0.00  0.00    +0.000 A 
ATOM     17  C   UNL     1      -6.243  -3.284   2.215  0.00  0.00    +0.000 A 
ATOM     18  C   UNL     1      -6.180  -2.094   1.516  0.00  0.00    +0.006 A 
ENDBRANCH   5  13
BRANCH   5  20
ATOM     19  C   UNL     1      -7.964   2.392   0.583  0.00  0.00    +0.007 C 
ATOM     20  C   UNL     1      -7.977   1.168   1.501  0.00  0.00    +0.037 C 
ENDBRANCH   5  20
ENDBRANCH   1   8
BRANCH   2  21
ATOM     21  C   UNL     1      -1.076   1.908   0.294  0.00  0.00    +0.040 A 
ATOM     22  C   UNL     1      -1.031   3.303   0.317  0.00  0.00    +0.013 A 
ATOM     23  C   UNL     1       0.183   3.953   0.239  0.00  0.00    +0.003 A 
ATOM     24  C   UNL     1       1.356   3.225   0.144  0.00  0.00    +0.029 A 
ATOM     25  C   UNL     1       1.319   1.842   0.127  0.00  0.00    +0.109 A 
ATOM     26  C   UNL     1       0.111   1.180   0.204  0.00  0.00    +0.042 A 
BRANCH  25  27
ATOM     27  S   UNL     1       2.818   0.924   0.006  0.00  0.00    +0.072 S 
ATOM     28  O   UNL     1       3.852   1.768   0.497  0.00  0.00    -0.150 OA
ATOM     29  O   UNL     1       2.555  -0.358   0.558  0.00  0.00    -0.150 OA
BRANCH  27  30
ATOM     30  N   UNL     1       3.122   0.692  -1.605  0.00  0.00    -0.213 N 
ATOM     31  H   UNL     1       3.182  -0.328  -2.012  0.00  0.00    +0.174 HD
BRANCH  30  32
ATOM     32  C   UNL     1       3.302   1.793  -2.449  0.00  0.00    +0.083 A 
ATOM     33  C   UNL     1       3.943   2.932  -1.979  0.00  0.00    +0.027 A 
ATOM     34  C   UNL     1       4.122   4.017  -2.816  0.00  0.00    +0.002 A 
ATOM     35  C   UNL     1       3.656   3.974  -4.117  0.00  0.00    +0.003 A 
ATOM     36  C   UNL     1       3.013   2.844  -4.588  0.00  0.00    +0.040 A 
ATOM     37  C   UNL     1       2.834   1.753  -3.758  0.00  0.00    +0.146 A 
ATOM     38  F   UNL     1       2.205   0.649  -4.217  0.00  0.00    -0.204 F 
ENDBRANCH  30  32
ENDBRANCH  27  30
ENDBRANCH  25  27
ENDBRANCH   2  21
TORSDOF 7
