REMARK  Name = ZINC31807496
REMARK  6 active torsions:
REMARK  status: ('A' for Active; 'I' for Inactive)
REMARK    1  A    between atoms: C_1  and  O_2
REMARK    2  A    between atoms: O_2  and  C_3
REMARK    3  A    between atoms: C_3  and  C_4
REMARK    4  A    between atoms: C_4  and  C_5
REMARK    5  A    between atoms: C_5  and  N_6
REMARK    6  A    between atoms: C_11  and  C_24
REMARK                            x       y       z     vdW  Elec       q    Type
REMARK                         _______ _______ _______ _____ _____    ______ ____
ROOT
ATOM      1  N   UNL     1       1.328  -4.015  -0.446  0.00  0.00    -0.271 NA
ATOM      2  C   UNL     1       2.779  -4.245  -0.554  0.00  0.00    +0.193 C 
ATOM      3  N   UNL     1       3.395  -3.040  -1.135  0.00  0.00    -0.304 N 
ATOM      4  C   UNL     1       3.044  -1.819  -0.592  0.00  0.00    +0.189 C 
ATOM      5  N   UNL     1       3.853  -0.807  -0.652  0.00  0.00    -0.225 NA
ATOM      6  C   UNL     1       3.548   0.468   0.016  0.00  0.00    +0.244 C 
ATOM      7  N   UNL     1       2.096   0.666  -0.007  0.00  0.00    -0.284 N 
ATOM      8  C   UNL     1       1.332   1.790  -0.001  0.00  0.00    +0.072 A 
ATOM      9  C   UNL     1       1.637   3.146  -0.001  0.00  0.00    +0.028 A 
ATOM     10  C   UNL     1       0.574   4.034   0.013  0.00  0.00    +0.002 A 
ATOM     11  C   UNL     1      -0.742   3.605   0.026  0.00  0.00    +0.002 A 
ATOM     12  C   UNL     1      -1.073   2.262   0.030  0.00  0.00    +0.030 A 
ATOM     13  C   UNL     1      -0.016   1.346   0.009  0.00  0.00    +0.091 A 
ATOM     14  N   UNL     1       0.002  -0.004   0.002  0.00  0.00    -0.214 NA
ATOM     15  C   UNL     1       1.233  -0.419  -0.019  0.00  0.00    +0.209 A 
ATOM     16  N   UNL     1       1.767  -1.693  -0.067  0.00  0.00    -0.230 N 
ATOM     17  C   UNL     1       1.054  -2.864   0.430  0.00  0.00    +0.204 C 
ATOM     18  H   UNL     1       4.105  -3.133  -1.970  0.00  0.00    +0.150 HD
ENDROOT
BRANCH   6  19
ATOM     19  C   UNL     1       4.032   0.422   1.443  0.00  0.00    +0.032 A 
ATOM     20  C   UNL     1       4.283  -0.795   2.048  0.00  0.00    +0.012 A 
ATOM     21  C   UNL     1       4.732  -0.838   3.355  0.00  0.00    +0.020 A 
ATOM     22  C   UNL     1       4.919   0.336   4.062  0.00  0.00    +0.044 A 
ATOM     23  C   UNL     1       4.663   1.554   3.459  0.00  0.00    +0.058 A 
ATOM     24  C   UNL     1       4.219   1.598   2.149  0.00  0.00    +0.132 A 
ATOM     25  F   UNL     1       3.967   2.787   1.559  0.00  0.00    -0.205 F 
ATOM     26 CL   UNL     1       5.477   0.281   5.705  0.00  0.00    -0.083 Cl
ENDBRANCH   6  19
BRANCH   1  27
ATOM     27  C   UNL     1       0.639  -5.219   0.035  0.00  0.00    +0.089 C 
BRANCH  27  28
ATOM     28  C   UNL     1       1.068  -5.512   1.474  0.00  0.00    +0.043 C 
BRANCH  28  29
ATOM     29  C   UNL     1       0.350  -6.767   1.975  0.00  0.00    +0.160 C 
BRANCH  29  31
ATOM     30  C   UNL     1       0.135  -8.199   3.885  0.00  0.00    +0.193 C 
ATOM     31  O   UNL     1       0.751  -7.040   3.319  0.00  0.00    -0.383 OA
ENDBRANCH  29  31
ENDBRANCH  28  29
ENDBRANCH  27  28
ENDBRANCH   1  27
TORSDOF 5
