REMARK  Name = ZINC39685852
REMARK  11 active torsions:
REMARK  status: ('A' for Active; 'I' for Inactive)
REMARK    1  A    between atoms: C_1  and  C_2
REMARK    2  A    between atoms: C_2  and  C_3
REMARK    3  A    between atoms: C_2  and  C_4
REMARK    4  A    between atoms: C_4  and  C_6
REMARK    5  A    between atoms: C_4  and  N_13
REMARK    6  A    between atoms: N_8  and  C_9
REMARK    7  A    between atoms: C_9  and  C_10
REMARK    8  A    between atoms: C_9  and  C_11
REMARK    9  A    between atoms: C_9  and  C_12
REMARK   10  A    between atoms: C_14  and  C_16
REMARK   11  A    between atoms: C_27  and  C_29
REMARK                            x       y       z     vdW  Elec       q    Type
REMARK                         _______ _______ _______ _____ _____    ______ ____
ROOT
ATOM      1  C   UNL     1      -2.573  -0.750  -3.212  0.00  0.00    +0.100 C 
ATOM      2  C   UNL     1      -4.021  -0.319  -2.887  0.00  0.00    +0.121 C 
ATOM      3  N   UNL     1      -4.820  -0.789  -4.043  0.00  0.00    -0.297 N 
ATOM      4  C   UNL     1      -4.240  -2.112  -4.378  0.00  0.00    +0.115 C 
ATOM      5  C   UNL     1      -2.721  -1.927  -4.190  0.00  0.00    -0.004 C 
ATOM      6  C   UNL     1      -2.106  -3.190  -3.594  0.00  0.00    -0.010 C 
ATOM      7  C   UNL     1      -2.214  -4.332  -4.608  0.00  0.00    -0.082 C 
ATOM      8  N   UNL     1      -1.515  -3.960  -5.844  0.00  0.00    +0.379 N 
ATOM      9  C   UNL     1      -2.171  -2.800  -6.460  0.00  0.00    -0.082 C 
ATOM     10  C   UNL     1      -2.062  -1.593  -5.524  0.00  0.00    -0.010 C 
ATOM     11  C   UNL     1      -5.842  -0.157  -4.652  0.00  0.00    +0.260 C 
ATOM     12  O   UNL     1      -6.146   0.968  -4.316  0.00  0.00    -0.271 OA
ATOM     13  H   UNL     1      -0.557  -3.728  -5.630  0.00  0.00    -0.086 HD
ATOM     14  H   UNL     1      -1.535  -4.737  -6.487  0.00  0.00    -0.086 HD
ENDROOT
BRANCH  11  15
ATOM     15  C   UNL     1      -6.608  -0.848  -5.751  0.00  0.00    +0.296 C 
ATOM     16  C   UNL     1      -7.374  -2.046  -5.173  0.00  0.00    +0.283 C 
ATOM     17  O   UNL     1      -8.100  -2.670  -6.239  0.00  0.00    -0.484 OA
ATOM     18  C   UNL     1      -8.797  -1.846  -7.068  0.00  0.00    +0.162 A 
ATOM     19  C   UNL     1      -9.791  -2.377  -7.877  0.00  0.00    +0.049 A 
ATOM     20  C   UNL     1     -10.505  -1.553  -8.726  0.00  0.00    +0.004 A 
ATOM     21  C   UNL     1     -10.230  -0.199  -8.774  0.00  0.00    +0.004 A 
ATOM     22  C   UNL     1      -9.242   0.336  -7.970  0.00  0.00    +0.049 A 
ATOM     23  C   UNL     1      -8.522  -0.484  -7.114  0.00  0.00    +0.163 A 
ATOM     24  O   UNL     1      -7.556   0.059  -6.323  0.00  0.00    -0.473 OA
ENDBRANCH  11  15
BRANCH   1  26
ATOM     25  N   UNL     1      -0.525  -1.068  -1.862  0.00  0.00    -0.303 N 
ATOM     26  C   UNL     1      -1.863  -1.194  -1.959  0.00  0.00    +0.219 C 
ATOM     27  O   UNL     1      -2.497  -1.665  -1.038  0.00  0.00    -0.275 OA
ATOM     28  H   UNL     1      -0.022  -0.660  -2.584  0.00  0.00    +0.149 HD
BRANCH  25  29
ATOM     29  C   UNL     1       0.170  -1.548  -0.665  0.00  0.00    +0.161 C 
BRANCH  29  30
ATOM     30  C   UNL     1       1.351  -0.657  -0.379  0.00  0.00    +0.234 C 
ATOM     31  O   UNL     1       1.755   0.107  -1.230  0.00  0.00    -0.274 OA
ATOM     32  N   UNL     1       1.958  -0.708   0.824  0.00  0.00    -0.309 N 
ATOM     33  H   UNL     1       1.678  -1.364   1.480  0.00  0.00    +0.149 HD
BRANCH  32  34
ATOM     34  C   UNL     1       3.040   0.229   1.138  0.00  0.00    +0.026 C 
ATOM     35  C   UNL     1       2.514   1.663   1.050  0.00  0.00    +0.031 C 
ATOM     36  C   UNL     1       3.551  -0.040   2.555  0.00  0.00    +0.031 C 
ATOM     37  C   UNL     1       4.183   0.042   0.139  0.00  0.00    +0.031 C 
ENDBRANCH  32  34
ENDBRANCH  29  30
BRANCH  29  39
ATOM     38  C   UNL     1      -0.547  -3.917  -1.005  0.00  0.00    +0.009 C 
ATOM     39  C   UNL     1       0.657  -2.980  -0.898  0.00  0.00    +0.012 C 
ATOM     40  C   UNL     1       1.466  -3.039  -2.196  0.00  0.00    +0.009 C 
ENDBRANCH  29  39
ENDBRANCH  25  29
ENDBRANCH   1  26
TORSDOF 6
