REMARK  Name = ZINC44783694
REMARK  4 active torsions:
REMARK  status: ('A' for Active; 'I' for Inactive)
REMARK    1  A    between atoms: C_4  and  N_8
REMARK    2  A    between atoms: C_9  and  C_11
REMARK    3  A    between atoms: C_11  and  C_17
REMARK    4  A    between atoms: N_18  and  O_19
REMARK                            x       y       z     vdW  Elec       q    Type
REMARK                         _______ _______ _______ _____ _____    ______ ____
ROOT
ATOM      1  C   UNL     1       4.991  -2.767   0.160  0.00  0.00    +0.109 C 
ATOM      2  C   UNL     1       5.545  -2.163   1.454  0.00  0.00    +0.052 C 
ATOM      3  C   UNL     1       4.723  -2.675   2.639  0.00  0.00    +0.161 C 
ATOM      4  O   UNL     1       4.763  -4.103   2.665  0.00  0.00    -0.380 OA
ATOM      5  C   UNL     1       4.215  -4.723   1.501  0.00  0.00    +0.161 C 
ATOM      6  C   UNL     1       5.017  -4.294   0.269  0.00  0.00    +0.052 C 
ENDROOT
BRANCH   1   7
ATOM      7  C   UNL     1       5.841  -2.331  -1.006  0.00  0.00    +0.147 C 
ATOM      8  N   UNL     1       5.497  -2.648  -2.210  0.00  0.00    -0.076 NA
ATOM      9  N   UNL     1       6.984  -1.594  -0.788  0.00  0.00    -0.343 N 
ATOM     10  H   UNL     1       7.284  -1.421   0.118  0.00  0.00    +0.144 HD
ATOM     11  H   UNL     1       7.489  -1.248  -1.540  0.00  0.00    +0.144 HD
BRANCH   8  12
ATOM     12  O   UNL     1       4.244  -3.262  -2.450  0.00  0.00    -0.408 OA
ATOM     13  H   UNL     1       4.075  -3.462  -3.381  0.00  0.00    +0.328 HD
ENDBRANCH   8  12
ENDBRANCH   1   7
BRANCH   1  15
ATOM     14  N   UNL     1       3.288  -0.983  -0.031  0.00  0.00    -0.283 N 
ATOM     15  C   UNL     1       3.573  -2.300  -0.047  0.00  0.00    +0.231 C 
ATOM     16  O   UNL     1       2.689  -3.110  -0.228  0.00  0.00    -0.274 OA
ATOM     17  H   UNL     1       4.006  -0.332   0.015  0.00  0.00    +0.155 HD
BRANCH  14  21
ATOM     18  C   UNL     1      -0.676   0.295  -0.181  0.00  0.00    +0.021 A 
ATOM     19  C   UNL     1       0.271   1.062   0.471  0.00  0.00    +0.023 A 
ATOM     20  C   UNL     1       1.587   0.641   0.523  0.00  0.00    +0.062 A 
ATOM     21  C   UNL     1       1.957  -0.554  -0.082  0.00  0.00    +0.053 A 
ATOM     22  C   UNL     1       1.003  -1.322  -0.736  0.00  0.00    +0.044 A 
ATOM     23  C   UNL     1      -0.311  -0.896  -0.784  0.00  0.00    +0.043 A 
ATOM     24 CL   UNL     1      -1.505  -1.856  -1.601  0.00  0.00    -0.083 Cl
ATOM     25 CL   UNL     1       2.776   1.606   1.341  0.00  0.00    -0.082 Cl
ENDBRANCH  14  21
ENDBRANCH   1  15
TORSDOF 4
