REMARK  Name = ZINC57531355
REMARK  8 active torsions:
REMARK  status: ('A' for Active; 'I' for Inactive)
REMARK    1  A    between atoms: C_1  and  C_2
REMARK    2  A    between atoms: C_2  and  O_3
REMARK    3  A    between atoms: O_3  and  C_4
REMARK    4  A    between atoms: C_4  and  C_6
REMARK    5  A    between atoms: C_8  and  C_20
REMARK    6  A    between atoms: C_14  and  C_15
REMARK    7  A    between atoms: C_14  and  O_19
REMARK    8  A    between atoms: C_25  and  N_26
REMARK                            x       y       z     vdW  Elec       q    Type
REMARK                         _______ _______ _______ _____ _____    ______ ____
ROOT
ATOM      1  C   UNL     1       1.539  -2.327  -2.692  0.00  0.00    +0.181 C 
ATOM      2  C   UNL     1       1.739  -3.845  -2.632  0.00  0.00    +0.123 C 
ATOM      3  N   UNL     1       2.145  -4.328  -3.953  0.00  0.00    -0.319 N 
ATOM      4  C   UNL     1       1.763  -3.699  -5.074  0.00  0.00    +0.133 C 
ATOM      5  S   UNL     1       2.264  -4.332  -6.584  0.00  0.00    -0.019 S 
ATOM      6  N   UNL     1       1.003  -2.594  -5.059  0.00  0.00    -0.291 N 
ATOM      7  C   UNL     1       0.533  -2.007  -3.803  0.00  0.00    +0.244 C 
ATOM      8  H   UNL     1       2.702  -5.119  -4.018  0.00  0.00    +0.148 HD
ATOM      9  H   UNL     1       0.761  -2.173  -5.899  0.00  0.00    +0.151 HD
ENDROOT
BRANCH   2  10
ATOM     10  C   UNL     1       2.809  -4.172  -1.623  0.00  0.00    +0.004 A 
ATOM     11  C   UNL     1       3.651  -3.178  -1.161  0.00  0.00    +0.008 A 
ATOM     12  C   UNL     1       4.633  -3.478  -0.236  0.00  0.00    +0.000 A 
ATOM     13  C   UNL     1       4.773  -4.773   0.228  0.00  0.00    +0.002 A 
ATOM     14  C   UNL     1       3.931  -5.767  -0.233  0.00  0.00    +0.033 A 
ATOM     15  C   UNL     1       2.946  -5.465  -1.156  0.00  0.00    +0.131 A 
BRANCH  15  16
ATOM     16  N   UNL     1       2.041  -6.529  -1.646  0.00  0.00    +0.057 N 
ATOM     17  O   UNL     1       2.220  -7.677  -1.312  0.00  0.00    -0.126 OA
ATOM     18  O   UNL     1       1.122  -6.250  -2.380  0.00  0.00    -0.126 OA
ENDBRANCH  15  16
ENDBRANCH   2  10
BRANCH   7  19
ATOM     19  C   UNL     1       0.408  -0.490  -3.958  0.00  0.00    +0.436 C 
ATOM     20  F   UNL     1       1.676   0.065  -4.162  0.00  0.00    -0.166 F 
ATOM     21  F   UNL     1      -0.410  -0.199  -5.056  0.00  0.00    -0.166 F 
ATOM     22  F   UNL     1      -0.158   0.052  -2.799  0.00  0.00    -0.166 F 
ENDBRANCH   7  19
BRANCH   1  23
ATOM     23  C   UNL     1       1.008  -1.833  -1.371  0.00  0.00    +0.317 C 
ATOM     24  O   UNL     1       0.166  -2.470  -0.782  0.00  0.00    -0.250 OA
BRANCH  23  25
ATOM     25  O   UNL     1       1.469  -0.687  -0.848  0.00  0.00    -0.465 OA
BRANCH  25  27
ATOM     26  C   UNL     1       1.564   1.040   0.841  0.00  0.00    +0.048 C 
ATOM     27  C   UNL     1       0.921  -0.279   0.407  0.00  0.00    +0.229 C 
ENDBRANCH  25  27
ENDBRANCH  23  25
ENDBRANCH   1  23
BRANCH   7  28
ATOM     28  O   UNL     1      -0.741  -2.561  -3.468  0.00  0.00    -0.364 OA
ATOM     29  H   UNL     1      -1.428  -2.396  -4.128  0.00  0.00    +0.212 HD
ENDBRANCH   7  28
TORSDOF 7
