REMARK  Name = ZINC07059654
REMARK  6 active torsions:
REMARK  status: ('A' for Active; 'I' for Inactive)
REMARK    1  A    between atoms: C_1  and  C_2
REMARK    2  A    between atoms: C_2  and  C_4
REMARK    3  A    between atoms: C_2  and  S_19
REMARK    4  A    between atoms: C_16  and  C_17
REMARK    5  A    between atoms: C_16  and  C_18
REMARK    6  A    between atoms: S_19  and  C_20
REMARK                            x       y       z     vdW  Elec       q    Type
REMARK                         _______ _______ _______ _____ _____    ______ ____
ROOT
ATOM      1  C   UNL     1      -2.155  -0.614  -0.728  0.00  0.00    +0.234 C 
ATOM      2  O   UNL     1      -1.245   0.072  -1.143  0.00  0.00    -0.274 OA
ATOM      3  N   UNL     1      -2.354  -0.738   0.600  0.00  0.00    -0.255 N 
ATOM      4  C   UNL     1      -1.411  -0.257   1.522  0.00  0.00    +0.059 A 
ATOM      5  C   UNL     1      -0.066  -0.201   1.205  0.00  0.00    +0.025 A 
ATOM      6  C   UNL     1       0.839   0.274   2.136  0.00  0.00    +0.002 A 
ATOM      7  C   UNL     1       0.402   0.693   3.380  0.00  0.00    +0.002 A 
ATOM      8  C   UNL     1      -0.941   0.641   3.703  0.00  0.00    +0.025 A 
ATOM      9  C   UNL     1      -1.856   0.168   2.775  0.00  0.00    +0.055 A 
ATOM     10  N   UNL     1      -3.221   0.118   3.077  0.00  0.00    -0.282 N 
ATOM     11  C   UNL     1      -4.071  -0.584   2.305  0.00  0.00    +0.241 C 
ATOM     12  O   UNL     1      -5.257  -0.578   2.560  0.00  0.00    -0.273 OA
ATOM     13  C   UNL     1      -3.570  -1.375   1.128  0.00  0.00    +0.113 C 
ATOM     14  C   UNL     1      -3.246  -2.802   1.575  0.00  0.00    +0.042 C 
ATOM     15  C   UNL     1      -4.644  -1.409   0.040  0.00  0.00    +0.042 C 
ATOM     16  H   UNL     1      -3.559   0.596   3.851  0.00  0.00    +0.155 HD
ENDROOT
BRANCH   1  18
ATOM     17  C   UNL     1      -2.921  -2.840  -1.505  0.00  0.00    +0.029 C 
ATOM     18  C   UNL     1      -3.062  -1.329  -1.696  0.00  0.00    +0.137 C 
BRANCH  18  19
ATOM     19  S   UNL     1      -2.601  -0.888  -3.394  0.00  0.00    -0.075 S 
BRANCH  19  20
ATOM     20  C   UNL     1      -3.828  -1.673  -4.386  0.00  0.00    +0.168 A 
ATOM     21  N   UNL     1      -3.884  -1.623  -5.750  0.00  0.00    -0.333 N 
ATOM     22  H   UNL     1      -3.266  -1.158  -6.335  0.00  0.00    +0.168 HD
ATOM     23  C   UNL     1      -4.989  -2.362  -6.142  0.00  0.00    +0.067 A 
ATOM     24  C   UNL     1      -5.551  -2.671  -7.371  0.00  0.00    +0.028 A 
ATOM     25  C   UNL     1      -6.686  -3.453  -7.430  0.00  0.00    +0.002 A 
ATOM     26  C   UNL     1      -7.270  -3.933  -6.267  0.00  0.00    +0.002 A 
ATOM     27  C   UNL     1      -6.725  -3.636  -5.038  0.00  0.00    +0.030 A 
ATOM     28  C   UNL     1      -5.575  -2.845  -4.961  0.00  0.00    +0.090 A 
ATOM     29  N   UNL     1      -4.819  -2.396  -3.925  0.00  0.00    -0.222 NA
ENDBRANCH  19  20
ENDBRANCH  18  19
ENDBRANCH   1  18
TORSDOF 3
