REMARK  Name = ZINC39711096
REMARK  10 active torsions:
REMARK  status: ('A' for Active; 'I' for Inactive)
REMARK    1  A    between atoms: C_1  and  C_2
REMARK    2  A    between atoms: C_5  and  C_39
REMARK    3  A    between atoms: C_10  and  C_14
REMARK    4  A    between atoms: C_14  and  C_16
REMARK    5  A    between atoms: C_14  and  N_26
REMARK    6  A    between atoms: N_21  and  C_22
REMARK    7  A    between atoms: C_22  and  C_23
REMARK    8  A    between atoms: C_22  and  C_24
REMARK    9  A    between atoms: C_22  and  C_25
REMARK   10  A    between atoms: N_29  and  C_32
REMARK                            x       y       z     vdW  Elec       q    Type
REMARK                         _______ _______ _______ _____ _____    ______ ____
ROOT
ATOM      1  C   UNL     1       1.279   0.168   5.140  0.00  0.00    -0.011 C 
ENDROOT
BRANCH   1  11
ATOM      2  C   UNL     1       0.182  -4.465   3.213  0.00  0.00    +0.044 C 
ATOM      3  C   UNL     1      -0.910  -3.891   4.078  0.00  0.00    -0.042 A 
ATOM      4  C   UNL     1      -1.910  -4.683   4.546  0.00  0.00    +0.004 A 
ATOM      5  C   UNL     1      -2.929  -4.169   5.348  0.00  0.00    +0.005 A 
ATOM      6  C   UNL     1      -2.988  -2.861   5.710  0.00  0.00    -0.029 A 
ATOM      7  C   UNL     1      -2.001  -1.955   5.278  0.00  0.00    +0.043 A 
ATOM      8  N   UNL     1      -2.069  -0.674   5.640  0.00  0.00    -0.284 N 
ATOM      9  C   UNL     1      -1.176   0.229   5.270  0.00  0.00    +0.223 C 
ATOM     10  O   UNL     1      -1.290   1.385   5.631  0.00  0.00    -0.275 OA
ATOM     11  C   UNL     1      -0.012  -0.181   4.396  0.00  0.00    +0.088 C 
ATOM     12  C   UNL     1       0.070  -1.637   3.983  0.00  0.00    -0.006 C 
ATOM     13  C   UNL     1      -0.909  -2.471   4.434  0.00  0.00    -0.004 A 
ATOM     14  C   UNL     1      -4.119  -2.375   6.579  0.00  0.00    +0.045 C 
ATOM     15  H   UNL     1      -2.808  -0.390   6.200  0.00  0.00    +0.155 HD
ENDBRANCH   1  11
BRANCH   1  16
ATOM     16  N   UNL     1       1.096  -0.071   6.577  0.00  0.00    +0.387 N 
ATOM     17  C   UNL     1       2.267   0.430   7.308  0.00  0.00    -0.059 C 
ATOM     18  C   UNL     1       2.028   0.285   8.815  0.00  0.00    +0.086 C 
ATOM     19  N   UNL     1       1.689  -1.118   9.100  0.00  0.00    -0.331 N 
ATOM     20  C   UNL     1       0.632  -1.753   8.298  0.00  0.00    +0.086 C 
ATOM     21  C   UNL     1       0.937  -1.512   6.815  0.00  0.00    -0.059 C 
ATOM     22  H   UNL     1       0.271   0.414   6.896  0.00  0.00    -0.081 HD
BRANCH  19  23
ATOM     23  C   UNL     1       2.353  -1.827  10.106  0.00  0.00    +0.065 A 
ATOM     24  C   UNL     1       1.857  -1.824  11.403  0.00  0.00    +0.026 A 
ATOM     25  C   UNL     1       2.515  -2.526  12.394  0.00  0.00    +0.002 A 
ATOM     26  C   UNL     1       3.666  -3.233  12.097  0.00  0.00    +0.003 A 
ATOM     27  C   UNL     1       4.164  -3.239  10.807  0.00  0.00    +0.040 A 
ATOM     28  C   UNL     1       3.508  -2.543   9.808  0.00  0.00    +0.144 A 
ATOM     29  F   UNL     1       3.990  -2.554   8.546  0.00  0.00    -0.204 F 
ENDBRANCH  19  23
ENDBRANCH   1  16
BRANCH   1  30
ATOM     30  C   UNL     1       1.618   1.642   4.907  0.00  0.00    +0.183 C 
ATOM     31  N   UNL     1       0.526   2.511   5.384  0.00  0.00    -0.229 N 
ATOM     32  N   UNL     1       0.065   3.201   4.257  0.00  0.00    -0.064 NA
ATOM     33  N   UNL     1       0.676   2.899   3.235  0.00  0.00    -0.061 NA
ATOM     34  N   UNL     1       1.678   1.943   3.464  0.00  0.00    -0.211 N 
ATOM     35  H   UNL     1       0.195   2.588   6.293  0.00  0.00    +0.172 HD
BRANCH  34  36
ATOM     36  C   UNL     1       2.593   1.362   2.478  0.00  0.00    +0.047 C 
ATOM     37  C   UNL     1       2.262  -0.119   2.286  0.00  0.00    +0.033 C 
ATOM     38  C   UNL     1       2.438   2.097   1.145  0.00  0.00    +0.033 C 
ATOM     39  C   UNL     1       4.033   1.504   2.974  0.00  0.00    +0.033 C 
ENDBRANCH  34  36
ENDBRANCH   1  30
TORSDOF 5
