REMARK  Name = ZINC67617256
REMARK  5 active torsions:
REMARK  status: ('A' for Active; 'I' for Inactive)
REMARK    1  A    between atoms: C_4  and  C_7
REMARK    2  A    between atoms: C_10  and  N_12
REMARK    3  A    between atoms: N_15  and  C_16
REMARK    4  A    between atoms: C_16  and  C_17
REMARK    5  A    between atoms: C_20  and  N_23
REMARK                            x       y       z     vdW  Elec       q    Type
REMARK                         _______ _______ _______ _____ _____    ______ ____
ROOT
ATOM      1  N   UNL     1       2.986  -1.809   2.168  0.00  0.00    -0.296 N 
ATOM      2  C   UNL     1       3.345  -2.168   3.417  0.00  0.00    +0.300 C 
ATOM      3  O   UNL     1       4.512  -2.394   3.672  0.00  0.00    -0.253 OA
ATOM      4  N   UNL     1       2.411  -2.275   4.382  0.00  0.00    -0.295 N 
ATOM      5  H   UNL     1       2.055  -1.628   1.964  0.00  0.00    +0.151 HD
ATOM      6  H   UNL     1       1.480  -2.094   4.178  0.00  0.00    +0.151 HD
ENDROOT
BRANCH   1   9
ATOM      7  C   UNL     1       3.698  -0.763  -0.058  0.00  0.00    +0.041 C 
ATOM      8  C   UNL     1       3.670  -2.280  -0.255  0.00  0.00    +0.033 C 
ATOM      9  C   UNL     1       4.002  -1.693   1.119  0.00  0.00    +0.082 C 
BRANCH   7  13
ATOM     10  C   UNL     1      -0.046   1.293  -0.035  0.00  0.00    +0.000 A 
ATOM     11  C   UNL     1       1.136   2.009  -0.050  0.00  0.00    +0.000 A 
ATOM     12  C   UNL     1       2.348   1.344  -0.058  0.00  0.00    +0.004 A 
ATOM     13  C   UNL     1       2.377  -0.038  -0.049  0.00  0.00    -0.042 A 
ATOM     14  C   UNL     1       1.195  -0.755  -0.034  0.00  0.00    +0.004 A 
ATOM     15  C   UNL     1      -0.016  -0.089  -0.028  0.00  0.00    +0.000 A 
ENDBRANCH   7  13
ENDBRANCH   1   9
BRANCH   4  16
ATOM     16  C   UNL     1       2.801  -2.665   5.739  0.00  0.00    +0.141 C 
BRANCH  16  17
ATOM     17  C   UNL     1       1.579  -2.711   6.620  0.00  0.00    -0.030 A 
ATOM     18  C   UNL     1       1.178  -1.577   7.303  0.00  0.00    +0.007 A 
ATOM     19  C   UNL     1       0.059  -1.616   8.111  0.00  0.00    +0.023 A 
ATOM     20  C   UNL     1      -0.665  -2.795   8.236  0.00  0.00    +0.030 A 
ATOM     21  C   UNL     1      -0.259  -3.932   7.549  0.00  0.00    +0.023 A 
ATOM     22  C   UNL     1       0.858  -3.885   6.738  0.00  0.00    +0.007 A 
BRANCH  20  23
ATOM     23  N   UNL     1      -1.797  -2.837   9.053  0.00  0.00    -0.320 N 
ATOM     24  C   UNL     1      -2.653  -4.035   9.114  0.00  0.00    +0.124 C 
ATOM     25  C   UNL     1      -2.634  -4.561  10.551  0.00  0.00    +0.123 C 
ATOM     26  N   UNL     1      -2.835  -3.476  11.502  0.00  0.00    -0.313 N 
ATOM     27  C   UNL     1      -2.601  -2.189  11.242  0.00  0.00    +0.230 C 
ATOM     28  O   UNL     1      -2.730  -1.385  12.141  0.00  0.00    -0.274 OA
ATOM     29  C   UNL     1      -2.180  -1.691   9.890  0.00  0.00    +0.200 C 
ATOM     30  H   UNL     1      -3.162  -3.706  12.385  0.00  0.00    +0.149 HD
ENDBRANCH  20  23
ENDBRANCH  16  17
ENDBRANCH   4  16
TORSDOF 5
