REMARK  Name = ZINC20292472
REMARK  9 active torsions:
REMARK  status: ('A' for Active; 'I' for Inactive)
REMARK    1  A    between atoms: C_1  and  C_2
REMARK    2  A    between atoms: C_6  and  C_8
REMARK    3  A    between atoms: C_8  and  S_9
REMARK    4  A    between atoms: S_9  and  C_10
REMARK    5  A    between atoms: N_14  and  N_15
REMARK    6  A    between atoms: N_16  and  N_17
REMARK    7  A    between atoms: C_18  and  C_19
REMARK    8  A    between atoms: C_23  and  O_25
REMARK    9  A    between atoms: O_25  and  C_26
REMARK                            x       y       z     vdW  Elec       q    Type
REMARK                         _______ _______ _______ _____ _____    ______ ____
ROOT
ATOM      1  C   UNL     1       1.787  -4.257   4.360  0.00  0.00    +0.210 A 
ATOM      2  N   UNL     1       0.654  -4.546   4.955  0.00  0.00    -0.119 NA
ATOM      3  N   UNL     1       0.951  -5.205   6.155  0.00  0.00    -0.109 NA
ATOM      4  C   UNL     1       2.255  -5.298   6.253  0.00  0.00    +0.254 A 
ATOM      5  N   UNL     1       2.805  -4.720   5.143  0.00  0.00    -0.211 N 
ATOM      6  N   UNL     1       2.954  -5.885   7.298  0.00  0.00    -0.204 N 
ATOM      7  H   UNL     1       3.924  -5.905   7.282  0.00  0.00    +0.177 HD
ENDROOT
BRANCH   5   8
ATOM      8  N   UNL     1       4.139  -4.619   4.868  0.00  0.00    -0.294 N 
ATOM      9  H   UNL     1       4.523  -3.765   5.244  0.00  0.00    +0.163 HD
ATOM     10  H   UNL     1       4.641  -5.423   5.213  0.00  0.00    +0.163 HD
ENDBRANCH   5   8
BRANCH   6  11
ATOM     11  N   UNL     1       2.260  -6.449   8.377  0.00  0.00    -0.188 NA
ATOM     12  C   UNL     1       2.914  -6.998   9.354  0.00  0.00    +0.138 C 
BRANCH  12  13
ATOM     13  C   UNL     1       2.183  -7.591  10.489  0.00  0.00    -0.002 A 
ATOM     14  C   UNL     1       0.786  -7.569  10.512  0.00  0.00    +0.010 A 
ATOM     15  C   UNL     1       0.106  -8.126  11.576  0.00  0.00    +0.004 A 
ATOM     16  C   UNL     1       0.802  -8.706  12.620  0.00  0.00    +0.046 A 
ATOM     17  C   UNL     1       2.190  -8.733  12.607  0.00  0.00    +0.129 A 
ATOM     18  C   UNL     1       2.884  -8.183  11.542  0.00  0.00    +0.055 A 
BRANCH  17  19
ATOM     19  O   UNL     1       2.868  -9.304  13.637  0.00  0.00    -0.456 OA
BRANCH  19  20
ATOM     20  C   UNL     1       3.610  -8.495  14.438  0.00  0.00    +0.128 A 
ATOM     21  C   UNL     1       3.555  -7.118  14.278  0.00  0.00    +0.046 A 
ATOM     22  C   UNL     1       4.310  -6.298  15.094  0.00  0.00    +0.004 A 
ATOM     23  C   UNL     1       5.120  -6.849  16.070  0.00  0.00    +0.000 A 
ATOM     24  C   UNL     1       5.176  -8.221  16.232  0.00  0.00    +0.004 A 
ATOM     25  C   UNL     1       4.418  -9.045  15.423  0.00  0.00    +0.046 A 
ENDBRANCH  19  20
ENDBRANCH  17  19
ENDBRANCH  12  13
ENDBRANCH   6  11
BRANCH   1  26
ATOM     26  S   UNL     1       1.963  -3.425   2.817  0.00  0.00    -0.080 S 
BRANCH  26  27
ATOM     27  C   UNL     1       0.256  -3.085   2.304  0.00  0.00    +0.112 C 
BRANCH  27  33
ATOM     28  C   UNL     1       0.353   1.181  -0.311  0.00  0.00    +0.044 C 
ATOM     29  C   UNL     1       0.309  -0.325  -0.271  0.00  0.00    -0.050 A 
ATOM     30  C   UNL     1       0.275  -1.047  -1.450  0.00  0.00    +0.003 A 
ATOM     31  C   UNL     1       0.235  -2.428  -1.414  0.00  0.00    +0.001 A 
ATOM     32  C   UNL     1       0.229  -3.087  -0.199  0.00  0.00    +0.004 A 
ATOM     33  C   UNL     1       0.263  -2.366   0.980  0.00  0.00    -0.037 A 
ATOM     34  C   UNL     1       0.308  -0.984   0.943  0.00  0.00    +0.007 A 
ENDBRANCH  27  33
ENDBRANCH  26  27
ENDBRANCH   1  26
TORSDOF 8
