REMARK  Name = ZINC39836496
REMARK  12 active torsions:
REMARK  status: ('A' for Active; 'I' for Inactive)
REMARK    1  A    between atoms: C_1  and  C_2
REMARK    2  A    between atoms: C_2  and  C_3
REMARK    3  A    between atoms: C_3  and  O_4
REMARK    4  A    between atoms: O_4  and  C_5
REMARK    5  A    between atoms: C_8  and  C_11
REMARK    6  A    between atoms: N_13  and  C_14
REMARK    7  A    between atoms: C_15  and  C_28
REMARK    8  A    between atoms: C_20  and  C_24
REMARK    9  A    between atoms: C_24  and  C_25
REMARK   10  A    between atoms: C_24  and  C_26
REMARK   11  A    between atoms: C_24  and  C_27
REMARK   12  A    between atoms: N_30  and  C_31
REMARK                            x       y       z     vdW  Elec       q    Type
REMARK                         _______ _______ _______ _____ _____    ______ ____
ROOT
ATOM      1  C   UNL     1      -7.649  -6.566   0.046  0.00  0.00    +0.085 A 
ATOM      2  C   UNL     1      -7.894  -7.931   0.052  0.00  0.00    +0.069 A 
ATOM      3  C   UNL     1      -9.283  -8.357   0.061  0.00  0.00    -0.023 A 
ATOM      4  C   UNL     1     -10.172  -7.340   0.063  0.00  0.00    -0.004 A 
ATOM      5  S   UNL     1      -9.180  -5.876   0.059  0.00  0.00    -0.077 S 
ATOM      6  C   UNL     1     -11.665  -7.452   0.073  0.00  0.00    +0.046 C 
ATOM      7  C   UNL     1     -12.039  -8.890   0.462  0.00  0.00    -0.000 C 
ATOM      8  C   UNL     1     -11.204  -9.863  -0.376  0.00  0.00    +0.009 C 
ATOM      9  C   UNL     1      -9.740  -9.808   0.067  0.00  0.00    +0.037 C 
ENDROOT
BRANCH   1  12
ATOM     10  C   UNL     1      -6.371  -4.574   0.039  0.00  0.00    +0.249 C 
ATOM     11  O   UNL     1      -7.400  -3.926   0.048  0.00  0.00    -0.270 OA
ATOM     12  N   UNL     1      -6.424  -5.921   0.038  0.00  0.00    -0.275 N 
ATOM     13  H   UNL     1      -5.603  -6.438   0.031  0.00  0.00    +0.156 HD
BRANCH  10  17
ATOM     14  C   UNL     1      -2.615  -2.595   0.013  0.00  0.00    +0.121 A 
ATOM     15  C   UNL     1      -3.789  -1.852   0.023  0.00  0.00    +0.046 A 
ATOM     16  C   UNL     1      -5.010  -2.490   0.031  0.00  0.00    +0.016 A 
ATOM     17  C   UNL     1      -5.066  -3.886   0.030  0.00  0.00    +0.037 A 
ATOM     18  C   UNL     1      -3.882  -4.630   0.020  0.00  0.00    +0.016 A 
ATOM     19  C   UNL     1      -2.666  -3.984   0.006  0.00  0.00    +0.046 A 
BRANCH  14  20
ATOM     20  O   UNL     1      -1.414  -1.962   0.005  0.00  0.00    -0.492 OA
BRANCH  20  21
ATOM     21  C   UNL     1      -1.433  -0.534   0.013  0.00  0.00    +0.229 C 
BRANCH  21  23
ATOM     22  C   UNL     1      -0.019   1.526   0.010  0.00  0.00    +0.007 C 
ATOM     23  C   UNL     1       0.002  -0.004   0.002  0.00  0.00    +0.038 C 
ENDBRANCH  21  23
ENDBRANCH  20  21
ENDBRANCH  14  20
ENDBRANCH  10  17
ENDBRANCH   1  12
BRANCH   7  24
ATOM     24  C   UNL     1     -13.527  -9.124   0.192  0.00  0.00    -0.035 C 
ATOM     25  C   UNL     1     -13.815  -8.907  -1.295  0.00  0.00    +0.011 C 
ATOM     26  C   UNL     1     -13.896 -10.557   0.579  0.00  0.00    +0.011 C 
ATOM     27  C   UNL     1     -14.356  -8.141   1.021  0.00  0.00    +0.011 C 
ENDBRANCH   7  24
BRANCH   2  28
ATOM     28  C   UNL     1      -6.797  -8.904   0.049  0.00  0.00    +0.247 C 
ATOM     29  O   UNL     1      -6.336  -9.304   1.102  0.00  0.00    -0.270 OA
ATOM     30  N   UNL     1      -6.299  -9.354  -1.120  0.00  0.00    -0.307 N 
ATOM     31  H   UNL     1      -6.667  -9.035  -1.959  0.00  0.00    +0.149 HD
BRANCH  30  32
ATOM     32  C   UNL     1      -5.203 -10.326  -1.123  0.00  0.00    +0.096 C 
ATOM     33  C   UNL     1      -3.856  -9.589  -1.041  0.00  0.00    +0.046 C 
ATOM     34  C   UNL     1      -2.700 -10.566  -1.364  0.00  0.00    +0.168 C 
ATOM     35  S   UNL     1      -3.504 -11.790  -2.477  0.00  0.00    -0.029 S 
ATOM     36  O   UNL     1      -3.479 -13.067  -1.855  0.00  0.00    -0.174 OA
ATOM     37  O   UNL     1      -2.976 -11.640  -3.787  0.00  0.00    -0.174 OA
ATOM     38  C   UNL     1      -5.228 -11.142  -2.447  0.00  0.00    +0.188 C 
ENDBRANCH  30  32
ENDBRANCH   2  28
TORSDOF 8
