REMARK  Name = ZINC62159023
REMARK  4 active torsions:
REMARK  status: ('A' for Active; 'I' for Inactive)
REMARK    1  A    between atoms: C_1  and  C_2
REMARK    2  A    between atoms: C_5  and  S_9
REMARK    3  A    between atoms: S_9  and  N_12
REMARK    4  A    between atoms: C_18  and  C_25
REMARK                            x       y       z     vdW  Elec       q    Type
REMARK                         _______ _______ _______ _____ _____    ______ ____
ROOT
ATOM      1  N   UNL     1       1.651  -5.000  -0.035  0.00  0.00    -0.129 NA
ATOM      2  C   UNL     1       1.964  -6.296  -0.045  0.00  0.00    +0.088 A 
ATOM      3  C   UNL     1       0.937  -7.270  -0.051  0.00  0.00    +0.030 A 
ATOM      4  C   UNL     1       1.243  -8.589  -0.062  0.00  0.00    +0.012 A 
ATOM      5  C   UNL     1       2.592  -9.001  -0.065  0.00  0.00    -0.001 A 
ATOM      6  C   UNL     1       2.925 -10.364  -0.076  0.00  0.00    +0.018 A 
ATOM      7  C   UNL     1       4.258 -10.732  -0.079  0.00  0.00    +0.014 A 
ATOM      8  C   UNL     1       5.251  -9.768  -0.072  0.00  0.00    +0.252 A 
ATOM      9  O   UNL     1       6.545 -10.149  -0.076  0.00  0.00    -0.268 OA
ATOM     10  N   UNL     1       4.945  -8.447  -0.062  0.00  0.00    -0.322 N 
ATOM     11  H   UNL     1       5.656  -7.787  -0.058  0.00  0.00    +0.169 HD
ATOM     12  C   UNL     1       3.629  -8.035  -0.058  0.00  0.00    +0.051 A 
ATOM     13  C   UNL     1       3.312  -6.692  -0.054  0.00  0.00    +0.055 A 
ATOM     14  C   UNL     1       4.631 -12.192  -0.090  0.00  0.00    +0.049 C 
ENDROOT
BRANCH   1  15
ATOM     15  S   UNL     1       0.063  -4.531  -0.024  0.00  0.00    +0.099 S 
ATOM     16  O   UNL     1      -0.476  -4.952   1.221  0.00  0.00    -0.146 OA
ATOM     17  O   UNL     1      -0.489  -4.937  -1.270  0.00  0.00    -0.146 OA
BRANCH  15  22
ATOM     18  C   UNL     1      -0.018   1.503   0.010  0.00  0.00    +0.045 C 
ATOM     19  C   UNL     1       0.002  -0.004   0.002  0.00  0.00    -0.032 A 
ATOM     20  C   UNL     1       0.006  -0.689  -1.199  0.00  0.00    +0.007 A 
ATOM     21  C   UNL     1       0.025  -2.071  -1.207  0.00  0.00    +0.029 A 
ATOM     22  C   UNL     1       0.040  -2.769  -0.013  0.00  0.00    +0.114 A 
ATOM     23  C   UNL     1       0.036  -2.086   1.188  0.00  0.00    +0.049 A 
ATOM     24  C   UNL     1       0.023  -0.702   1.196  0.00  0.00    +0.046 A 
ATOM     25 CL   UNL     1       0.025   0.157   2.704  0.00  0.00    -0.083 Cl
ENDBRANCH  15  22
ENDBRANCH   1  15
TORSDOF 2
