REMARK  Name = ZINC22060103
REMARK  13 active torsions:
REMARK  status: ('A' for Active; 'I' for Inactive)
REMARK    1  A    between atoms: C_1  and  C_2
REMARK    2  A    between atoms: N_4  and  C_5
REMARK    3  A    between atoms: C_9  and  C_36
REMARK    4  A    between atoms: C_11  and  O_16
REMARK    5  A    between atoms: C_13  and  O_15
REMARK    6  A    between atoms: O_16  and  C_17
REMARK    7  A    between atoms: C_19  and  N_32
REMARK    8  A    between atoms: C_21  and  O_31
REMARK    9  A    between atoms: C_23  and  O_30
REMARK   10  A    between atoms: C_25  and  C_28
REMARK   11  A    between atoms: C_28  and  O_29
REMARK   12  A    between atoms: C_33  and  C_35
REMARK   13  A    between atoms: C_36  and  O_37
REMARK                            x       y       z     vdW  Elec       q    Type
REMARK                         _______ _______ _______ _____ _____    ______ ____
ROOT
ATOM      1  C   UNL     1       3.539   0.926   0.887  0.00  0.00    +0.274 C 
ATOM      2  C   UNL     1       4.219   0.473   2.182  0.00  0.00    +0.160 C 
ATOM      3  C   UNL     1       3.655  -0.890   2.595  0.00  0.00    +0.171 C 
ATOM      4  C   UNL     1       3.865  -1.885   1.449  0.00  0.00    +0.176 C 
ATOM      5  C   UNL     1       3.199  -1.341   0.183  0.00  0.00    +0.178 C 
ATOM      6  O   UNL     1       3.747  -0.058  -0.128  0.00  0.00    -0.341 OA
ENDROOT
BRANCH   2   7
ATOM      7  N   UNL     1       3.958   1.452   3.240  0.00  0.00    -0.305 N 
ATOM      8  C   UNL     1       4.744   2.539   3.361  0.00  0.00    +0.210 C 
ATOM      9  O   UNL     1       5.668   2.708   2.594  0.00  0.00    -0.276 OA
ATOM     10  C   UNL     1       4.476   3.546   4.450  0.00  0.00    +0.109 C 
ATOM     11  H   UNL     1       3.120   1.299   3.936  0.00  0.00    +0.149 HD
ENDBRANCH   2   7
BRANCH   4  12
ATOM     12  O   UNL     1       5.264  -2.059   1.217  0.00  0.00    -0.387 OA
ATOM     13  H   UNL     1       5.610  -2.741   0.427  0.00  0.00    +0.210 HD
ENDBRANCH   4  12
BRANCH   3  14
ATOM     14  O   UNL     1       4.335  -1.354   3.763  0.00  0.00    -0.387 OA
ATOM     15  H   UNL     1       4.064  -2.322   4.209  0.00  0.00    +0.210 HD
ENDBRANCH   3  14
BRANCH   1  16
ATOM     16  O   UNL     1       2.138   1.087   1.116  0.00  0.00    -0.341 OA
BRANCH  16  21
ATOM     17  C   UNL     1      -0.720   1.582   1.273  0.00  0.00    +0.130 C 
ATOM     18  C   UNL     1      -0.666   3.111   1.312  0.00  0.00    +0.185 C 
ATOM     19  O   UNL     1       0.696   3.540   1.268  0.00  0.00    -0.370 OA
ATOM     20  C   UNL     1       1.394   3.146   0.085  0.00  0.00    +0.175 C 
ATOM     21  C   UNL     1       1.424   1.618  -0.003  0.00  0.00    +0.183 C 
ATOM     22  C   UNL     1      -0.013   1.086   0.008  0.00  0.00    +0.168 C 
BRANCH  17  26
ATOM     23  C   UNL     1      -4.228   0.546   2.401  0.00  0.00    +0.109 C 
ATOM     24  C   UNL     1      -2.791   1.000   2.416  0.00  0.00    +0.210 C 
ATOM     25  O   UNL     1      -2.242   1.238   3.471  0.00  0.00    -0.276 OA
ATOM     26  N   UNL     1      -2.117   1.141   1.258  0.00  0.00    -0.308 N 
ATOM     27  H   UNL     1      -2.615   0.925   0.302  0.00  0.00    +0.149 HD
ENDBRANCH  17  26
BRANCH  22  28
ATOM     28  O   UNL     1      -0.707   1.561  -1.147  0.00  0.00    -0.387 OA
ATOM     29  H   UNL     1      -0.343   1.303  -2.152  0.00  0.00    +0.210 HD
ENDBRANCH  22  28
BRANCH  20  30
ATOM     30  C   UNL     1       2.826   3.682   0.135  0.00  0.00    +0.190 C 
BRANCH  30  31
ATOM     31  O   UNL     1       2.802   5.110   0.100  0.00  0.00    -0.392 OA
ATOM     32  H   UNL     1       3.744   5.677   0.128  0.00  0.00    +0.210 HD
ENDBRANCH  30  31
ENDBRANCH  20  30
ENDBRANCH  16  21
ENDBRANCH   1  16
BRANCH   5  33
ATOM     33  C   UNL     1       3.455  -2.300  -0.981  0.00  0.00    +0.190 C 
BRANCH  33  34
ATOM     34  O   UNL     1       2.737  -1.853  -2.134  0.00  0.00    -0.392 OA
ATOM     35  H   UNL     1       2.799  -2.420  -3.074  0.00  0.00    +0.210 HD
ENDBRANCH  33  34
ENDBRANCH   5  33
TORSDOF 11
