REMARK  Name = ZINC23044094
REMARK  11 active torsions:
REMARK  status: ('A' for Active; 'I' for Inactive)
REMARK    1  A    between atoms: C_1  and  C_2
REMARK    2  A    between atoms: C_2  and  C_3
REMARK    3  A    between atoms: C_3  and  N_4
REMARK    4  A    between atoms: C_8  and  S_31
REMARK    5  A    between atoms: C_12  and  S_13
REMARK    6  A    between atoms: S_13  and  C_14
REMARK    7  A    between atoms: C_14  and  C_15
REMARK    8  A    between atoms: N_17  and  C_18
REMARK    9  A    between atoms: C_23  and  C_24
REMARK   10  A    between atoms: C_24  and  C_25
REMARK   11  A    between atoms: S_31  and  N_34
REMARK                            x       y       z     vdW  Elec       q    Type
REMARK                         _______ _______ _______ _____ _____    ______ ____
ROOT
ATOM      1  S   UNL     1      -2.742   4.065  -7.445  0.00  0.00    -0.078 S 
ENDROOT
BRANCH   1  10
ATOM      2  N   UNL     1      -1.710   4.867  -4.990  0.00  0.00    -0.319 N 
ATOM      3  C   UNL     1      -1.527   4.343  -3.721  0.00  0.00    +0.070 A 
ATOM      4  C   UNL     1      -0.989   4.841  -2.543  0.00  0.00    +0.030 A 
ATOM      5  C   UNL     1      -0.955   4.048  -1.415  0.00  0.00    +0.030 A 
ATOM      6  C   UNL     1      -1.444   2.751  -1.453  0.00  0.00    +0.107 A 
ATOM      7  C   UNL     1      -1.981   2.240  -2.613  0.00  0.00    +0.058 A 
ATOM      8  C   UNL     1      -2.029   3.032  -3.763  0.00  0.00    +0.092 A 
ATOM      9  N   UNL     1      -2.485   2.819  -5.025  0.00  0.00    -0.222 NA
ATOM     10  C   UNL     1      -2.299   3.896  -5.748  0.00  0.00    +0.170 A 
BRANCH   6  11
ATOM     11  S   UNL     1      -1.384   1.751  -0.003  0.00  0.00    +0.056 S 
ATOM     12  O   UNL     1      -2.403   0.771  -0.143  0.00  0.00    -0.153 OA
ATOM     13  O   UNL     1      -1.332   2.642   1.103  0.00  0.00    -0.153 OA
BRANCH  11  14
ATOM     14  N   UNL     1       0.059   0.941  -0.026  0.00  0.00    -0.204 NA
ATOM     15  H   UNL     1       0.136   0.302   0.867  0.00  0.00    +0.144 HD
ATOM     16  H   UNL     1       0.887   1.665  -0.031  0.00  0.00    +0.144 HD
ENDBRANCH  11  14
ENDBRANCH   6  11
BRANCH   2  17
ATOM     17  C   UNL     1      -1.341   6.213  -5.436  0.00  0.00    +0.124 C 
BRANCH  17  19
ATOM     18  C   UNL     1      -2.129   8.573  -5.668  0.00  0.00    +0.005 C 
ATOM     19  C   UNL     1      -2.514   7.167  -5.202  0.00  0.00    +0.018 C 
ENDBRANCH  17  19
ENDBRANCH   2  17
ENDBRANCH   1  10
BRANCH   1  20
ATOM     20  C   UNL     1      -3.446   2.425  -7.751  0.00  0.00    +0.173 C 
BRANCH  20  21
ATOM     21  C   UNL     1      -3.907   2.336  -9.183  0.00  0.00    +0.227 C 
ATOM     22  O   UNL     1      -3.773   3.287  -9.924  0.00  0.00    -0.275 OA
ATOM     23  N   UNL     1      -4.468   1.199  -9.641  0.00  0.00    -0.285 N 
ATOM     24  H   UNL     1      -4.522   0.312  -8.992  0.00  0.00    +0.155 HD
BRANCH  23  25
ATOM     25  C   UNL     1      -4.981   1.146 -10.941  0.00  0.00    +0.037 A 
ATOM     26  C   UNL     1      -4.361   1.853 -11.963  0.00  0.00    +0.023 A 
ATOM     27  C   UNL     1      -4.870   1.799 -13.246  0.00  0.00    +0.002 A 
ATOM     28  C   UNL     1      -5.996   1.042 -13.513  0.00  0.00    +0.000 A 
ATOM     29  C   UNL     1      -6.615   0.336 -12.498  0.00  0.00    +0.006 A 
ATOM     30  C   UNL     1      -6.108   0.382 -11.214  0.00  0.00    -0.022 A 
BRANCH  30  31
ATOM     31  C   UNL     1      -6.780  -0.392 -10.110  0.00  0.00    +0.072 C 
BRANCH  31  32
ATOM     32  C   UNL     1      -7.744   0.507  -9.380  0.00  0.00    -0.043 A 
ATOM     33  C   UNL     1      -7.316   1.237  -8.287  0.00  0.00    +0.004 A 
ATOM     34  C   UNL     1      -8.200   2.066  -7.621  0.00  0.00    +0.000 A 
ATOM     35  C   UNL     1      -9.513   2.157  -8.042  0.00  0.00    +0.000 A 
ATOM     36  C   UNL     1      -9.942   1.423  -9.132  0.00  0.00    +0.000 A 
ATOM     37  C   UNL     1      -9.057   0.598  -9.801  0.00  0.00    +0.004 A 
ENDBRANCH  31  32
ENDBRANCH  30  31
ENDBRANCH  23  25
ENDBRANCH  20  21
ENDBRANCH   1  20
TORSDOF 10
