REMARK  Name = ZINC09130634
REMARK  7 active torsions:
REMARK  status: ('A' for Active; 'I' for Inactive)
REMARK    1  A    between atoms: C_1  and  C_2
REMARK    2  A    between atoms: C_3  and  C_24
REMARK    3  A    between atoms: C_4  and  C_8
REMARK    4  A    between atoms: C_11  and  O_15
REMARK    5  A    between atoms: C_13  and  O_14
REMARK    6  A    between atoms: O_15  and  C_16
REMARK    7  A    between atoms: C_16  and  C_17
REMARK                            x       y       z     vdW  Elec       q    Type
REMARK                         _______ _______ _______ _____ _____    ______ ____
ROOT
ATOM      1  C   UNL     1       0.040  -3.343  -1.566  0.00  0.00    +0.042 A 
ATOM      2  C   UNL     1      -1.045  -4.221  -1.554  0.00  0.00    +0.017 A 
ATOM      3  C   UNL     1      -1.031  -5.344  -2.354  0.00  0.00    +0.046 A 
ATOM      4  C   UNL     1       0.061  -5.605  -3.172  0.00  0.00    +0.124 A 
ATOM      5  C   UNL     1       1.144  -4.739  -3.191  0.00  0.00    +0.091 A 
ATOM      6  C   UNL     1       1.138  -3.605  -2.396  0.00  0.00    +0.129 A 
ENDROOT
BRANCH   1  10
ATOM      7  C   UNL     1      -0.018   1.503   0.010  0.00  0.00    +0.068 C 
ATOM      8  C   UNL     1       0.002  -0.004   0.002  0.00  0.00    +0.068 A 
ATOM      9  C   UNL     1       0.008  -0.819  -1.144  0.00  0.00    +0.030 A 
ATOM     10  C   UNL     1       0.028  -2.139  -0.712  0.00  0.00    +0.077 A 
ATOM     11  N   UNL     1       0.034  -2.111   0.651  0.00  0.00    -0.276 N 
ATOM     12  H   UNL     1       0.047  -2.885   1.236  0.00  0.00    +0.189 HD
ATOM     13  N   UNL     1       0.023  -0.772   1.058  0.00  0.00    -0.178 NA
BRANCH   9  14
ATOM     14  C   UNL     1      -0.005  -0.355  -2.552  0.00  0.00    -0.014 A 
ATOM     15  C   UNL     1      -1.101  -0.630  -3.369  0.00  0.00    +0.010 A 
ATOM     16  C   UNL     1      -1.108  -0.196  -4.679  0.00  0.00    +0.016 A 
ATOM     17  C   UNL     1      -0.030   0.511  -5.182  0.00  0.00    +0.018 A 
ATOM     18  C   UNL     1       1.061   0.786  -4.376  0.00  0.00    +0.016 A 
ATOM     19  C   UNL     1       1.076   0.362  -3.063  0.00  0.00    +0.010 A 
ATOM     20 BR   UNL     1      -0.046   1.102  -6.978  0.00  0.00    -0.050 Br
ENDBRANCH   9  14
ENDBRANCH   1  10
BRANCH   6  21
ATOM     21  O   UNL     1       2.195  -2.752  -2.418  0.00  0.00    -0.506 OA
ATOM     22  H   UNL     1       2.884  -2.963  -1.773  0.00  0.00    +0.292 HD
ENDBRANCH   6  21
BRANCH   4  23
ATOM     23  O   UNL     1       0.069  -6.715  -3.957  0.00  0.00    -0.487 OA
BRANCH  23  24
ATOM     24  C   UNL     1      -1.077  -7.565  -3.889  0.00  0.00    +0.264 C 
BRANCH  24  25
ATOM     25  C   UNL     1      -0.891  -8.735  -4.820  0.00  0.00    -0.010 A 
ATOM     26  C   UNL     1      -1.314  -8.647  -6.133  0.00  0.00    +0.010 A 
ATOM     27  C   UNL     1      -1.143  -9.719  -6.988  0.00  0.00    +0.039 A 
ATOM     28  C   UNL     1      -0.547 -10.882  -6.529  0.00  0.00    +0.123 A 
ATOM     29  C   UNL     1      -0.124 -10.969  -5.214  0.00  0.00    +0.039 A 
ATOM     30  C   UNL     1      -0.291  -9.893  -4.362  0.00  0.00    +0.010 A 
ATOM     31  F   UNL     1      -0.380 -11.931  -7.364  0.00  0.00    -0.205 F 
ENDBRANCH  24  25
ENDBRANCH  23  24
ENDBRANCH   4  23
TORSDOF 6
