REMARK  Name = ZINC32943095
REMARK  8 active torsions:
REMARK  status: ('A' for Active; 'I' for Inactive)
REMARK    1  A    between atoms: C_1  and  C_2
REMARK    2  A    between atoms: C_5  and  N_9
REMARK    3  A    between atoms: C_6  and  C_8
REMARK    4  A    between atoms: N_11  and  C_12
REMARK    5  A    between atoms: C_12  and  C_13
REMARK    6  A    between atoms: C_13  and  C_14
REMARK    7  A    between atoms: N_24  and  C_25
REMARK    8  A    between atoms: C_25  and  C_27
REMARK                            x       y       z     vdW  Elec       q    Type
REMARK                         _______ _______ _______ _____ _____    ______ ____
ROOT
ATOM      1  N   UNL     1      -1.265  -4.825  -0.764  0.00  0.00    -0.328 N 
ATOM      2  C   UNL     1      -0.445  -5.437  -1.669  0.00  0.00    +0.194 C 
ATOM      3  N   UNL     1       0.155  -6.621  -1.355  0.00  0.00    -0.357 N 
ATOM      4  N   UNL     1      -0.234  -4.880  -2.852  0.00  0.00    -0.143 NA
ATOM      5  H   UNL     1       0.810  -7.007  -1.957  0.00  0.00    +0.162 HD
ATOM      6  H   UNL     1      -2.189  -4.639  -0.994  0.00  0.00    +0.169 HD
ENDROOT
BRANCH   1  11
ATOM      7  C   UNL     1       0.733  -3.372   4.343  0.00  0.00    +0.044 C 
ATOM      8  C   UNL     1       0.203  -3.758   2.986  0.00  0.00    -0.050 A 
ATOM      9  C   UNL     1       1.075  -3.929   1.927  0.00  0.00    +0.005 A 
ATOM     10  C   UNL     1       0.592  -4.283   0.682  0.00  0.00    +0.026 A 
ATOM     11  C   UNL     1      -0.772  -4.467   0.495  0.00  0.00    +0.045 A 
ATOM     12  C   UNL     1      -1.645  -4.295   1.561  0.00  0.00    -0.027 A 
ATOM     13  C   UNL     1      -1.155  -3.946   2.804  0.00  0.00    +0.008 A 
ATOM     14  C   UNL     1      -3.126  -4.493   1.363  0.00  0.00    +0.046 C 
ENDBRANCH   1  11
BRANCH   4  15
ATOM     15  C   UNL     1      -0.689  -3.645  -3.102  0.00  0.00    +0.270 C 
ATOM     16  O   UNL     1      -1.200  -2.991  -2.210  0.00  0.00    -0.268 OA
BRANCH  15  17
ATOM     17  C   UNL     1      -0.572  -3.075  -4.462  0.00  0.00    +0.043 A 
ATOM     18  C   UNL     1      -0.096  -3.863  -5.512  0.00  0.00    +0.017 A 
ATOM     19  C   UNL     1       0.013  -3.331  -6.779  0.00  0.00    +0.050 A 
ATOM     20  C   UNL     1      -0.350  -2.012  -7.016  0.00  0.00    +0.166 A 
ATOM     21  C   UNL     1      -0.827  -1.220  -5.971  0.00  0.00    +0.167 A 
ATOM     22  C   UNL     1      -0.943  -1.751  -4.700  0.00  0.00    +0.062 A 
ATOM     23  O   UNL     1      -1.111   0.022  -6.461  0.00  0.00    -0.453 OA
ATOM     24  C   UNL     1      -0.421   0.105  -7.721  0.00  0.00    +0.466 C 
ATOM     25  O   UNL     1      -0.337  -1.265  -8.157  0.00  0.00    -0.453 OA
ENDBRANCH  15  17
ENDBRANCH   4  15
BRANCH   3  26
ATOM     26  C   UNL     1      -0.190  -7.309  -0.108  0.00  0.00    +0.120 C 
BRANCH  26  27
ATOM     27  C   UNL     1       0.676  -8.561   0.039  0.00  0.00    +0.058 C 
BRANCH  27  28
ATOM     28  C   UNL     1       0.241  -9.332   1.258  0.00  0.00    -0.021 A 
ATOM     29  C   UNL     1       0.901  -9.425   2.423  0.00  0.00    +0.087 A 
ATOM     30  N   UNL     1       0.200 -10.210   3.297  0.00  0.00    -0.360 N 
ATOM     31  H   UNL     1       0.478 -10.423   4.202  0.00  0.00    +0.165 HD
ATOM     32  C   UNL     1      -0.959 -10.654   2.700  0.00  0.00    +0.047 A 
ATOM     33  C   UNL     1      -0.987 -10.119   1.399  0.00  0.00    +0.003 A 
ATOM     34  C   UNL     1      -2.062 -10.399   0.554  0.00  0.00    +0.010 A 
ATOM     35  C   UNL     1      -3.084 -11.191   0.996  0.00  0.00    +0.001 A 
ATOM     36  C   UNL     1      -3.063 -11.718   2.280  0.00  0.00    +0.002 A 
ATOM     37  C   UNL     1      -2.007 -11.462   3.128  0.00  0.00    +0.026 A 
ENDBRANCH  27  28
ENDBRANCH  26  27
ENDBRANCH   3  26
TORSDOF 6
