REMARK  Name = ZINC26571058
REMARK  4 active torsions:
REMARK  status: ('A' for Active; 'I' for Inactive)
REMARK    1  A    between atoms: N_13  and  C_14
REMARK    2  A    between atoms: C_14  and  C_15
REMARK    3  A    between atoms: C_15  and  C_16
REMARK    4  A    between atoms: N_18  and  N_19
REMARK                            x       y       z     vdW  Elec       q    Type
REMARK                         _______ _______ _______ _____ _____    ______ ____
ROOT
ATOM      1  C   UNL     1       5.667   3.729  -1.499  0.00  0.00    +0.232 C 
ATOM      2  O   UNL     1       6.295   3.684  -0.462  0.00  0.00    -0.274 OA
ATOM      3  N   UNL     1       6.250   3.362  -2.657  0.00  0.00    -0.229 N 
ATOM      4  H   UNL     1       5.681   3.403  -3.597  0.00  0.00    +0.175 HD
ENDROOT
BRANCH   3   5
ATOM      5  N   UNL     1       7.583   2.929  -2.664  0.00  0.00    -0.303 N 
ATOM      6  C   UNL     1       8.190   2.698  -3.799  0.00  0.00    +0.074 A 
ATOM      7  C   UNL     1       9.291   1.709  -3.906  0.00  0.00    +0.042 A 
ATOM      8  C   UNL     1       9.706   0.983  -2.796  0.00  0.00    +0.013 A 
ATOM      9  C   UNL     1      10.728   0.063  -2.924  0.00  0.00    +0.001 A 
ATOM     10  C   UNL     1      11.332  -0.136  -4.154  0.00  0.00    +0.004 A 
ATOM     11  C   UNL     1      10.921   0.577  -5.263  0.00  0.00    +0.047 A 
ATOM     12  C   UNL     1       9.894   1.506  -5.154  0.00  0.00    +0.138 A 
ATOM     13  O   UNL     1       9.496   2.200  -6.242  0.00  0.00    -0.455 OA
ATOM     14  C   UNL     1       8.506   3.120  -6.224  0.00  0.00    +0.138 A 
ATOM     15  C   UNL     1       7.816   3.416  -5.042  0.00  0.00    +0.042 A 
ATOM     16  C   UNL     1       6.799   4.365  -5.038  0.00  0.00    +0.013 A 
ATOM     17  C   UNL     1       6.470   5.019  -6.209  0.00  0.00    +0.001 A 
ATOM     18  C   UNL     1       7.151   4.730  -7.379  0.00  0.00    +0.004 A 
ATOM     19  C   UNL     1       8.161   3.789  -7.392  0.00  0.00    +0.047 A 
ATOM     20  H   UNL     1       8.118   2.783  -1.714  0.00  0.00    +0.185 HD
ENDBRANCH   3   5
BRANCH   1  21
ATOM     21  C   UNL     1       4.234   4.195  -1.492  0.00  0.00    +0.119 C 
BRANCH  21  22
ATOM     22  C   UNL     1       3.819   4.549  -0.062  0.00  0.00    +0.131 C 
BRANCH  22  35
ATOM     23  C   UNL     1      -1.184   3.018   0.390  0.00  0.00    +0.001 A 
ATOM     24  C   UNL     1      -0.040   2.236   0.446  0.00  0.00    +0.002 A 
ATOM     25  C   UNL     1       1.207   2.806   0.306  0.00  0.00    +0.026 A 
ATOM     26  C   UNL     1       1.328   4.178   0.112  0.00  0.00    +0.050 A 
ATOM     27  C   UNL     1       0.170   4.969   0.061  0.00  0.00    +0.008 A 
ATOM     28  C   UNL     1      -1.084   4.380   0.204  0.00  0.00    +0.010 A 
ATOM     29  C   UNL     1       0.621   6.357  -0.151  0.00  0.00    +0.008 A 
ATOM     30  C   UNL     1      -0.048   7.572  -0.284  0.00  0.00    +0.010 A 
ATOM     31  C   UNL     1       0.670   8.731  -0.479  0.00  0.00    +0.001 A 
ATOM     32  C   UNL     1       2.055   8.692  -0.543  0.00  0.00    +0.002 A 
ATOM     33  C   UNL     1       2.729   7.497  -0.412  0.00  0.00    +0.026 A 
ATOM     34  C   UNL     1       2.021   6.315  -0.215  0.00  0.00    +0.050 A 
ATOM     35  N   UNL     1       2.426   5.002  -0.055  0.00  0.00    -0.339 N 
ENDBRANCH  22  35
ENDBRANCH  21  22
ENDBRANCH   1  21
TORSDOF 4
