REMARK  Name = ZINC21224652
REMARK  8 active torsions:
REMARK  status: ('A' for Active; 'I' for Inactive)
REMARK    1  A    between atoms: C_1  and  C_2
REMARK    2  A    between atoms: C_2  and  O_3
REMARK    3  A    between atoms: O_3  and  C_4
REMARK    4  A    between atoms: C_7  and  C_12
REMARK    5  A    between atoms: C_9  and  O_10
REMARK    6  A    between atoms: O_10  and  C_11
REMARK    7  A    between atoms: C_17  and  C_27
REMARK    8  A    between atoms: C_32  and  C_33
REMARK                            x       y       z     vdW  Elec       q    Type
REMARK                         _______ _______ _______ _____ _____    ______ ____
ROOT
ATOM      1  C   UNL     1      -0.827   0.781   0.772  0.00  0.00    +0.032 C 
ATOM      2  C   UNL     1      -1.360   1.105   2.167  0.00  0.00    +0.059 C 
ATOM      3  C   UNL     1      -0.366   0.651   3.222  0.00  0.00    +0.017 C 
ATOM      4  C   UNL     1       0.954   0.665   2.967  0.00  0.00    +0.036 C 
ATOM      5  C   UNL     1       2.046   0.255   3.926  0.00  0.00    +0.136 C 
ATOM      6  N   UNL     1       1.608   0.069   5.293  0.00  0.00    -0.331 N 
ATOM      7  C   UNL     1       0.708  -0.942   5.626  0.00  0.00    +0.049 A 
ATOM      8  C   UNL     1       1.072  -1.995   6.450  0.00  0.00    +0.025 A 
ATOM      9  C   UNL     1       0.158  -3.000   6.714  0.00  0.00    +0.002 A 
ATOM     10  C   UNL     1      -1.109  -2.958   6.160  0.00  0.00    +0.002 A 
ATOM     11  C   UNL     1      -1.482  -1.898   5.351  0.00  0.00    +0.025 A 
ATOM     12  C   UNL     1      -0.576  -0.881   5.104  0.00  0.00    +0.052 A 
ATOM     13  N   UNL     1      -0.920   0.266   4.399  0.00  0.00    -0.316 N 
ATOM     14  C   UNL     1       1.431   1.089   1.704  0.00  0.00    +0.163 C 
ATOM     15  O   UNL     1       2.630   1.108   1.506  0.00  0.00    -0.292 OA
ATOM     16  C   UNL     1       0.509   1.515   0.601  0.00  0.00    +0.088 C 
ATOM     17  H   UNL     1       1.986   0.730   6.087  0.00  0.00    +0.147 HD
ATOM     18  H   UNL     1      -1.705   0.880   4.864  0.00  0.00    +0.152 HD
ENDROOT
BRANCH   5  19
ATOM     19  C   UNL     1       2.648  -1.037   3.438  0.00  0.00    -0.020 A 
ATOM     20  C   UNL     1       1.971  -1.810   2.513  0.00  0.00    +0.006 A 
ATOM     21  C   UNL     1       2.524  -2.995   2.066  0.00  0.00    +0.000 A 
ATOM     22  C   UNL     1       3.755  -3.407   2.542  0.00  0.00    +0.000 A 
ATOM     23  C   UNL     1       4.432  -2.634   3.466  0.00  0.00    +0.004 A 
ATOM     24  C   UNL     1       3.881  -1.446   3.910  0.00  0.00    -0.045 A 
ATOM     25  C   UNL     1       4.623  -0.600   4.913  0.00  0.00    +0.044 C 
ENDBRANCH   5  19
BRANCH   1  29
ATOM     26  C   UNL     1      -3.604   2.123  -2.190  0.00  0.00    +0.162 A 
ATOM     27  C   UNL     1      -3.051   3.026  -1.295  0.00  0.00    +0.050 A 
ATOM     28  C   UNL     1      -2.154   2.589  -0.339  0.00  0.00    +0.008 A 
ATOM     29  C   UNL     1      -1.806   1.252  -0.272  0.00  0.00    -0.040 A 
ATOM     30  C   UNL     1      -2.350   0.348  -1.165  0.00  0.00    +0.053 A 
ATOM     31  C   UNL     1      -3.254   0.778  -2.123  0.00  0.00    +0.162 A 
BRANCH  31  32
ATOM     32  O   UNL     1      -3.794  -0.111  -2.999  0.00  0.00    -0.491 OA
ATOM     33  C   UNL     1      -3.388  -1.475  -2.871  0.00  0.00    +0.277 C 
ENDBRANCH  31  32
BRANCH  26  34
ATOM     34  O   UNL     1      -4.487   2.552  -3.132  0.00  0.00    -0.489 OA
BRANCH  34  36
ATOM     35  C   UNL     1      -5.801   4.237  -4.261  0.00  0.00    +0.048 C 
ATOM     36  C   UNL     1      -4.799   3.946  -3.141  0.00  0.00    +0.226 C 
ENDBRANCH  34  36
ENDBRANCH  26  34
ENDBRANCH   1  29
TORSDOF 5
