REMARK  Name = ZINC39686569
REMARK  9 active torsions:
REMARK  status: ('A' for Active; 'I' for Inactive)
REMARK    1  A    between atoms: C_1  and  C_2
REMARK    2  A    between atoms: C_4  and  C_9
REMARK    3  A    between atoms: C_13  and  C_22
REMARK    4  A    between atoms: N_24  and  C_25
REMARK    5  A    between atoms: C_25  and  C_27
REMARK    6  A    between atoms: C_25  and  C_28
REMARK    7  A    between atoms: C_28  and  C_29
REMARK    8  A    between atoms: C_34  and  O_35
REMARK    9  A    between atoms: O_35  and  C_36
REMARK                            x       y       z     vdW  Elec       q    Type
REMARK                         _______ _______ _______ _____ _____    ______ ____
ROOT
ATOM      1  C   UNL     1       0.099  -2.883  -2.081  0.00  0.00    +0.247 C 
ATOM      2  O   UNL     1       0.076  -2.310  -3.153  0.00  0.00    -0.270 OA
ATOM      3  N   UNL     1       0.236  -4.223  -2.037  0.00  0.00    -0.296 N 
ATOM      4  C   UNL     1       0.161  -5.105  -0.848  0.00  0.00    +0.121 C 
ATOM      5  C   UNL     1      -0.598  -6.358  -1.338  0.00  0.00    +0.100 C 
ATOM      6  C   UNL     1      -0.374  -6.382  -2.859  0.00  0.00    -0.004 C 
ATOM      7  C   UNL     1       0.487  -5.149  -3.167  0.00  0.00    +0.115 C 
ATOM      8  C   UNL     1      -1.709  -6.281  -3.591  0.00  0.00    -0.010 C 
ATOM      9  C   UNL     1      -1.466  -6.364  -5.101  0.00  0.00    -0.082 C 
ATOM     10  N   UNL     1      -0.804  -7.635  -5.422  0.00  0.00    +0.379 N 
ATOM     11  C   UNL     1       0.520  -7.684  -4.788  0.00  0.00    -0.082 C 
ATOM     12  C   UNL     1       0.360  -7.656  -3.265  0.00  0.00    -0.010 C 
ATOM     13  H   UNL     1      -1.366  -8.401  -5.083  0.00  0.00    -0.086 HD
ATOM     14  H   UNL     1      -0.699  -7.715  -6.422  0.00  0.00    -0.086 HD
ENDROOT
BRANCH   1  18
ATOM     15  C   UNL     1      -1.313   1.257   0.319  0.00  0.00    +0.045 C 
ATOM     16  C   UNL     1      -0.700  -0.119   0.332  0.00  0.00    -0.036 A 
ATOM     17  C   UNL     1      -0.590  -0.835  -0.841  0.00  0.00    +0.017 A 
ATOM     18  C   UNL     1      -0.021  -2.110  -0.827  0.00  0.00    +0.037 A 
ATOM     19  C   UNL     1       0.432  -2.653   0.377  0.00  0.00    +0.014 A 
ATOM     20  C   UNL     1       0.316  -1.927   1.544  0.00  0.00    +0.016 A 
ATOM     21  C   UNL     1      -0.243  -0.660   1.522  0.00  0.00    +0.021 A 
ATOM     22 BR   UNL     1      -0.391   0.331   3.126  0.00  0.00    -0.050 Br
ENDBRANCH   1  18
BRANCH   5  23
ATOM     23  C   UNL     1      -2.067  -6.238  -1.023  0.00  0.00    +0.218 C 
ATOM     24  O   UNL     1      -2.611  -5.155  -1.069  0.00  0.00    -0.275 OA
ATOM     25  N   UNL     1      -2.776  -7.335  -0.690  0.00  0.00    -0.312 N 
ATOM     26  H   UNL     1      -2.358  -8.210  -0.717  0.00  0.00    +0.149 HD
BRANCH  25  27
ATOM     27  C   UNL     1      -4.178  -7.206  -0.286  0.00  0.00    +0.074 C 
ATOM     28  C   UNL     1      -4.250  -6.801   1.188  0.00  0.00    +0.028 C 
BRANCH  27  29
ATOM     29  C   UNL     1      -4.891  -8.545  -0.482  0.00  0.00    +0.060 C 
BRANCH  29  30
ATOM     30  C   UNL     1      -4.944  -8.876  -1.951  0.00  0.00    -0.004 A 
ATOM     31  C   UNL     1      -6.009  -8.444  -2.719  0.00  0.00    +0.007 A 
ATOM     32  C   UNL     1      -6.059  -8.748  -4.067  0.00  0.00    +0.000 A 
ATOM     33  C   UNL     1      -5.044  -9.483  -4.650  0.00  0.00    +0.004 A 
ATOM     34  C   UNL     1      -3.977  -9.916  -3.887  0.00  0.00    +0.046 A 
ATOM     35  C   UNL     1      -3.922  -9.609  -2.535  0.00  0.00    +0.123 A 
BRANCH  35  36
ATOM     36  O   UNL     1      -2.870 -10.029  -1.784  0.00  0.00    -0.495 OA
ATOM     37  C   UNL     1      -1.823 -10.722  -2.465  0.00  0.00    +0.277 C 
ENDBRANCH  35  36
ENDBRANCH  29  30
ENDBRANCH  27  29
ENDBRANCH  25  27
ENDBRANCH   5  23
TORSDOF 6
