REMARK  Name = ZINC21250385
REMARK  10 active torsions:
REMARK  status: ('A' for Active; 'I' for Inactive)
REMARK    1  A    between atoms: C_1  and  C_2
REMARK    2  A    between atoms: C_2  and  C_3
REMARK    3  A    between atoms: C_2  and  O_4
REMARK    4  A    between atoms: O_4  and  C_5
REMARK    5  A    between atoms: C_6  and  C_13
REMARK    6  A    between atoms: C_10  and  O_11
REMARK    7  A    between atoms: O_11  and  C_12
REMARK    8  A    between atoms: C_18  and  C_23
REMARK    9  A    between atoms: C_28  and  O_29
REMARK   10  A    between atoms: O_29  and  C_30
REMARK                            x       y       z     vdW  Elec       q    Type
REMARK                         _______ _______ _______ _____ _____    ______ ____
ROOT
ATOM      1  C   UNL     1       0.729   9.430  -0.518  0.00  0.00    +0.140 C 
ATOM      2  C   UNL     1       0.721   7.944  -0.782  0.00  0.00    +0.037 C 
ATOM      3  C   UNL     1       0.767   6.978   0.151  0.00  0.00    +0.017 C 
ATOM      4  C   UNL     1       0.757   5.514  -0.256  0.00  0.00    +0.060 C 
ATOM      5  C   UNL     1      -0.066   5.333  -1.531  0.00  0.00    +0.035 C 
ATOM      6  C   UNL     1       0.580   6.186  -2.628  0.00  0.00    +0.088 C 
ATOM      7  C   UNL     1       0.643   7.607  -2.154  0.00  0.00    +0.163 C 
ATOM      8  O   UNL     1       0.628   8.501  -2.977  0.00  0.00    -0.292 OA
ATOM      9  N   UNL     1       0.839   7.196   1.488  0.00  0.00    -0.316 N 
ATOM     10  C   UNL     1       0.051   8.101   2.190  0.00  0.00    +0.052 A 
ATOM     11  C   UNL     1      -0.865   7.700   3.147  0.00  0.00    +0.025 A 
ATOM     12  C   UNL     1      -1.584   8.658   3.842  0.00  0.00    +0.002 A 
ATOM     13  C   UNL     1      -1.386  10.002   3.584  0.00  0.00    +0.002 A 
ATOM     14  C   UNL     1      -0.483  10.404   2.615  0.00  0.00    +0.025 A 
ATOM     15  C   UNL     1       0.221   9.447   1.903  0.00  0.00    +0.049 A 
ATOM     16  N   UNL     1       1.056   9.798   0.843  0.00  0.00    -0.331 N 
ATOM     17  H   UNL     1       1.562   6.636   2.099  0.00  0.00    +0.152 HD
ATOM     18  H   UNL     1       1.976  10.364   1.054  0.00  0.00    +0.147 HD
ENDROOT
BRANCH   1  20
ATOM     19  C   UNL     1      -0.790  11.329  -1.124  0.00  0.00    +0.168 A 
ATOM     20  C   UNL     1      -0.635   9.980  -0.846  0.00  0.00    +0.023 A 
ATOM     21  C   UNL     1      -1.733   9.141  -0.865  0.00  0.00    +0.009 A 
ATOM     22  C   UNL     1      -2.986   9.642  -1.165  0.00  0.00    +0.004 A 
ATOM     23  C   UNL     1      -3.147  10.986  -1.449  0.00  0.00    +0.049 A 
ATOM     24  C   UNL     1      -2.050  11.833  -1.432  0.00  0.00    +0.162 A 
BRANCH  24  25
ATOM     25  O   UNL     1      -2.207  13.155  -1.710  0.00  0.00    -0.491 OA
ATOM     26  C   UNL     1      -3.530  13.603  -2.011  0.00  0.00    +0.277 C 
ENDBRANCH  24  25
BRANCH  19  27
ATOM     27  O   UNL     1       0.288  12.158  -1.101  0.00  0.00    -0.485 OA
BRANCH  27  29
ATOM     28  C   UNL     1       0.585  13.374  -3.168  0.00  0.00    +0.051 C 
ATOM     29  C   UNL     1       1.081  12.224  -2.288  0.00  0.00    +0.168 C 
ATOM     30  C   UNL     1       2.544  12.464  -1.912  0.00  0.00    +0.051 C 
ENDBRANCH  27  29
ENDBRANCH  19  27
ENDBRANCH   1  20
BRANCH   5  31
ATOM     31  C   UNL     1      -0.061   3.883  -1.941  0.00  0.00    -0.002 A 
ATOM     32  C   UNL     1       1.133   3.250  -2.229  0.00  0.00    +0.007 A 
ATOM     33  C   UNL     1       1.139   1.920  -2.605  0.00  0.00    +0.001 A 
ATOM     34  C   UNL     1      -0.050   1.219  -2.695  0.00  0.00    +0.004 A 
ATOM     35  C   UNL     1      -1.247   1.848  -2.413  0.00  0.00    +0.046 A 
ATOM     36  C   UNL     1      -1.255   3.182  -2.029  0.00  0.00    +0.124 A 
BRANCH  36  37
ATOM     37  O   UNL     1      -2.430   3.802  -1.747  0.00  0.00    -0.495 OA
ATOM     38  C   UNL     1      -3.620   3.019  -1.859  0.00  0.00    +0.277 C 
ENDBRANCH  36  37
ENDBRANCH   5  31
TORSDOF 6
