REMARK  Name = ZINC59087694
REMARK  13 active torsions:
REMARK  status: ('A' for Active; 'I' for Inactive)
REMARK    1  A    between atoms: C_1  and  C_2
REMARK    2  A    between atoms: C_2  and  O_3
REMARK    3  A    between atoms: O_3  and  C_4
REMARK    4  A    between atoms: C_9  and  C_10
REMARK    5  A    between atoms: C_10  and  N_11
REMARK    6  A    between atoms: N_11  and  C_12
REMARK    7  A    between atoms: N_11  and  C_22
REMARK    8  A    between atoms: C_14  and  C_20
REMARK    9  A    between atoms: C_14  and  C_21
REMARK   10  A    between atoms: C_16  and  C_18
REMARK   11  A    between atoms: C_16  and  C_19
REMARK   12  A    between atoms: C_22  and  N_24
REMARK   13  A    between atoms: N_24  and  C_25
REMARK                            x       y       z     vdW  Elec       q    Type
REMARK                         _______ _______ _______ _____ _____    ______ ____
ROOT
ATOM      1  N   UNL     1       3.602  -0.306  -3.343  0.00  0.00    -0.305 N 
ENDROOT
BRANCH   1   2
ATOM      2  C   UNL     1       4.665  -1.294  -3.568  0.00  0.00    +0.073 C 
ATOM      3  C   UNL     1       5.989  -0.564  -3.800  0.00  0.00    +0.009 C 
ATOM      4  C   UNL     1       7.108  -1.580  -4.024  0.00  0.00    -0.072 C 
ATOM      5  N   UNL     1       7.189  -2.553  -2.945  0.00  0.00    +0.386 N 
ATOM      6  C   UNL     1       5.950  -3.168  -2.495  0.00  0.00    -0.072 C 
ATOM      7  C   UNL     1       4.811  -2.169  -2.324  0.00  0.00    +0.009 C 
ATOM      8  C   UNL     1       5.513  -4.305  -3.422  0.00  0.00    -0.010 C 
ATOM      9  C   UNL     1       6.221  -3.797  -1.107  0.00  0.00    -0.010 C 
ATOM     10  C   UNL     1       8.441  -0.797  -4.047  0.00  0.00    -0.010 C 
ATOM     11  C   UNL     1       6.951  -2.248  -5.390  0.00  0.00    -0.010 C 
ATOM     12  H   UNL     1       7.833  -3.296  -3.229  0.00  0.00    -0.084 HD
ATOM     13  H   UNL     1       7.636  -2.105  -2.141  0.00  0.00    -0.084 HD
ENDBRANCH   1   2
BRANCH   1  14
ATOM     14  C   UNL     1       3.719   0.594  -2.346  0.00  0.00    +0.138 C 
ATOM     15  S   UNL     1       2.567   1.850  -2.188  0.00  0.00    -0.018 S 
BRANCH  14  16
ATOM     16  N   UNL     1       4.742   0.504  -1.474  0.00  0.00    -0.296 N 
ATOM     17  H   UNL     1       5.438  -0.159  -1.609  0.00  0.00    +0.154 HD
BRANCH  16  18
ATOM     18  C   UNL     1       4.802   1.368  -0.375  0.00  0.00    +0.053 A 
ATOM     19  C   UNL     1       3.632   1.826   0.215  0.00  0.00    +0.044 A 
ATOM     20  C   UNL     1       3.694   2.679   1.301  0.00  0.00    +0.043 A 
ATOM     21  C   UNL     1       4.922   3.077   1.800  0.00  0.00    +0.021 A 
ATOM     22  C   UNL     1       6.090   2.624   1.214  0.00  0.00    +0.023 A 
ATOM     23  C   UNL     1       6.034   1.765   0.133  0.00  0.00    +0.062 A 
ATOM     24 CL   UNL     1       7.500   1.190  -0.597  0.00  0.00    -0.082 Cl
ATOM     25 CL   UNL     1       2.231   3.252   2.039  0.00  0.00    -0.083 Cl
ENDBRANCH  16  18
ENDBRANCH  14  16
ENDBRANCH   1  14
BRANCH   1  26
ATOM     26  C   UNL     1       2.416  -0.297  -4.202  0.00  0.00    +0.145 C 
BRANCH  26  32
ATOM     27  C   UNL     1       0.540  -1.132  -2.763  0.00  0.00    +0.125 A 
ATOM     28  C   UNL     1      -0.334  -2.133  -2.363  0.00  0.00    +0.046 A 
ATOM     29  C   UNL     1      -0.274  -3.378  -2.957  0.00  0.00    +0.004 A 
ATOM     30  C   UNL     1       0.657  -3.629  -3.949  0.00  0.00    +0.001 A 
ATOM     31  C   UNL     1       1.529  -2.633  -4.348  0.00  0.00    +0.009 A 
ATOM     32  C   UNL     1       1.469  -1.384  -3.762  0.00  0.00    +0.011 A 
BRANCH  27  33
ATOM     33  O   UNL     1       0.482   0.095  -2.181  0.00  0.00    -0.492 OA
BRANCH  33  35
ATOM     34  C   UNL     1      -0.414   1.714  -0.627  0.00  0.00    +0.048 C 
ATOM     35  C   UNL     1      -0.499   0.282  -1.159  0.00  0.00    +0.225 C 
ENDBRANCH  33  35
ENDBRANCH  27  33
ENDBRANCH  26  32
ENDBRANCH   1  26
TORSDOF 8
