REMARK  Name = ZINC17007818
REMARK  3 active torsions:
REMARK  status: ('A' for Active; 'I' for Inactive)
REMARK    1  A    between atoms: C_1  and  C_2
REMARK    2  A    between atoms: C_9  and  C_11
REMARK    3  A    between atoms: C_19  and  C_21
REMARK                            x       y       z     vdW  Elec       q    Type
REMARK                         _______ _______ _______ _____ _____    ______ ____
ROOT
ATOM      1  C   UNL     1      -0.636   1.763  -1.171  0.00  0.00    +0.096 C 
ATOM      2  C   UNL     1       0.080   1.293   0.102  0.00  0.00    +0.024 C 
ATOM      3  C   UNL     1      -0.703   1.787   1.326  0.00  0.00    +0.009 C 
ATOM      4  C   UNL     1      -0.757   3.330   1.292  0.00  0.00    +0.009 C 
ATOM      5  C   UNL     1      -0.001   3.846   0.061  0.00  0.00    +0.026 C 
ATOM      6  C   UNL     1      -0.678   3.306  -1.205  0.00  0.00    +0.121 C 
ATOM      7  C   UNL     1       1.411   3.280   0.111  0.00  0.00    -0.027 C 
ATOM      8  C   UNL     1       1.453   1.948   0.132  0.00  0.00    -0.027 C 
ENDROOT
BRANCH   1  16
ATOM      9  C   UNL     1      -4.674   0.688  -1.277  0.00  0.00    +0.028 C 
ATOM     10  C   UNL     1      -3.803  -0.116  -2.244  0.00  0.00    +0.073 C 
ATOM     11  C   UNL     1      -4.281   0.117  -3.686  0.00  0.00    +0.022 C 
ATOM     12  C   UNL     1      -3.322  -0.581  -4.654  0.00  0.00    +0.003 C 
ATOM     13  C   UNL     1      -1.922   0.020  -4.508  0.00  0.00    +0.019 C 
ATOM     14  C   UNL     1      -1.418  -0.209  -3.080  0.00  0.00    +0.108 C 
ATOM     15  N   UNL     1      -2.407   0.331  -2.137  0.00  0.00    -0.298 N 
ATOM     16  C   UNL     1      -2.040   1.216  -1.189  0.00  0.00    +0.220 C 
ATOM     17  O   UNL     1      -2.840   1.572  -0.350  0.00  0.00    -0.275 OA
ENDBRANCH   1  16
BRANCH   6  18
ATOM     18  C   UNL     1      -2.114   3.763  -1.240  0.00  0.00    +0.360 C 
ATOM     19  O   UNL     1      -2.576   4.377  -0.307  0.00  0.00    -0.246 OA
ATOM     20  O   UNL     1      -2.880   3.488  -2.307  0.00  0.00    -0.246 OA
ENDBRANCH   6  18
TORSDOF 2
