REMARK  Name = ZINC35207180
REMARK  3 active torsions:
REMARK  status: ('A' for Active; 'I' for Inactive)
REMARK    1  A    between atoms: C_1  and  N_2
REMARK    2  A    between atoms: N_2  and  C_3
REMARK    3  A    between atoms: C_13  and  C_15
REMARK                            x       y       z     vdW  Elec       q    Type
REMARK                         _______ _______ _______ _____ _____    ______ ____
ROOT
ATOM      1  C   UNL     1      -0.082   1.461   0.012  0.00  0.00    +0.133 C 
ATOM      2  N   UNL     1      -0.023  -0.003   0.003  0.00  0.00    -0.292 N 
ATOM      3  C   UNL     1      -0.102  -0.673  -1.163  0.00  0.00    +0.263 C 
ATOM      4  O   UNL     1      -0.154  -1.889  -1.164  0.00  0.00    -0.269 OA
ENDROOT
BRANCH   2   5
ATOM      5  C   UNL     1       0.120  -0.738   1.262  0.00  0.00    +0.107 C 
ATOM      6  C   UNL     1       1.411  -0.306   1.991  0.00  0.00    +0.032 C 
ATOM      7  C   UNL     1       0.997  -0.389   3.475  0.00  0.00    +0.037 C 
ATOM      8  C   UNL     1      -0.503  -0.183   3.481  0.00  0.00    -0.042 A 
ATOM      9  C   UNL     1      -1.008  -0.386   2.208  0.00  0.00    -0.024 A 
ATOM     10  C   UNL     1      -2.366  -0.252   1.974  0.00  0.00    +0.006 A 
ATOM     11  C   UNL     1      -3.220   0.082   3.007  0.00  0.00    +0.000 A 
ATOM     12  C   UNL     1      -2.718   0.283   4.279  0.00  0.00    +0.000 A 
ATOM     13  C   UNL     1      -1.359   0.153   4.516  0.00  0.00    +0.004 A 
ENDBRANCH   2   5
BRANCH   3  14
ATOM     14  C   UNL     1      -0.124   0.063  -2.433  0.00  0.00    +0.121 C 
ATOM     15  N   UNL     1       0.060   1.347  -2.430  0.00  0.00    -0.180 NA
ATOM     16  N   UNL     1       0.043   2.082  -3.620  0.00  0.00    -0.207 N 
ATOM     17  C   UNL     1      -0.530   1.573  -4.728  0.00  0.00    +0.233 C 
ATOM     18  O   UNL     1      -0.545   2.216  -5.756  0.00  0.00    -0.274 OA
ATOM     19  C   UNL     1      -1.152   0.200  -4.686  0.00  0.00    +0.104 C 
ATOM     20  C   UNL     1      -0.353  -0.683  -3.720  0.00  0.00    +0.071 C 
ATOM     21  H   UNL     1       0.447   2.964  -3.648  0.00  0.00    +0.177 HD
ENDBRANCH   3  14
TORSDOF 2
