REMARK  Name = ZINC43572633
REMARK  9 active torsions:
REMARK  status: ('A' for Active; 'I' for Inactive)
REMARK    1  A    between atoms: C_1  and  C_2
REMARK    2  A    between atoms: N_5  and  C_8
REMARK    3  A    between atoms: C_8  and  C_10
REMARK    4  A    between atoms: C_8  and  C_25
REMARK    5  A    between atoms: C_10  and  N_11
REMARK    6  A    between atoms: N_14  and  C_15
REMARK    7  A    between atoms: C_18  and  O_21
REMARK    8  A    between atoms: O_21  and  C_22
REMARK    9  A    between atoms: C_22  and  C_23
REMARK                            x       y       z     vdW  Elec       q    Type
REMARK                         _______ _______ _______ _____ _____    ______ ____
ROOT
ATOM      1  N   UNL     1       0.238  -5.859   2.588  0.00  0.00    -0.300 N 
ATOM      2  C   UNL     1       0.856  -6.493   3.604  0.00  0.00    +0.304 C 
ATOM      3  O   UNL     1       1.288  -5.856   4.545  0.00  0.00    -0.253 OA
ATOM      4  N   UNL     1       0.995  -7.833   3.578  0.00  0.00    -0.269 N 
ATOM      5  H   UNL     1      -0.106  -6.367   1.837  0.00  0.00    +0.150 HD
ATOM      6  H   UNL     1       0.590  -8.348   2.862  0.00  0.00    +0.156 HD
ENDROOT
BRANCH   4   7
ATOM      7  C   UNL     1       1.724  -8.482   4.583  0.00  0.00    +0.035 A 
ATOM      8  C   UNL     1       2.491  -9.598   4.275  0.00  0.00    +0.027 A 
ATOM      9  C   UNL     1       3.209 -10.236   5.267  0.00  0.00    +0.047 A 
ATOM     10  C   UNL     1       3.164  -9.764   6.570  0.00  0.00    +0.122 A 
ATOM     11  C   UNL     1       2.398  -8.650   6.879  0.00  0.00    +0.047 A 
ATOM     12  C   UNL     1       1.683  -8.007   5.887  0.00  0.00    +0.027 A 
BRANCH  10  13
ATOM     13  O   UNL     1       3.872 -10.393   7.546  0.00  0.00    -0.477 OA
BRANCH  13  14
ATOM     14  C   UNL     1       3.780  -9.853   8.866  0.00  0.00    +0.346 C 
BRANCH  14  15
ATOM     15  C   UNL     1       4.604 -10.656   9.783  0.00  0.00    +0.104 C 
ATOM     16  N   UNL     1       5.241 -11.276  10.492  0.00  0.00    -0.193 NA
ENDBRANCH  14  15
ENDBRANCH  13  14
ENDBRANCH  10  13
ENDBRANCH   4   7
BRANCH   1  17
ATOM     17  C   UNL     1       0.087  -4.402   2.617  0.00  0.00    +0.095 C 
BRANCH  17  18
ATOM     18  C   UNL     1      -0.751  -3.952   1.419  0.00  0.00    -0.013 C 
BRANCH  18  23
ATOM     19  C   UNL     1      -0.572   1.653   0.385  0.00  0.00    +0.007 C 
ATOM     20  C   UNL     1      -0.401   0.137   0.273  0.00  0.00    -0.018 C 
ATOM     21  C   UNL     1      -1.778  -0.534   0.260  0.00  0.00    -0.015 C 
ATOM     22  C   UNL     1      -1.599  -2.053   0.228  0.00  0.00    -0.078 C 
ATOM     23  N   UNL     1      -0.853  -2.487   1.415  0.00  0.00    +0.386 N 
ATOM     24  C   UNL     1       0.494  -1.905   1.396  0.00  0.00    -0.078 C 
ATOM     25  C   UNL     1       0.396  -0.379   1.474  0.00  0.00    -0.015 C 
ATOM     26  H   UNL     1      -1.338  -2.183   2.245  0.00  0.00    -0.081 HD
ENDBRANCH  18  23
BRANCH  18  27
ATOM     27  C   UNL     1      -2.131  -4.551   1.517  0.00  0.00    -0.022 A 
ATOM     28  C   UNL     1      -2.636  -5.639   0.886  0.00  0.00    +0.009 A 
ATOM     29  C   UNL     1      -3.945  -6.009   1.133  0.00  0.00    +0.008 A 
ATOM     30  C   UNL     1      -4.684  -5.274   1.999  0.00  0.00    +0.045 A 
ATOM     31  S   UNL     1      -3.520  -4.017   2.502  0.00  0.00    -0.103 S 
ENDBRANCH  18  27
ENDBRANCH  17  18
ENDBRANCH   1  17
TORSDOF 8
