REMARK  Name = ZINC20453293
REMARK  4 active torsions:
REMARK  status: ('A' for Active; 'I' for Inactive)
REMARK    1  A    between atoms: C_6  and  C_7
REMARK    2  A    between atoms: C_8  and  C_13
REMARK    3  A    between atoms: C_13  and  N_14
REMARK    4  A    between atoms: C_18  and  C_20
REMARK                            x       y       z     vdW  Elec       q    Type
REMARK                         _______ _______ _______ _____ _____    ______ ____
ROOT
ATOM      1  N   UNL     1      -3.010   2.014   0.347  0.00  0.00    +0.389 N 
ATOM      2  C   UNL     1      -1.943   2.174  -0.659  0.00  0.00    -0.077 C 
ATOM      3  C   UNL     1      -1.462   3.638  -0.587  0.00  0.00    -0.020 C 
ATOM      4  C   UNL     1      -2.669   4.371   0.057  0.00  0.00    -0.010 C 
ATOM      5  C   UNL     1      -3.191   3.302   1.049  0.00  0.00    -0.001 C 
ATOM      6  H   UNL     1      -3.870   1.754  -0.112  0.00  0.00    -0.080 HD
ENDROOT
BRANCH   5   7
ATOM      7  C   UNL     1      -4.649   3.535   1.352  0.00  0.00    +0.095 A 
ATOM      8  N   UNL     1      -5.121   4.322   2.356  0.00  0.00    -0.343 N 
ATOM      9  H   UNL     1      -4.588   4.823   2.993  0.00  0.00    +0.167 HD
ATOM     10  C   UNL     1      -6.500   4.274   2.302  0.00  0.00    +0.069 A 
ATOM     11  C   UNL     1      -7.517   4.856   3.047  0.00  0.00    +0.066 A 
ATOM     12  C   UNL     1      -8.834   4.597   2.724  0.00  0.00    +0.125 A 
ATOM     13  C   UNL     1      -9.146   3.760   1.659  0.00  0.00    +0.040 A 
ATOM     14  C   UNL     1      -8.156   3.180   0.916  0.00  0.00    +0.032 A 
ATOM     15  C   UNL     1      -6.816   3.429   1.226  0.00  0.00    +0.089 A 
ATOM     16  N   UNL     1      -5.640   3.017   0.687  0.00  0.00    -0.234 NA
ATOM     17  F   UNL     1      -9.826   5.161   3.447  0.00  0.00    -0.205 F 
ENDBRANCH   5   7
BRANCH   1  18
ATOM     18  C   UNL     1      -2.628   0.974   1.311  0.00  0.00    -0.038 C 
BRANCH  18  20
ATOM     19  C   UNL     1      -3.650  -1.177   0.270  0.00  0.00    +0.094 A 
ATOM     20  C   UNL     1      -2.556  -0.358   0.611  0.00  0.00    -0.019 A 
ATOM     21  C   UNL     1      -1.429  -0.980   0.198  0.00  0.00    +0.107 A 
ATOM     22  N   UNL     1      -1.785  -2.146  -0.382  0.00  0.00    -0.284 N 
ATOM     23  H   UNL     1      -1.180  -2.797  -0.769  0.00  0.00    +0.188 HD
ATOM     24  N   UNL     1      -3.181  -2.254  -0.323  0.00  0.00    -0.174 NA
BRANCH  19  30
ATOM     25  C   UNL     1      -5.465  -0.361   1.771  0.00  0.00    +0.014 A 
ATOM     26  C   UNL     1      -6.794  -0.085   2.019  0.00  0.00    +0.050 A 
ATOM     27  C   UNL     1      -7.750  -0.322   1.043  0.00  0.00    +0.166 A 
ATOM     28  C   UNL     1      -7.369  -0.841  -0.194  0.00  0.00    +0.167 A 
ATOM     29  C   UNL     1      -6.038  -1.119  -0.446  0.00  0.00    +0.059 A 
ATOM     30  C   UNL     1      -5.079  -0.880   0.537  0.00  0.00    +0.006 A 
ATOM     31  O   UNL     1      -8.484  -0.981  -0.969  0.00  0.00    -0.453 OA
ATOM     32  C   UNL     1      -9.596  -0.929  -0.057  0.00  0.00    +0.466 C 
ATOM     33  O   UNL     1      -9.102  -0.138   1.040  0.00  0.00    -0.453 OA
ENDBRANCH  19  30
ENDBRANCH  18  20
ENDBRANCH   1  18
TORSDOF 4
