REMARK  Name = ZINC09720855
REMARK  9 active torsions:
REMARK  status: ('A' for Active; 'I' for Inactive)
REMARK    1  A    between atoms: C_6  and  C_7
REMARK    2  A    between atoms: C_7  and  O_8
REMARK    3  A    between atoms: O_8  and  C_9
REMARK    4  A    between atoms: C_12  and  C_15
REMARK    5  A    between atoms: N_16  and  N_17
REMARK    6  A    between atoms: C_18  and  C_20
REMARK    7  A    between atoms: C_20  and  C_21
REMARK    8  A    between atoms: C_24  and  N_30
REMARK    9  A    between atoms: C_26  and  N_27
REMARK                            x       y       z     vdW  Elec       q    Type
REMARK                         _______ _______ _______ _____ _____    ______ ____
ROOT
ATOM      1  C   UNL     1       2.865  -0.021  -0.039  0.00  0.00    +0.138 C 
ATOM      2  N   UNL     1       3.857   0.816  -0.072  0.00  0.00    -0.188 NA
ENDROOT
BRANCH   1   6
ATOM      3  C   UNL     1      -1.126   1.411  -0.256  0.00  0.00    +0.121 A 
ATOM      4  C   UNL     1      -0.884   0.047  -0.155  0.00  0.00    +0.046 A 
ATOM      5  C   UNL     1       0.409  -0.422  -0.079  0.00  0.00    +0.013 A 
ATOM      6  C   UNL     1       1.479   0.476  -0.115  0.00  0.00    -0.005 A 
ATOM      7  C   UNL     1       1.231   1.847  -0.222  0.00  0.00    +0.013 A 
ATOM      8  C   UNL     1      -0.066   2.307  -0.292  0.00  0.00    +0.046 A 
BRANCH   3   9
ATOM      9  O   UNL     1      -2.403   1.869  -0.326  0.00  0.00    -0.487 OA
BRANCH   9  10
ATOM     10  C   UNL     1      -3.446   0.892  -0.284  0.00  0.00    +0.264 C 
BRANCH  10  16
ATOM     11  C   UNL     1      -5.432   1.980   0.782  0.00  0.00    +0.008 A 
ATOM     12  C   UNL     1      -6.657   2.616   0.702  0.00  0.00    +0.015 A 
ATOM     13  C   UNL     1      -7.237   2.845  -0.533  0.00  0.00    +0.018 A 
ATOM     14  C   UNL     1      -6.590   2.441  -1.687  0.00  0.00    +0.015 A 
ATOM     15  C   UNL     1      -5.363   1.810  -1.606  0.00  0.00    +0.008 A 
ATOM     16  C   UNL     1      -4.783   1.581  -0.372  0.00  0.00    -0.010 A 
ATOM     17 BR   UNL     1      -8.915   3.709  -0.643  0.00  0.00    -0.050 Br
ENDBRANCH  10  16
ENDBRANCH   9  10
ENDBRANCH   3   9
ENDBRANCH   1   6
BRANCH   2  18
ATOM     18  N   UNL     1       5.174   0.343  -0.000  0.00  0.00    -0.207 N 
ATOM     19  C   UNL     1       6.204   1.212  -0.035  0.00  0.00    +0.237 C 
ATOM     20  O   UNL     1       5.991   2.402  -0.129  0.00  0.00    -0.274 OA
ATOM     21  H   UNL     1       5.344  -0.609   0.074  0.00  0.00    +0.177 HD
BRANCH  19  22
ATOM     22  C   UNL     1       7.621   0.703   0.042  0.00  0.00    +0.135 C 
BRANCH  22  23
ATOM     23  C   UNL     1       8.576   1.868  -0.016  0.00  0.00    -0.008 A 
ATOM     24  C   UNL     1       9.220   2.174  -1.200  0.00  0.00    +0.008 A 
ATOM     25  C   UNL     1      10.096   3.242  -1.254  0.00  0.00    +0.033 A 
ATOM     26  C   UNL     1      10.327   4.004  -0.124  0.00  0.00    +0.128 A 
ATOM     27  C   UNL     1       9.683   3.697   1.060  0.00  0.00    +0.065 A 
ATOM     28  C   UNL     1       8.803   2.632   1.113  0.00  0.00    +0.132 A 
BRANCH  28  29
ATOM     29  N   UNL     1       8.109   2.308   2.379  0.00  0.00    +0.057 N 
ATOM     30  O   UNL     1       8.391   2.909   3.400  0.00  0.00    -0.126 OA
ATOM     31  O   UNL     1       7.255   1.439   2.400  0.00  0.00    -0.126 OA
ENDBRANCH  28  29
BRANCH  26  32
ATOM     32  N   UNL     1      11.265   5.148  -0.181  0.00  0.00    +0.056 N 
ATOM     33  O   UNL     1      11.832   5.418  -1.225  0.00  0.00    -0.126 OA
ATOM     34  O   UNL     1      11.469   5.819   0.814  0.00  0.00    -0.126 OA
ENDBRANCH  26  32
ENDBRANCH  22  23
ENDBRANCH  19  22
ENDBRANCH   2  18
TORSDOF 9
