REMARK  Name = ZINC47274080
REMARK  5 active torsions:
REMARK  status: ('A' for Active; 'I' for Inactive)
REMARK    1  A    between atoms: C_1  and  C_2
REMARK    2  A    between atoms: C_4  and  C_7
REMARK    3  A    between atoms: C_7  and  C_9
REMARK    4  A    between atoms: C_7  and  N_10
REMARK    5  A    between atoms: C_13  and  C_16
REMARK                            x       y       z     vdW  Elec       q    Type
REMARK                         _______ _______ _______ _____ _____    ______ ____
ROOT
ATOM      1  N   UNL     1       1.033  -4.189  -1.248  0.00  0.00    +0.390 N 
ATOM      2  C   UNL     1       2.367  -3.569  -1.236  0.00  0.00    -0.073 C 
ATOM      3  C   UNL     1       3.338  -4.515  -0.525  0.00  0.00    +0.017 C 
ATOM      4  C   UNL     1       3.209  -5.897  -1.102  0.00  0.00    -0.046 C 
ATOM      5  C   UNL     1       2.177  -6.260  -1.837  0.00  0.00    -0.041 C 
ATOM      6  C   UNL     1       1.045  -5.331  -2.170  0.00  0.00    -0.050 C 
ATOM      7  H   UNL     1       0.798  -4.507  -0.320  0.00  0.00    -0.080 HD
ENDROOT
BRANCH   4   8
ATOM      8  C   UNL     1       4.275  -6.883  -0.836  0.00  0.00    +0.003 A 
ATOM      9  C   UNL     1       5.509  -6.915  -1.401  0.00  0.00    +0.091 A 
ATOM     10  N   UNL     1       6.215  -7.973  -0.905  0.00  0.00    -0.360 N 
ATOM     11  H   UNL     1       7.123  -8.201  -1.158  0.00  0.00    +0.165 HD
ATOM     12  C   UNL     1       5.452  -8.669   0.007  0.00  0.00    +0.050 A 
ATOM     13  C   UNL     1       4.209  -8.020   0.098  0.00  0.00    +0.007 A 
ATOM     14  C   UNL     1       3.228  -8.508   0.959  0.00  0.00    +0.013 A 
ATOM     15  C   UNL     1       3.483  -9.625   1.722  0.00  0.00    +0.039 A 
ATOM     16  C   UNL     1       4.713 -10.266   1.637  0.00  0.00    +0.125 A 
ATOM     17  C   UNL     1       5.691  -9.799   0.782  0.00  0.00    +0.064 A 
ATOM     18  F   UNL     1       4.951 -11.361   2.392  0.00  0.00    -0.205 F 
ENDBRANCH   4   8
BRANCH   1  19
ATOM     19  C   UNL     1       0.038  -3.206  -1.697  0.00  0.00    +0.019 C 
ATOM     20  C   UNL     1      -1.347  -3.856  -1.721  0.00  0.00    -0.003 C 
BRANCH  19  24
ATOM     21  C   UNL     1      -0.018   1.503   0.010  0.00  0.00    +0.091 C 
ATOM     22  C   UNL     1       0.002  -0.004   0.002  0.00  0.00    +0.169 A 
ATOM     23  N   UNL     1       0.008  -0.776  -1.091  0.00  0.00    -0.198 NA
ATOM     24  C   UNL     1       0.026  -2.034  -0.750  0.00  0.00    +0.214 A 
ATOM     25  O   UNL     1       0.033  -2.107   0.587  0.00  0.00    -0.340 OA
ATOM     26  N   UNL     1       0.023  -0.767   1.057  0.00  0.00    -0.062 NA
ENDBRANCH  19  24
ENDBRANCH   1  19
TORSDOF 3
