REMARK  Name = ZINC04927416
REMARK  8 active torsions:
REMARK  status: ('A' for Active; 'I' for Inactive)
REMARK    1  A    between atoms: C_1  and  C_2
REMARK    2  A    between atoms: C_2  and  C_3
REMARK    3  A    between atoms: C_3  and  C_5
REMARK    4  A    between atoms: C_3  and  N_20
REMARK    5  A    between atoms: C_5  and  C_6
REMARK    6  A    between atoms: C_6  and  N_7
REMARK    7  A    between atoms: C_8  and  C_10
REMARK    8  A    between atoms: C_21  and  C_23
REMARK                            x       y       z     vdW  Elec       q    Type
REMARK                         _______ _______ _______ _____ _____    ______ ____
ROOT
ATOM      1  C   UNL     1      -2.132   7.259  -0.950  0.00  0.00    +0.074 C 
ENDROOT
BRANCH   1   2
ATOM      2  N   UNL     1      -2.112   5.794  -0.958  0.00  0.00    -0.312 N 
ATOM      3  C   UNL     1      -1.510   5.123   0.044  0.00  0.00    +0.219 C 
ATOM      4  O   UNL     1      -0.985   5.731   0.952  0.00  0.00    -0.275 OA
ATOM      5  H   UNL     1      -2.533   5.307  -1.684  0.00  0.00    +0.149 HD
BRANCH   3   6
ATOM      6  C   UNL     1      -1.490   3.616   0.036  0.00  0.00    +0.048 C 
ATOM      7  C   UNL     1      -0.773   3.123  -1.223  0.00  0.00    +0.019 C 
ATOM      8  C   UNL     1      -0.753   1.593  -1.232  0.00  0.00    -0.009 C 
ATOM      9  C   UNL     1      -0.013   1.086   0.008  0.00  0.00    +0.007 C 
ATOM     10  C   UNL     1      -0.729   1.579   1.267  0.00  0.00    -0.009 C 
ATOM     11  C   UNL     1      -0.750   3.109   1.275  0.00  0.00    +0.019 C 
ATOM     12  C   UNL     1      -2.164   1.050   1.278  0.00  0.00    +0.007 C 
ATOM     13  C   UNL     1      -2.904   1.556   0.038  0.00  0.00    -0.009 C 
ATOM     14  C   UNL     1      -2.188   1.063  -1.221  0.00  0.00    +0.007 C 
ATOM     15  C   UNL     1      -2.925   3.086   0.047  0.00  0.00    +0.019 C 
ENDBRANCH   3   6
ENDBRANCH   1   2
BRANCH   1  17
ATOM     16  C   UNL     1       0.349   7.396  -0.686  0.00  0.00    +0.006 C 
ATOM     17  C   UNL     1      -0.838   7.790  -1.569  0.00  0.00    +0.019 C 
ENDBRANCH   1  17
BRANCH   1  18
ATOM     18  C   UNL     1      -3.329   7.757  -1.763  0.00  0.00    +0.041 C 
BRANCH  18  19
ATOM     19  C   UNL     1      -4.627   7.331  -1.074  0.00  0.00    +0.106 C 
BRANCH  19  20
ATOM     20  N   UNL     1      -5.772   7.808  -1.853  0.00  0.00    -0.315 N 
ATOM     21  C   UNL     1      -7.027   7.548  -1.435  0.00  0.00    +0.219 C 
ATOM     22  O   UNL     1      -7.207   6.920  -0.413  0.00  0.00    -0.275 OA
ATOM     23  H   UNL     1      -5.628   8.311  -2.670  0.00  0.00    +0.149 HD
BRANCH  21  24
ATOM     24  C   UNL     1      -8.205   8.039  -2.236  0.00  0.00    +0.048 C 
ATOM     25  C   UNL     1      -8.156   9.565  -2.332  0.00  0.00    +0.019 C 
ATOM     26  C   UNL     1      -9.352  10.064  -3.145  0.00  0.00    -0.009 C 
ATOM     27  C   UNL     1     -10.650   9.637  -2.457  0.00  0.00    +0.007 C 
ATOM     28  C   UNL     1     -10.699   8.111  -2.360  0.00  0.00    -0.009 C 
ATOM     29  C   UNL     1      -9.503   7.613  -1.547  0.00  0.00    +0.019 C 
ATOM     30  C   UNL     1     -10.646   7.510  -3.766  0.00  0.00    +0.007 C 
ATOM     31  C   UNL     1      -9.348   7.936  -4.455  0.00  0.00    -0.009 C 
ATOM     32  C   UNL     1      -9.299   9.462  -4.551  0.00  0.00    +0.007 C 
ATOM     33  C   UNL     1      -8.152   7.438  -3.641  0.00  0.00    +0.019 C 
ENDBRANCH  21  24
ENDBRANCH  19  20
ENDBRANCH  18  19
ENDBRANCH   1  18
TORSDOF 7
