REMARK  Name = ZINC13540845
REMARK  4 active torsions:
REMARK  status: ('A' for Active; 'I' for Inactive)
REMARK    1  A    between atoms: C_8  and  C_27
REMARK    2  A    between atoms: C_10  and  C_18
REMARK    3  A    between atoms: C_22  and  N_24
REMARK    4  A    between atoms: C_27  and  C_29
REMARK                            x       y       z     vdW  Elec       q    Type
REMARK                         _______ _______ _______ _____ _____    ______ ____
ROOT
ATOM      1  C   UNL     1      -5.187   4.966   1.971  0.00  0.00    +0.000 A 
ATOM      2  C   UNL     1      -6.230   4.391   2.674  0.00  0.00    +0.002 A 
ATOM      3  C   UNL     1      -6.379   3.020   2.704  0.00  0.00    +0.023 A 
ATOM      4  C   UNL     1      -5.478   2.203   2.024  0.00  0.00    +0.039 A 
ATOM      5  C   UNL     1      -4.433   2.792   1.321  0.00  0.00    +0.004 A 
ATOM      6  C   UNL     1      -4.288   4.162   1.293  0.00  0.00    +0.008 A 
ATOM      7  C   UNL     1      -3.653   1.660   0.708  0.00  0.00    +0.137 C 
ATOM      8  C   UNL     1      -2.206   1.654   1.210  0.00  0.00    +0.104 C 
ATOM      9  C   UNL     1      -1.376   2.145   0.001  0.00  0.00    +0.050 C 
ATOM     10  C   UNL     1      -2.239   1.741  -1.203  0.00  0.00    +0.077 C 
ATOM     11  N   UNL     1      -3.639   1.765  -0.762  0.00  0.00    -0.271 NA
ATOM     12  C   UNL     1      -4.336   3.035  -1.133  0.00  0.00    +0.155 C 
ATOM     13  S   UNL     1      -3.568   3.369  -2.779  0.00  0.00    -0.144 S 
ATOM     14  C   UNL     1      -1.932   2.623  -2.422  0.00  0.00    +0.090 C 
ATOM     15  C   UNL     1      -4.378   0.413   1.148  0.00  0.00    +0.243 C 
ATOM     16  O   UNL     1      -4.082  -0.730   0.874  0.00  0.00    -0.273 OA
ATOM     17  N   UNL     1      -5.418   0.814   1.904  0.00  0.00    -0.283 N 
ATOM     18  H   UNL     1      -6.171   0.186   2.401  0.00  0.00    +0.155 HD
ENDROOT
BRANCH   9  19
ATOM     19  C   UNL     1      -0.040   1.450  -0.046  0.00  0.00    -0.040 A 
ATOM     20  C   UNL     1       0.021   0.069  -0.060  0.00  0.00    +0.004 A 
ATOM     21  C   UNL     1       1.247  -0.568  -0.108  0.00  0.00    +0.002 A 
ATOM     22  C   UNL     1       2.412   0.176  -0.142  0.00  0.00    +0.033 A 
ATOM     23  C   UNL     1       2.351   1.557  -0.130  0.00  0.00    +0.126 A 
ATOM     24  C   UNL     1       1.125   2.194  -0.080  0.00  0.00    +0.036 A 
BRANCH  23  25
ATOM     25  N   UNL     1       3.598   2.353  -0.166  0.00  0.00    +0.056 N 
ATOM     26  O   UNL     1       4.678   1.791  -0.208  0.00  0.00    -0.126 OA
ATOM     27  O   UNL     1       3.544   3.570  -0.155  0.00  0.00    -0.126 OA
ENDBRANCH  23  25
ENDBRANCH   9  19
BRANCH   8  28
ATOM     28  C   UNL     1      -2.049   2.597   2.374  0.00  0.00    +0.187 C 
ATOM     29  O   UNL     1      -1.712   3.745   2.183  0.00  0.00    -0.290 OA
BRANCH  28  30
ATOM     30  C   UNL     1      -2.305   2.123   3.748  0.00  0.00    +0.106 A 
ATOM     31  C   UNL     1      -2.152   2.999   4.823  0.00  0.00    +0.031 A 
ATOM     32  C   UNL     1      -2.402   2.540   6.106  0.00  0.00    +0.004 A 
ATOM     33  C   UNL     1      -2.785   1.218   6.273  0.00  0.00    +0.020 A 
ATOM     34  C   UNL     1      -2.912   0.401   5.160  0.00  0.00    +0.111 A 
ATOM     35  N   UNL     1      -2.674   0.863   3.952  0.00  0.00    -0.252 NA
ENDBRANCH  28  30
ENDBRANCH   8  28
TORSDOF 4
