REMARK  Name = ZINC39654242
REMARK  7 active torsions:
REMARK  status: ('A' for Active; 'I' for Inactive)
REMARK    1  A    between atoms: C_1  and  C_2
REMARK    2  A    between atoms: C_2  and  C_3
REMARK    3  A    between atoms: C_6  and  C_9
REMARK    4  A    between atoms: C_9  and  C_10
REMARK    5  A    between atoms: C_10  and  N_11
REMARK    6  A    between atoms: C_12  and  C_14
REMARK    7  A    between atoms: C_25  and  C_27
REMARK                            x       y       z     vdW  Elec       q    Type
REMARK                         _______ _______ _______ _____ _____    ______ ____
ROOT
ATOM      1  C   UNL     1       5.161  -0.950  -9.057  0.00  0.00    +0.100 C 
ATOM      2  C   UNL     1       4.155  -1.783  -9.884  0.00  0.00    +0.121 C 
ATOM      3  N   UNL     1       3.532  -0.807 -10.809  0.00  0.00    -0.296 N 
ATOM      4  C   UNL     1       4.650   0.075 -11.221  0.00  0.00    +0.115 C 
ATOM      5  C   UNL     1       5.485   0.267  -9.940  0.00  0.00    -0.004 C 
ATOM      6  C   UNL     1       5.078   1.556  -9.233  0.00  0.00    -0.010 C 
ATOM      7  C   UNL     1       5.462   2.754 -10.105  0.00  0.00    -0.082 C 
ATOM      8  N   UNL     1       6.910   2.741 -10.347  0.00  0.00    +0.379 N 
ATOM      9  C   UNL     1       7.281   1.542 -11.108  0.00  0.00    -0.082 C 
ATOM     10  C   UNL     1       6.973   0.293 -10.278  0.00  0.00    -0.010 C 
ATOM     11  C   UNL     1       2.241  -0.738 -11.190  0.00  0.00    +0.247 C 
ATOM     12  O   UNL     1       1.898   0.072 -12.029  0.00  0.00    -0.270 OA
ATOM     13  H   UNL     1       7.170   3.564 -10.870  0.00  0.00    -0.086 HD
ATOM     14  H   UNL     1       7.397   2.740  -9.463  0.00  0.00    -0.086 HD
ENDROOT
BRANCH  11  15
ATOM     15  C   UNL     1       1.244  -1.645 -10.587  0.00  0.00    +0.045 A 
ATOM     16  C   UNL     1       1.486  -3.023 -10.539  0.00  0.00    +0.014 A 
ATOM     17  C   UNL     1       0.557  -3.872  -9.977  0.00  0.00    +0.001 A 
ATOM     18  C   UNL     1      -0.626  -3.372  -9.454  0.00  0.00    +0.012 A 
ATOM     19  C   UNL     1      -0.886  -2.007  -9.492  0.00  0.00    +0.031 A 
ATOM     20  C   UNL     1       0.054  -1.130 -10.056  0.00  0.00    +0.006 A 
ATOM     21  C   UNL     1      -0.470   0.256  -9.960  0.00  0.00    -0.006 A 
ATOM     22  C   UNL     1       0.056   1.475 -10.366  0.00  0.00    +0.009 A 
ATOM     23  C   UNL     1      -0.657   2.644 -10.149  0.00  0.00    +0.001 A 
ATOM     24  C   UNL     1      -1.892   2.606  -9.531  0.00  0.00    +0.001 A 
ATOM     25  C   UNL     1      -2.430   1.397  -9.120  0.00  0.00    +0.012 A 
ATOM     26  C   UNL     1      -1.726   0.218  -9.331  0.00  0.00    +0.030 A 
ATOM     27  C   UNL     1      -2.037  -1.199  -9.024  0.00  0.00    +0.194 C 
ATOM     28  O   UNL     1      -3.038  -1.616  -8.479  0.00  0.00    -0.287 OA
ENDBRANCH  11  15
BRANCH   1  30
ATOM     29  N   UNL     1       5.302  -0.317  -6.670  0.00  0.00    -0.315 N 
ATOM     30  C   UNL     1       4.533  -0.506  -7.761  0.00  0.00    +0.218 C 
ATOM     31  O   UNL     1       3.337  -0.318  -7.700  0.00  0.00    -0.275 OA
ATOM     32  H   UNL     1       6.259  -0.467  -6.720  0.00  0.00    +0.149 HD
BRANCH  29  33
ATOM     33  C   UNL     1       4.692   0.115  -5.410  0.00  0.00    +0.109 C 
BRANCH  33  34
ATOM     34  C   UNL     1       5.777   0.253  -4.340  0.00  0.00    +0.054 C 
BRANCH  34  38
ATOM     35  C   UNL     1       4.001   1.512  -0.665  0.00  0.00    -0.048 A 
ATOM     36  C   UNL     1       4.124   0.165  -0.947  0.00  0.00    +0.004 A 
ATOM     37  C   UNL     1       4.698  -0.243  -2.136  0.00  0.00    +0.004 A 
ATOM     38  C   UNL     1       5.149   0.697  -3.044  0.00  0.00    -0.046 A 
ATOM     39  C   UNL     1       5.025   2.045  -2.762  0.00  0.00    +0.004 A 
ATOM     40  C   UNL     1       4.447   2.452  -1.575  0.00  0.00    +0.004 A 
BRANCH  35  42
ATOM     41  C   UNL     1       1.864   2.114   0.441  0.00  0.00    +0.009 C 
ATOM     42  C   UNL     1       3.374   1.957   0.632  0.00  0.00    +0.032 C 
ENDBRANCH  35  42
ENDBRANCH  34  38
ENDBRANCH  33  34
ENDBRANCH  29  33
ENDBRANCH   1  30
TORSDOF 6
