REMARK  Name = ZINC12309720
REMARK  11 active torsions:
REMARK  status: ('A' for Active; 'I' for Inactive)
REMARK    1  A    between atoms: C_1  and  C_2
REMARK    2  A    between atoms: C_2  and  C_3
REMARK    3  A    between atoms: C_3  and  C_4
REMARK    4  A    between atoms: C_10  and  N_11
REMARK    5  A    between atoms: N_11  and  O_12
REMARK    6  A    between atoms: O_12  and  C_13
REMARK    7  A    between atoms: C_13  and  C_14
REMARK    8  A    between atoms: N_16  and  C_17
REMARK    9  A    between atoms: C_19  and  C_24
REMARK   10  A    between atoms: N_30  and  C_35
REMARK   11  A    between atoms: N_33  and  C_34
REMARK                            x       y       z     vdW  Elec       q    Type
REMARK                         _______ _______ _______ _____ _____    ______ ____
ROOT
ATOM      1  N   UNL     1      -1.135   2.175  -0.035  0.00  0.00    -0.264 N 
ATOM      2  H   UNL     1      -2.019   1.780  -0.559  0.00  0.00    +0.194 HD
ENDROOT
BRANCH   1   9
ATOM      3  C   UNL     1       0.043   0.062  -0.342  0.00  0.00    -0.005 A 
ATOM      4  C   UNL     1       1.192  -0.597  -0.123  0.00  0.00    +0.090 A 
ATOM      5  N   UNL     1       2.311   0.038   0.346  0.00  0.00    -0.347 N 
ATOM      6  H   UNL     1       3.156  -0.551   0.733  0.00  0.00    +0.167 HD
ATOM      7  C   UNL     1       2.423   1.393   0.353  0.00  0.00    +0.129 A 
ATOM      8  C   UNL     1       1.294   2.183   0.153  0.00  0.00    +0.106 A 
ATOM      9  C   UNL     1      -0.001   1.513  -0.070  0.00  0.00    +0.082 A 
ATOM     10  C   UNL     1       1.418   3.591   0.170  0.00  0.00    +0.268 A 
ATOM     11  O   UNL     1       0.444   4.302   0.000  0.00  0.00    -0.267 OA
ATOM     12  N   UNL     1       2.638   4.134   0.377  0.00  0.00    -0.263 N 
ATOM     13  C   UNL     1       3.715   3.352   0.564  0.00  0.00    +0.333 A 
ATOM     14  O   UNL     1       4.798   3.874   0.745  0.00  0.00    -0.246 OA
ATOM     15  N   UNL     1       3.631   2.009   0.555  0.00  0.00    -0.282 N 
ATOM     16  C   UNL     1       4.836   1.202   0.763  0.00  0.00    +0.155 C 
ATOM     17  C   UNL     1       2.788   5.591   0.399  0.00  0.00    +0.157 C 
BRANCH   3  18
ATOM     18  C   UNL     1      -1.176  -0.663  -0.852  0.00  0.00    +0.038 C 
BRANCH  18  20
ATOM     19  C   UNL     1      -1.977  -2.582  -2.237  0.00  0.00    +0.004 C 
ATOM     20  C   UNL     1      -0.740  -1.846  -1.719  0.00  0.00    +0.001 C 
ENDBRANCH  18  20
ENDBRANCH   3  18
ENDBRANCH   1   9
BRANCH   1  21
ATOM     21  O   UNL     1      -1.221   3.396   0.676  0.00  0.00    -0.265 OA
BRANCH  21  22
ATOM     22  C   UNL     1      -2.512   4.006   0.630  0.00  0.00    +0.288 C 
BRANCH  22  23
ATOM     23  C   UNL     1      -2.489   5.292   1.415  0.00  0.00    +0.246 C 
ATOM     24  O   UNL     1      -1.467   5.650   1.962  0.00  0.00    -0.273 OA
ATOM     25  N   UNL     1      -3.603   6.044   1.511  0.00  0.00    -0.282 N 
ATOM     26  H   UNL     1      -4.550   5.681   1.085  0.00  0.00    +0.155 HD
BRANCH  25  27
ATOM     27  C   UNL     1      -3.556   7.287   2.154  0.00  0.00    +0.052 A 
ATOM     28  C   UNL     1      -2.409   8.066   2.078  0.00  0.00    +0.037 A 
ATOM     29  C   UNL     1      -2.367   9.294   2.709  0.00  0.00    +0.057 A 
ATOM     30  C   UNL     1      -3.462   9.744   3.424  0.00  0.00    +0.014 A 
ATOM     31  C   UNL     1      -4.604   8.969   3.506  0.00  0.00    +0.022 A 
ATOM     32  C   UNL     1      -4.655   7.741   2.873  0.00  0.00    +0.062 A 
ATOM     33 CL   UNL     1      -6.089   6.769   2.975  0.00  0.00    -0.082 Cl
BRANCH  29  34
ATOM     34  C   UNL     1      -1.125  10.142   2.622  0.00  0.00    +0.417 C 
ATOM     35  F   UNL     1      -1.319  11.328   3.340  0.00  0.00    -0.166 F 
ATOM     36  F   UNL     1      -0.043   9.441   3.164  0.00  0.00    -0.166 F 
ATOM     37  F   UNL     1      -0.860  10.446   1.283  0.00  0.00    -0.166 F 
ENDBRANCH  29  34
ENDBRANCH  25  27
ENDBRANCH  22  23
ENDBRANCH  21  22
ENDBRANCH   1  21
TORSDOF 8
