REMARK  Name = ZINC01922769
REMARK  6 active torsions:
REMARK  status: ('A' for Active; 'I' for Inactive)
REMARK    1  A    between atoms: C_4  and  C_7
REMARK    2  A    between atoms: C_7  and  S_8
REMARK    3  A    between atoms: S_8  and  C_9
REMARK    4  A    between atoms: N_13  and  C_14
REMARK    5  A    between atoms: C_14  and  C_15
REMARK    6  A    between atoms: N_17  and  C_18
REMARK                            x       y       z     vdW  Elec       q    Type
REMARK                         _______ _______ _______ _____ _____    ______ ____
ROOT
ATOM      1  C   UNL     1      -3.392   2.077   0.037  0.00  0.00    +0.194 A 
ATOM      2  N   UNL     1      -2.749   3.219   0.038  0.00  0.00    -0.121 NA
ATOM      3  N   UNL     1      -1.376   2.942   0.025  0.00  0.00    -0.113 NA
ATOM      4  C   UNL     1      -1.225   1.641   0.009  0.00  0.00    +0.216 A 
ATOM      5  N   UNL     1      -2.466   1.071   0.019  0.00  0.00    -0.282 N 
ATOM      6  N   UNL     1      -0.015   0.960  -0.010  0.00  0.00    -0.328 N 
ATOM      7  H   UNL     1      -0.004  -0.010  -0.017  0.00  0.00    +0.145 HD
ATOM      8  H   UNL     1       0.820   1.454  -0.020  0.00  0.00    +0.145 HD
ENDROOT
BRANCH   1   9
ATOM      9  S   UNL     1      -5.142   1.873   0.057  0.00  0.00    -0.081 S 
BRANCH   9  10
ATOM     10  C   UNL     1      -5.781   3.571   0.077  0.00  0.00    +0.112 C 
BRANCH  10  14
ATOM     11  C   UNL     1     -10.052   3.485   0.127  0.00  0.00    +0.000 A 
ATOM     12  C   UNL     1      -9.347   3.490   1.316  0.00  0.00    +0.000 A 
ATOM     13  C   UNL     1      -7.965   3.518   1.300  0.00  0.00    +0.004 A 
ATOM     14  C   UNL     1      -7.288   3.541   0.094  0.00  0.00    -0.037 A 
ATOM     15  C   UNL     1      -7.993   3.541  -1.095  0.00  0.00    +0.004 A 
ATOM     16  C   UNL     1      -9.375   3.508  -1.078  0.00  0.00    +0.000 A 
ENDBRANCH  10  14
ENDBRANCH   9  10
ENDBRANCH   1   9
BRANCH   5  17
ATOM     17  C   UNL     1      -2.755  -0.365   0.013  0.00  0.00    +0.223 C 
BRANCH  17  18
ATOM     18  C   UNL     1      -2.837  -0.867   1.431  0.00  0.00    +0.237 C 
ATOM     19  O   UNL     1      -2.670  -0.101   2.356  0.00  0.00    -0.274 OA
ATOM     20  N   UNL     1      -3.095  -2.168   1.671  0.00  0.00    -0.284 N 
ATOM     21  H   UNL     1      -3.294  -2.767   0.935  0.00  0.00    +0.155 HD
BRANCH  20  22
ATOM     22  C   UNL     1      -3.075  -2.655   2.983  0.00  0.00    +0.034 A 
ATOM     23  C   UNL     1      -2.624  -3.942   3.241  0.00  0.00    +0.024 A 
ATOM     24  C   UNL     1      -2.600  -4.418   4.538  0.00  0.00    +0.017 A 
ATOM     25  C   UNL     1      -3.036  -3.616   5.578  0.00  0.00    +0.018 A 
ATOM     26  C   UNL     1      -3.492  -2.335   5.323  0.00  0.00    +0.017 A 
ATOM     27  C   UNL     1      -3.512  -1.853   4.029  0.00  0.00    +0.024 A 
ATOM     28 BR   UNL     1      -3.008  -4.273   7.351  0.00  0.00    -0.050 Br
ENDBRANCH  20  22
ENDBRANCH  17  18
ENDBRANCH   5  17
TORSDOF 6
