REMARK  Name = ZINC39710262
REMARK  13 active torsions:
REMARK  status: ('A' for Active; 'I' for Inactive)
REMARK    1  A    between atoms: C_1  and  C_2
REMARK    2  A    between atoms: C_2  and  C_3
REMARK    3  A    between atoms: C_3  and  C_4
REMARK    4  A    between atoms: C_3  and  C_5
REMARK    5  A    between atoms: C_3  and  N_6
REMARK    6  A    between atoms: C_7  and  C_12
REMARK    7  A    between atoms: C_12  and  C_14
REMARK    8  A    between atoms: C_12  and  N_27
REMARK    9  A    between atoms: C_19  and  C_26
REMARK   10  A    between atoms: N_27  and  C_28
REMARK   11  A    between atoms: N_27  and  C_35
REMARK   12  A    between atoms: C_28  and  C_29
REMARK   13  A    between atoms: C_35  and  C_36
REMARK                            x       y       z     vdW  Elec       q    Type
REMARK                         _______ _______ _______ _____ _____    ______ ____
ROOT
ATOM      1  C   UNL     1       0.795  -1.924  -2.526  0.00  0.00    -0.008 C 
ENDROOT
BRANCH   1   2
ATOM      2  C   UNL     1      -0.541  -1.427  -3.082  0.00  0.00    +0.088 C 
ATOM      3  C   UNL     1      -1.472  -2.620  -3.189  0.00  0.00    -0.006 C 
ATOM      4  C   UNL     1      -1.984  -2.903  -4.420  0.00  0.00    -0.007 A 
ATOM      5  C   UNL     1      -2.890  -4.036  -4.614  0.00  0.00    +0.012 A 
ATOM      6  C   UNL     1      -3.375  -4.282  -5.858  0.00  0.00    -0.050 A 
ATOM      7  C   UNL     1      -3.029  -3.478  -6.945  0.00  0.00    +0.005 A 
ATOM      8  C   UNL     1      -2.193  -2.413  -6.831  0.00  0.00    +0.024 A 
ATOM      9  C   UNL     1      -1.635  -2.072  -5.586  0.00  0.00    +0.040 A 
ATOM     10  N   UNL     1      -0.817  -1.024  -5.486  0.00  0.00    -0.285 N 
ATOM     11  C   UNL     1      -0.257  -0.651  -4.348  0.00  0.00    +0.223 C 
ATOM     12  O   UNL     1       0.482   0.314  -4.320  0.00  0.00    -0.275 OA
ATOM     13  C   UNL     1      -4.309  -5.446  -6.069  0.00  0.00    +0.044 C 
ATOM     14  H   UNL     1      -0.622  -0.513  -6.287  0.00  0.00    +0.155 HD
ENDBRANCH   1   2
BRANCH   1  16
ATOM     15  N   UNL     1       0.615  -0.396  -0.593  0.00  0.00    -0.182 NA
ATOM     16  C   UNL     1       1.466  -0.801  -1.732  0.00  0.00    +0.205 C 
ATOM     17  N   UNL     1       2.708  -1.280  -1.111  0.00  0.00    -0.152 NA
ATOM     18  N   UNL     1       2.608  -1.178   0.113  0.00  0.00    -0.070 NA
ATOM     19  N   UNL     1       1.379  -0.654   0.515  0.00  0.00    -0.179 N 
ATOM     20  H   UNL     1       1.109  -0.497   1.433  0.00  0.00    +0.191 HD
BRANCH  15  21
ATOM     21  C   UNL     1       0.271   1.030  -0.674  0.00  0.00    +0.037 C 
ATOM     22  C   UNL     1      -0.751   1.245  -1.792  0.00  0.00    +0.029 C 
ATOM     23  C   UNL     1       1.532   1.843  -0.972  0.00  0.00    +0.029 C 
BRANCH  21  25
ATOM     24  C   UNL     1      -0.685   2.972   0.574  0.00  0.00    +0.006 C 
ATOM     25  C   UNL     1      -0.327   1.487   0.658  0.00  0.00    +0.020 C 
ENDBRANCH  21  25
ENDBRANCH  15  21
ENDBRANCH   1  16
BRANCH   1  26
ATOM     26  N   UNL     1       1.668  -2.326  -3.637  0.00  0.00    +0.392 N 
ATOM     27  H   UNL     1       1.776  -1.554  -4.277  0.00  0.00    -0.080 HD
BRANCH  26  28
ATOM     28  C   UNL     1       1.068  -3.467  -4.342  0.00  0.00    -0.042 C 
BRANCH  28  29
ATOM     29  C   UNL     1       1.885  -3.785  -5.568  0.00  0.00    -0.064 A 
ATOM     30  C   UNL     1       2.164  -2.793  -6.490  0.00  0.00    +0.002 A 
ATOM     31  C   UNL     1       2.913  -3.085  -7.614  0.00  0.00    +0.000 A 
ATOM     32  C   UNL     1       3.383  -4.368  -7.817  0.00  0.00    +0.000 A 
ATOM     33  C   UNL     1       3.105  -5.360  -6.895  0.00  0.00    +0.000 A 
ATOM     34  C   UNL     1       2.360  -5.067  -5.769  0.00  0.00    +0.002 A 
ENDBRANCH  28  29
ENDBRANCH  26  28
BRANCH  26  35
ATOM     35  C   UNL     1       2.984  -2.714  -3.110  0.00  0.00    -0.002 C 
BRANCH  35  36
ATOM     36  C   UNL     1       2.816  -3.832  -2.114  0.00  0.00    +0.089 A 
ATOM     37  C   UNL     1       3.545  -4.962  -2.070  0.00  0.00    +0.042 A 
ATOM     38  C   UNL     1       3.053  -5.725  -0.986  0.00  0.00    +0.041 A 
ATOM     39  C   UNL     1       2.053  -5.016  -0.432  0.00  0.00    +0.195 A 
ATOM     40  O   UNL     1       1.918  -3.868  -1.116  0.00  0.00    -0.470 OA
ENDBRANCH  35  36
ENDBRANCH  26  35
ENDBRANCH   1  26
TORSDOF 9
