REMARK  Name = ZINC00427671
REMARK  6 active torsions:
REMARK  status: ('A' for Active; 'I' for Inactive)
REMARK    1  A    between atoms: C_1  and  C_2
REMARK    2  A    between atoms: C_2  and  O_3
REMARK    3  A    between atoms: O_3  and  C_4
REMARK    4  A    between atoms: C_4  and  C_6
REMARK    5  A    between atoms: C_7  and  C_25
REMARK    6  A    between atoms: C_13  and  C_18
REMARK                            x       y       z     vdW  Elec       q    Type
REMARK                         _______ _______ _______ _____ _____    ______ ____
ROOT
ATOM      1  C   UNL     1       1.246   1.962   0.001  0.00  0.00    +0.128 A 
ATOM      2  C   UNL     1       2.501   1.418  -0.009  0.00  0.00    -0.008 A 
ATOM      3  C   UNL     1       3.402   2.489  -0.017  0.00  0.00    +0.042 A 
ATOM      4  C   UNL     1       2.657   3.669  -0.005  0.00  0.00    +0.028 A 
ATOM      5  N   UNL     1       1.366   3.339   0.007  0.00  0.00    -0.352 N 
ATOM      6  H   UNL     1       0.627   3.967   0.019  0.00  0.00    +0.166 HD
ATOM      7  C   UNL     1       3.292   5.037  -0.009  0.00  0.00    +0.062 C 
ATOM      8  C   UNL     1       4.727   4.925  -0.532  0.00  0.00    +0.032 C 
ATOM      9  C   UNL     1       5.506   3.860   0.247  0.00  0.00    +0.088 C 
ATOM     10  C   UNL     1       4.873   2.505  -0.028  0.00  0.00    +0.166 C 
ATOM     11  O   UNL     1       5.533   1.509  -0.240  0.00  0.00    -0.292 OA
ATOM     12  C   UNL     1       2.846  -0.049  -0.013  0.00  0.00    +0.047 C 
ENDROOT
BRANCH   8  13
ATOM     13  C   UNL     1       5.417   6.256  -0.377  0.00  0.00    -0.043 A 
ATOM     14  C   UNL     1       5.552   6.823   0.877  0.00  0.00    +0.005 A 
ATOM     15  C   UNL     1       6.189   8.041   1.020  0.00  0.00    +0.020 A 
ATOM     16  C   UNL     1       6.681   8.699  -0.094  0.00  0.00    +0.041 A 
ATOM     17  C   UNL     1       6.541   8.134  -1.349  0.00  0.00    +0.020 A 
ATOM     18  C   UNL     1       5.908   6.913  -1.490  0.00  0.00    +0.005 A 
ATOM     19 CL   UNL     1       7.476  10.232   0.085  0.00  0.00    -0.084 Cl
ENDBRANCH   8  13
BRANCH   1  20
ATOM     20  C   UNL     1      -0.014   1.212   0.009  0.00  0.00    +0.356 C 
ATOM     21  O   UNL     1       0.002  -0.004   0.002  0.00  0.00    -0.243 OA
BRANCH  20  22
ATOM     22  O   UNL     1      -1.191   1.870   0.018  0.00  0.00    -0.460 OA
BRANCH  22  24
ATOM     23  C   UNL     1      -3.624   1.978   0.030  0.00  0.00    +0.048 C 
ATOM     24  C   UNL     1      -2.398   1.063   0.019  0.00  0.00    +0.229 C 
ENDBRANCH  22  24
ENDBRANCH  20  22
ENDBRANCH   1  20
TORSDOF 4
