REMARK  Name = ZINC59434890
REMARK  5 active torsions:
REMARK  status: ('A' for Active; 'I' for Inactive)
REMARK    1  A    between atoms: C_6  and  N_7
REMARK    2  A    between atoms: C_11  and  S_14
REMARK    3  A    between atoms: S_14  and  C_15
REMARK    4  A    between atoms: C_15  and  C_16
REMARK    5  A    between atoms: N_18  and  C_19
REMARK                            x       y       z     vdW  Elec       q    Type
REMARK                         _______ _______ _______ _____ _____    ______ ____
ROOT
ATOM      1  S   UNL     1       6.236   0.689  -0.030  0.00  0.00    -0.079 S 
ENDROOT
BRANCH   1   9
ATOM      2  C   UNL     1      -0.014   1.385   0.081  0.00  0.00    +0.035 A 
ATOM      3  C   UNL     1       1.166   2.100   0.065  0.00  0.00    +0.030 A 
ATOM      4  C   UNL     1       2.379   1.429   0.040  0.00  0.00    +0.067 A 
ATOM      5  C   UNL     1       2.403   0.024   0.030  0.00  0.00    +0.092 A 
ATOM      6  C   UNL     1       1.200  -0.684   0.046  0.00  0.00    +0.062 A 
ATOM      7  C   UNL     1       0.004  -0.001   0.071  0.00  0.00    +0.128 A 
ATOM      8  N   UNL     1       3.708  -0.353   0.005  0.00  0.00    -0.222 NA
ATOM      9  C   UNL     1       4.474   0.710  -0.001  0.00  0.00    +0.168 A 
ATOM     10  N   UNL     1       3.702   1.838   0.020  0.00  0.00    -0.333 N 
ATOM     11  H   UNL     1       4.022   2.754   0.021  0.00  0.00    +0.168 HD
BRANCH   7  12
ATOM     12  N   UNL     1      -1.271  -0.753   0.087  0.00  0.00    +0.056 N 
ATOM     13  O   UNL     1      -2.323  -0.158   0.110  0.00  0.00    -0.126 OA
ATOM     14  O   UNL     1      -1.260  -1.962   0.079  0.00  0.00    -0.126 OA
ENDBRANCH   7  12
ENDBRANCH   1   9
BRANCH   1  15
ATOM     15  C   UNL     1       6.653  -1.076  -0.049  0.00  0.00    +0.173 C 
BRANCH  15  16
ATOM     16  C   UNL     1       8.151  -1.237  -0.075  0.00  0.00    +0.228 C 
ATOM     17  O   UNL     1       8.867  -0.258  -0.080  0.00  0.00    -0.275 OA
ATOM     18  N   UNL     1       8.696  -2.470  -0.092  0.00  0.00    -0.284 N 
ATOM     19  H   UNL     1       8.127  -3.253  -0.023  0.00  0.00    +0.155 HD
BRANCH  18  20
ATOM     20  C   UNL     1      10.082  -2.621  -0.211  0.00  0.00    +0.049 A 
ATOM     21  C   UNL     1      10.936  -1.697   0.377  0.00  0.00    +0.039 A 
ATOM     22  C   UNL     1      12.304  -1.849   0.258  0.00  0.00    +0.020 A 
ATOM     23  C   UNL     1      12.824  -2.920  -0.447  0.00  0.00    +0.016 A 
ATOM     24  C   UNL     1      11.977  -3.841  -1.034  0.00  0.00    +0.018 A 
ATOM     25  C   UNL     1      10.608  -3.698  -0.914  0.00  0.00    +0.039 A 
ATOM     26 BR   UNL     1       9.450  -4.963  -1.711  0.00  0.00    -0.048 Br
ATOM     27 BR   UNL     1      13.467  -0.592   1.059  0.00  0.00    -0.050 Br
ENDBRANCH  18  20
ENDBRANCH  15  16
ENDBRANCH   1  15
TORSDOF 5
