REMARK  Name = ZINC12134793
REMARK  9 active torsions:
REMARK  status: ('A' for Active; 'I' for Inactive)
REMARK    1  A    between atoms: C_3  and  C_8
REMARK    2  A    between atoms: C_8  and  C_9
REMARK    3  A    between atoms: C_9  and  N_10
REMARK    4  A    between atoms: C_11  and  C_13
REMARK    5  A    between atoms: C_17  and  C_22
REMARK    6  A    between atoms: C_22  and  O_35
REMARK    7  A    between atoms: C_27  and  C_28
REMARK    8  A    between atoms: C_27  and  N_65
REMARK    9  A    between atoms: C_29  and  C_30
REMARK                            x       y       z     vdW  Elec       q    Type
REMARK                         _______ _______ _______ _____ _____    ______ ____
ROOT
ATOM      1  C   UNL     1      -5.630   2.650  -8.402  0.00  0.00    +0.190 A 
ATOM      2  C   UNL     1      -5.395   1.577  -7.604  0.00  0.00    +0.063 A 
ATOM      3  C   UNL     1      -4.365   1.996  -6.654  0.00  0.00    +0.021 A 
ATOM      4  C   UNL     1      -3.699   1.366  -5.600  0.00  0.00    +0.018 A 
ATOM      5  C   UNL     1      -2.763   2.056  -4.882  0.00  0.00    -0.015 A 
ATOM      6  C   UNL     1      -2.463   3.373  -5.201  0.00  0.00    +0.010 A 
ATOM      7  C   UNL     1      -3.105   4.011  -6.240  0.00  0.00    +0.047 A 
ATOM      8  C   UNL     1      -4.065   3.331  -6.981  0.00  0.00    +0.136 A 
ATOM      9  O   UNL     1      -4.841   3.679  -8.026  0.00  0.00    -0.450 OA
ENDROOT
BRANCH   5  10
ATOM     10  C   UNL     1      -2.047   1.380  -3.741  0.00  0.00    +0.088 C 
ATOM     11  C   UNL     1      -0.641   1.970  -3.598  0.00  0.00    +0.021 C 
ATOM     12  C   UNL     1       0.058   1.323  -2.400  0.00  0.00    -0.075 C 
ATOM     13  C   UNL     1      -2.061   0.974  -1.278  0.00  0.00    -0.075 C 
ATOM     14  C   UNL     1      -2.824   1.611  -2.442  0.00  0.00    +0.021 C 
ATOM     15  N   UNL     1      -0.726   1.602  -1.178  0.00  0.00    +0.382 N 
ATOM     16  H   UNL     1      -0.842   2.618  -1.082  0.00  0.00    -0.081 HD
BRANCH  10  17
ATOM     17  O   UNL     1      -1.953  -0.022  -4.000  0.00  0.00    -0.384 OA
ATOM     18  H   UNL     1      -2.808  -0.462  -4.102  0.00  0.00    +0.211 HD
ENDBRANCH  10  17
BRANCH  15  19
ATOM     19  C   UNL     1      -0.013   1.086   0.008  0.00  0.00    -0.051 C 
BRANCH  19  20
ATOM     20  C   UNL     1      -0.718   1.572   1.248  0.00  0.00    -0.042 C 
ATOM     21  C   UNL     1      -1.115   0.701   2.171  0.00  0.00    +0.040 C 
BRANCH  21  22
ATOM     22  C   UNL     1      -1.804   1.175   3.381  0.00  0.00    +0.127 A 
ATOM     23  C   UNL     1      -2.265   0.394   4.397  0.00  0.00    +0.049 A 
ATOM     24  C   UNL     1      -2.849   1.260   5.342  0.00  0.00    +0.042 A 
ATOM     25  C   UNL     1      -2.725   2.513   4.860  0.00  0.00    +0.195 A 
ATOM     26  O   UNL     1      -2.093   2.458   3.676  0.00  0.00    -0.464 OA
ENDBRANCH  21  22
ENDBRANCH  19  20
ENDBRANCH  15  19
ENDBRANCH   5  10
BRANCH   1  28
ATOM     27  N   UNL     1      -6.748   3.812 -10.234  0.00  0.00    -0.309 N 
ATOM     28  C   UNL     1      -6.598   2.687  -9.507  0.00  0.00    +0.279 C 
ATOM     29  O   UNL     1      -7.264   1.702  -9.765  0.00  0.00    -0.267 OA
ATOM     30  H   UNL     1      -6.218   4.597 -10.028  0.00  0.00    +0.149 HD
BRANCH  27  31
ATOM     31  C   UNL     1      -7.713   3.848 -11.336  0.00  0.00    +0.109 C 
BRANCH  31  32
ATOM     32  C   UNL     1      -7.686   5.230 -11.992  0.00  0.00    +0.054 C 
BRANCH  32  35
ATOM     33  C   UNL     1      -9.195   4.943 -15.441  0.00  0.00    +0.003 A 
ATOM     34  C   UNL     1      -8.284   4.915 -14.402  0.00  0.00    +0.004 A 
ATOM     35  C   UNL     1      -8.679   5.268 -13.125  0.00  0.00    -0.043 A 
ATOM     36  C   UNL     1      -9.983   5.661 -12.889  0.00  0.00    +0.042 A 
ATOM     37  C   UNL     1     -10.895   5.695 -13.930  0.00  0.00    +0.124 A 
ATOM     38  C   UNL     1     -10.499   5.336 -15.207  0.00  0.00    +0.038 A 
ATOM     39  F   UNL     1     -12.169   6.080 -13.700  0.00  0.00    -0.205 F 
ENDBRANCH  32  35
ENDBRANCH  31  32
ENDBRANCH  27  31
ENDBRANCH   1  28
TORSDOF 9
