REMARK  Name = ZINC35640718
REMARK  13 active torsions:
REMARK  status: ('A' for Active; 'I' for Inactive)
REMARK    1  A    between atoms: C_1  and  C_2
REMARK    2  A    between atoms: C_2  and  N_3
REMARK    3  A    between atoms: C_4  and  C_26
REMARK    4  A    between atoms: C_5  and  C_21
REMARK    5  A    between atoms: C_6  and  C_11
REMARK    6  A    between atoms: C_14  and  C_17
REMARK    7  A    between atoms: C_17  and  C_18
REMARK    8  A    between atoms: C_17  and  C_19
REMARK    9  A    between atoms: C_17  and  C_20
REMARK   10  A    between atoms: C_21  and  O_23
REMARK   11  A    between atoms: O_23  and  C_24
REMARK   12  A    between atoms: C_24  and  C_25
REMARK   13  A    between atoms: C_26  and  N_27
REMARK                            x       y       z     vdW  Elec       q    Type
REMARK                         _______ _______ _______ _____ _____    ______ ____
ROOT
ATOM      1  N   UNL     1      -1.333  -0.773  -0.178  0.00  0.00    -0.258 N 
ATOM      2  C   UNL     1      -1.809  -0.815   1.102  0.00  0.00    +0.041 C 
ATOM      3  C   UNL     1      -3.117  -1.037   1.352  0.00  0.00    +0.080 C 
ATOM      4  C   UNL     1      -4.038  -1.238   0.166  0.00  0.00    +0.144 C 
ATOM      5  N   UNL     1      -3.426  -1.174  -1.172  0.00  0.00    -0.288 N 
ATOM      6  C   UNL     1      -2.102  -0.938  -1.261  0.00  0.00    +0.307 C 
ATOM      7  O   UNL     1      -1.588  -0.880  -2.361  0.00  0.00    -0.252 OA
ATOM      8  H   UNL     1      -3.964  -1.294  -1.970  0.00  0.00    +0.151 HD
ENDROOT
BRANCH   4   9
ATOM      9  C   UNL     1      -5.118  -0.189   0.233  0.00  0.00    -0.022 A 
ATOM     10  C   UNL     1      -4.862   1.095  -0.209  0.00  0.00    +0.006 A 
ATOM     11  C   UNL     1      -5.853   2.058  -0.148  0.00  0.00    +0.004 A 
ATOM     12  C   UNL     1      -7.099   1.735   0.356  0.00  0.00    -0.042 A 
ATOM     13  C   UNL     1      -7.355   0.450   0.798  0.00  0.00    +0.004 A 
ATOM     14  C   UNL     1      -6.366  -0.513   0.732  0.00  0.00    +0.006 A 
BRANCH  12  15
ATOM     15  C   UNL     1      -8.179   2.784   0.424  0.00  0.00    -0.013 C 
ATOM     16  C   UNL     1      -8.473   3.306  -0.984  0.00  0.00    +0.015 C 
ATOM     17  C   UNL     1      -9.449   2.171   1.016  0.00  0.00    +0.015 C 
ATOM     18  C   UNL     1      -7.710   3.941   1.309  0.00  0.00    +0.015 C 
ENDBRANCH  12  15
ENDBRANCH   4   9
BRANCH   1  20
ATOM     19  C   UNL     1       0.345   0.979  -0.486  0.00  0.00    +0.025 C 
ATOM     20  C   UNL     1       0.097  -0.527  -0.376  0.00  0.00    +0.111 C 
ENDBRANCH   1  20
BRANCH   3  21
ATOM     21  C   UNL     1      -3.611  -1.082   2.677  0.00  0.00    +0.339 C 
ATOM     22  O   UNL     1      -2.875  -0.818   3.610  0.00  0.00    -0.245 OA
BRANCH  21  23
ATOM     23  O   UNL     1      -4.898  -1.416   2.907  0.00  0.00    -0.462 OA
BRANCH  23  24
ATOM     24  C   UNL     1      -5.329  -1.441   4.269  0.00  0.00    +0.229 C 
ATOM     25  C   UNL     1      -6.805  -1.838   4.330  0.00  0.00    +0.048 C 
ENDBRANCH  23  24
ENDBRANCH  21  23
ENDBRANCH   3  21
BRANCH   2  26
ATOM     26  C   UNL     1      -0.858  -0.609   2.253  0.00  0.00    +0.136 C 
BRANCH  26  27
ATOM     27  N   UNL     1      -0.543  -1.907   2.865  0.00  0.00    -0.299 NA
ATOM     28  C   UNL     1       0.108  -2.781   1.919  0.00  0.00    +0.083 C 
ATOM     29  C   UNL     1      -0.313  -4.256   2.073  0.00  0.00    -0.004 C 
ATOM     30  C   UNL     1      -0.409  -4.680   3.551  0.00  0.00    -0.081 C 
ATOM     31  N   UNL     1       0.675  -4.141   4.337  0.00  0.00    +0.380 N 
ATOM     32  C   UNL     1       0.208  -2.889   4.965  0.00  0.00    -0.067 C 
ATOM     33  C   UNL     1       0.300  -1.734   4.074  0.00  0.00    +0.066 C 
ATOM     34  H   UNL     1       0.939  -4.802   5.052  0.00  0.00    -0.086 HD
ATOM     35  H   UNL     1       1.466  -3.949   3.741  0.00  0.00    -0.086 HD
ENDBRANCH  26  27
ENDBRANCH   2  26
TORSDOF 8
