REMARK  Name = ZINC05904273
REMARK  5 active torsions:
REMARK  status: ('A' for Active; 'I' for Inactive)
REMARK    1  A    between atoms: C_1  and  C_2
REMARK    2  A    between atoms: C_2  and  C_3
REMARK    3  A    between atoms: C_3  and  C_4
REMARK    4  A    between atoms: C_9  and  O_10
REMARK    5  A    between atoms: C_13  and  C_16
REMARK                            x       y       z     vdW  Elec       q    Type
REMARK                         _______ _______ _______ _____ _____    ______ ____
ROOT
ATOM      1  C   UNL     1       1.160   2.085   0.002  0.00  0.00    -0.005 A 
ATOM      2  C   UNL     1      -0.017   1.391   0.010  0.00  0.00    +0.022 A 
ATOM      3  C   UNL     1       0.002  -0.004   0.002  0.00  0.00    +0.065 A 
ATOM      4  C   UNL     1       1.224  -0.699  -0.013  0.00  0.00    +0.142 A 
ATOM      5  C   UNL     1       2.411   0.022  -0.020  0.00  0.00    +0.092 A 
ATOM      6  C   UNL     1       2.376   1.406  -0.012  0.00  0.00    +0.124 A 
ATOM      7  O   UNL     1       1.241  -2.046  -0.022  0.00  0.00    -0.462 OA
ATOM      8  C   UNL     1       0.135  -2.793  -0.016  0.00  0.00    +0.209 A 
ATOM      9  C   UNL     1      -1.112  -2.253  -0.001  0.00  0.00    +0.086 A 
ATOM     10  C   UNL     1      -1.248  -0.786   0.009  0.00  0.00    +0.202 A 
ATOM     11  O   UNL     1      -2.340  -0.245   0.023  0.00  0.00    -0.286 OA
ENDROOT
BRANCH   9  12
ATOM     12  C   UNL     1      -2.313  -3.123   0.005  0.00  0.00    +0.120 A 
ATOM     13  C   UNL     1      -2.338  -4.546  -0.009  0.00  0.00    +0.072 A 
ATOM     14  C   UNL     1      -3.655  -4.848   0.007  0.00  0.00    +0.231 A 
ATOM     15  O   UNL     1      -4.318  -3.683   0.020  0.00  0.00    -0.362 OA
ATOM     16  N   UNL     1      -3.565  -2.737   0.019  0.00  0.00    -0.078 NA
ENDBRANCH   9  12
BRANCH   6  17
ATOM     17  O   UNL     1       3.538   2.108  -0.019  0.00  0.00    -0.506 OA
ATOM     18  H   UNL     1       4.501   1.577  -0.031  0.00  0.00    +0.292 HD
ENDBRANCH   6  17
BRANCH   1  19
ATOM     19  C   UNL     1       1.142   3.592   0.010  0.00  0.00    +0.038 C 
BRANCH  19  21
ATOM     20  C   UNL     1       1.381   5.627   1.439  0.00  0.00    +0.004 C 
ATOM     21  C   UNL     1       1.399   4.098   1.431  0.00  0.00    +0.001 C 
ENDBRANCH  19  21
ENDBRANCH   1  19
TORSDOF 4
