REMARK  Name = ZINC35159547
REMARK  16 active torsions:
REMARK  status: ('A' for Active; 'I' for Inactive)
REMARK    1  A    between atoms: C_1  and  C_2
REMARK    2  A    between atoms: C_2  and  C_3
REMARK    3  A    between atoms: C_3  and  C_5
REMARK    4  A    between atoms: C_3  and  S_15
REMARK    5  A    between atoms: N_7  and  C_8
REMARK    6  A    between atoms: C_8  and  C_9
REMARK    7  A    between atoms: C_9  and  N_10
REMARK    8  A    between atoms: S_15  and  C_16
REMARK    9  A    between atoms: C_18  and  C_35
REMARK   10  A    between atoms: C_19  and  C_24
REMARK   11  A    between atoms: N_22  and  C_23
REMARK   12  A    between atoms: C_24  and  C_25
REMARK   13  A    between atoms: C_28  and  C_31
REMARK   14  A    between atoms: C_31  and  C_32
REMARK   15  A    between atoms: C_31  and  C_33
REMARK   16  A    between atoms: C_31  and  C_34
REMARK                            x       y       z     vdW  Elec       q    Type
REMARK                         _______ _______ _______ _____ _____    ______ ____
ROOT
ATOM      1  C   UNL     1      -0.121   1.832   2.428  0.00  0.00    +0.172 A 
ATOM      2  N   UNL     1       0.472   2.389   1.390  0.00  0.00    -0.228 NA
ATOM      3  C   UNL     1       0.452   3.706   1.206  0.00  0.00    +0.050 A 
ATOM      4  C   UNL     1      -0.189   4.514   2.100  0.00  0.00    +0.042 A 
ATOM      5  C   UNL     1      -0.824   3.929   3.210  0.00  0.00    +0.258 A 
ATOM      6  O   UNL     1      -1.407   4.622   4.029  0.00  0.00    -0.267 OA
ATOM      7  N   UNL     1      -0.781   2.587   3.350  0.00  0.00    -0.291 N 
ATOM      8  C   UNL     1      -1.437   1.946   4.492  0.00  0.00    +0.154 C 
ATOM      9  C   UNL     1       1.140   4.308   0.008  0.00  0.00    +0.066 C 
ENDROOT
BRANCH   1  10
ATOM     10  S   UNL     1      -0.065   0.082   2.623  0.00  0.00    -0.075 S 
BRANCH  10  11
ATOM     11  C   UNL     1       0.838  -0.494   1.159  0.00  0.00    +0.140 C 
BRANCH  11  12
ATOM     12  C   UNL     1       2.273  -0.041   1.243  0.00  0.00    +0.226 C 
ATOM     13  O   UNL     1       2.774   0.187   2.324  0.00  0.00    -0.275 OA
ATOM     14  N   UNL     1       2.999   0.110   0.118  0.00  0.00    -0.316 N 
ATOM     15  H   UNL     1       2.599  -0.073  -0.746  0.00  0.00    +0.149 HD
BRANCH  14  16
ATOM     16  C   UNL     1       4.394   0.549   0.200  0.00  0.00    +0.085 C 
BRANCH  16  17
ATOM     17  C   UNL     1       4.985   0.639  -1.208  0.00  0.00    -0.060 C 
BRANCH  17  18
ATOM     18  N   UNL     1       6.384   1.080  -1.126  0.00  0.00    +0.381 N 
ATOM     19  C   UNL     1       7.219   0.019  -0.508  0.00  0.00    -0.079 C 
ATOM     20  C   UNL     1       8.649   0.365  -0.995  0.00  0.00    -0.020 C 
ATOM     21  C   UNL     1       8.411   0.855  -2.442  0.00  0.00    -0.020 C 
ATOM     22  C   UNL     1       6.934   1.288  -2.483  0.00  0.00    -0.079 C 
ATOM     23  H   UNL     1       6.449   1.932  -0.590  0.00  0.00    -0.082 HD
ENDBRANCH  17  18
ENDBRANCH  16  17
ENDBRANCH  14  16
ENDBRANCH  11  12
BRANCH  11  25
ATOM     24  C   UNL     1      -0.656  -2.475   0.870  0.00  0.00    +0.005 C 
ATOM     25  C   UNL     1       0.787  -2.022   1.096  0.00  0.00    +0.020 C 
ENDBRANCH  11  25
ENDBRANCH  10  11
ENDBRANCH   1  10
BRANCH   4  26
ATOM     26  C   UNL     1      -0.216   6.007   1.901  0.00  0.00    +0.077 C 
BRANCH  26  27
ATOM     27  C   UNL     1      -1.487   6.396   1.190  0.00  0.00    -0.043 A 
ATOM     28  C   UNL     1      -1.521   6.439  -0.191  0.00  0.00    +0.004 A 
ATOM     29  C   UNL     1      -2.687   6.796  -0.843  0.00  0.00    +0.004 A 
ATOM     30  C   UNL     1      -3.818   7.110  -0.114  0.00  0.00    -0.042 A 
ATOM     31  C   UNL     1      -3.784   7.067   1.268  0.00  0.00    +0.004 A 
ATOM     32  C   UNL     1      -2.620   6.706   1.919  0.00  0.00    +0.004 A 
BRANCH  30  33
ATOM     33  C   UNL     1      -5.088   7.500  -0.824  0.00  0.00    -0.013 C 
ATOM     34  C   UNL     1      -5.539   6.353  -1.730  0.00  0.00    +0.015 C 
ATOM     35  C   UNL     1      -6.179   7.796   0.207  0.00  0.00    +0.015 C 
ATOM     36  C   UNL     1      -4.836   8.749  -1.671  0.00  0.00    +0.015 C 
ENDBRANCH  30  33
ENDBRANCH  26  27
ENDBRANCH   4  26
TORSDOF 10
