REMARK  Name = ZINC19345576
REMARK  5 active torsions:
REMARK  status: ('A' for Active; 'I' for Inactive)
REMARK    1  A    between atoms: C_6  and  C_7
REMARK    2  A    between atoms: C_7  and  C_9
REMARK    3  A    between atoms: C_7  and  O_28
REMARK    4  A    between atoms: C_9  and  N_10
REMARK    5  A    between atoms: C_17  and  O_27
REMARK                            x       y       z     vdW  Elec       q    Type
REMARK                         _______ _______ _______ _____ _____    ______ ____
ROOT
ATOM      1  N   UNL     1      -0.737   1.942   1.222  0.00  0.00    +0.382 N 
ATOM      2  C   UNL     1      -0.199   1.267   2.411  0.00  0.00    -0.075 C 
ATOM      3  C   UNL     1      -1.062   1.609   3.627  0.00  0.00    +0.029 C 
ATOM      4  C   UNL     1      -1.071   3.125   3.834  0.00  0.00    +0.110 C 
ATOM      5  C   UNL     1      -1.582   3.809   2.564  0.00  0.00    +0.029 C 
ATOM      6  C   UNL     1      -0.703   3.401   1.379  0.00  0.00    -0.075 C 
ATOM      7  C   UNL     1      -1.991   3.476   5.008  0.00  0.00    +0.084 C 
ATOM      8  C   UNL     1      -1.521   2.699   6.240  0.00  0.00    +0.152 C 
ATOM      9  C   UNL     1      -0.029   2.853   6.398  0.00  0.00    +0.024 A 
ATOM     10  C   UNL     1       0.544   2.557   7.624  0.00  0.00    +0.029 A 
ATOM     11  C   UNL     1       1.909   2.676   7.802  0.00  0.00    +0.042 A 
ATOM     12  C   UNL     1       2.709   3.091   6.752  0.00  0.00    +0.023 A 
ATOM     13  C   UNL     1       2.143   3.389   5.530  0.00  0.00    +0.047 A 
ATOM     14  C   UNL     1       0.768   3.273   5.349  0.00  0.00    +0.127 A 
ATOM     15  O   UNL     1       0.247   3.582   4.132  0.00  0.00    -0.485 OA
ATOM     16 CL   UNL     1       2.620   2.305   9.342  0.00  0.00    -0.084 Cl
ATOM     17  H   UNL     1      -1.789   1.640   1.114  0.00  0.00    -0.082 HD
ENDROOT
BRANCH   8  18
ATOM     18  O   UNL     1      -2.177   3.208   7.402  0.00  0.00    -0.387 OA
ATOM     19  H   UNL     1      -1.965   2.772   8.389  0.00  0.00    +0.210 HD
ENDBRANCH   8  18
BRANCH   1  20
ATOM     20  C   UNL     1      -0.019   1.526   0.010  0.00  0.00    -0.042 C 
BRANCH  20  21
ATOM     21  C   UNL     1       0.007  -0.002  -0.068  0.00  0.00    +0.128 C 
BRANCH  21  27
ATOM     22  C   UNL     1       0.048  -0.410  -2.536  0.00  0.00    +0.010 A 
ATOM     23  C   UNL     1       0.695  -0.800  -3.696  0.00  0.00    +0.050 A 
ATOM     24  C   UNL     1       2.017  -1.208  -3.641  0.00  0.00    +0.162 A 
ATOM     25  C   UNL     1       2.688  -1.227  -2.426  0.00  0.00    +0.162 A 
ATOM     26  C   UNL     1       2.040  -0.831  -1.269  0.00  0.00    +0.055 A 
ATOM     27  C   UNL     1       0.718  -0.428  -1.327  0.00  0.00    -0.017 A 
ATOM     28  O   UNL     1       3.991  -1.631  -2.383  0.00  0.00    -0.488 OA
ATOM     29  C   UNL     1       4.225  -3.015  -2.654  0.00  0.00    +0.232 C 
ATOM     30  C   UNL     1       4.314  -3.263  -4.151  0.00  0.00    +0.082 C 
ATOM     31  C   UNL     1       3.002  -2.980  -4.865  0.00  0.00    +0.232 C 
ATOM     32  O   UNL     1       2.666  -1.594  -4.777  0.00  0.00    -0.488 OA
ENDBRANCH  21  27
BRANCH  21  33
ATOM     33  O   UNL     1      -1.333  -0.500  -0.086  0.00  0.00    -0.389 OA
ATOM     34  H   UNL     1      -2.009  -0.289   0.755  0.00  0.00    +0.210 HD
ENDBRANCH  21  33
ENDBRANCH  20  21
ENDBRANCH   1  20
TORSDOF 5
