REMARK  Name = ZINC33692663
REMARK  10 active torsions:
REMARK  status: ('A' for Active; 'I' for Inactive)
REMARK    1  A    between atoms: C_1  and  C_2
REMARK    2  A    between atoms: C_2  and  C_3
REMARK    3  A    between atoms: C_7  and  C_39
REMARK    4  A    between atoms: C_8  and  N_9
REMARK    5  A    between atoms: C_14  and  C_31
REMARK    6  A    between atoms: C_17  and  C_22
REMARK    7  A    between atoms: C_17  and  C_28
REMARK    8  A    between atoms: C_36  and  O_37
REMARK    9  A    between atoms: O_37  and  C_38
REMARK   10  A    between atoms: C_39  and  C_40
REMARK                            x       y       z     vdW  Elec       q    Type
REMARK                         _______ _______ _______ _____ _____    ______ ____
ROOT
ATOM      1  N   UNL     1      -0.934  -1.615  -3.126  0.00  0.00    -0.209 N 
ATOM      2  C   UNL     1      -1.329  -0.625  -2.259  0.00  0.00    +0.229 C 
ATOM      3  O   UNL     1      -2.370  -0.004  -2.269  0.00  0.00    -0.275 OA
ATOM      4  C   UNL     1      -0.229  -0.490  -1.332  0.00  0.00    +0.078 C 
ATOM      5  C   UNL     1       0.029   0.011   0.032  0.00  0.00    -0.023 C 
ATOM      6  N   UNL     1       1.404  -0.533   0.309  0.00  0.00    +0.398 N 
ATOM      7  C   UNL     1       1.610  -1.721  -0.574  0.00  0.00    +0.074 C 
ATOM      8  C   UNL     1       0.246  -1.994  -1.204  0.00  0.00    +0.090 C 
ATOM      9  C   UNL     1       0.150  -2.312  -2.671  0.00  0.00    +0.229 C 
ATOM     10  O   UNL     1       0.881  -3.033  -3.315  0.00  0.00    -0.275 OA
ATOM     11  H   UNL     1       2.155   0.240   0.091  0.00  0.00    -0.083 HD
ATOM     12  H   UNL     1       1.476  -0.826   1.367  0.00  0.00    -0.083 HD
ENDROOT
BRANCH   1  18
ATOM     13  C   UNL     1      -1.164  -1.233  -5.501  0.00  0.00    -0.026 A 
ATOM     14  C   UNL     1      -1.792  -1.503  -6.702  0.00  0.00    +0.005 A 
ATOM     15  C   UNL     1      -2.836  -2.408  -6.749  0.00  0.00    +0.001 A 
ATOM     16  C   UNL     1      -3.251  -3.050  -5.597  0.00  0.00    +0.005 A 
ATOM     17  C   UNL     1      -2.622  -2.790  -4.395  0.00  0.00    -0.026 A 
ATOM     18  C   UNL     1      -1.574  -1.881  -4.344  0.00  0.00    +0.050 A 
BRANCH  13  20
ATOM     19  C   UNL     1       1.302  -0.983  -5.569  0.00  0.00    +0.009 C 
ATOM     20  C   UNL     1      -0.031  -0.241  -5.449  0.00  0.00    +0.033 C 
ENDBRANCH  13  20
BRANCH  17  21
ATOM     21  C   UNL     1      -3.074  -3.491  -3.140  0.00  0.00    +0.033 C 
ATOM     22  C   UNL     1      -4.072  -2.605  -2.392  0.00  0.00    +0.009 C 
ENDBRANCH  17  21
ENDBRANCH   1  18
BRANCH   7  23
ATOM     23  C   UNL     1       2.627  -1.409  -1.642  0.00  0.00    -0.047 A 
ATOM     24  C   UNL     1       2.875  -0.097  -1.999  0.00  0.00    +0.003 A 
ATOM     25  C   UNL     1       3.810   0.188  -2.976  0.00  0.00    +0.000 A 
ATOM     26  C   UNL     1       4.490  -0.839  -3.603  0.00  0.00    +0.000 A 
ATOM     27  C   UNL     1       4.239  -2.151  -3.250  0.00  0.00    +0.000 A 
ATOM     28  C   UNL     1       3.307  -2.437  -2.269  0.00  0.00    +0.003 A 
ENDBRANCH   7  23
BRANCH   5  29
ATOM     29  C   UNL     1       0.031   1.518   0.061  0.00  0.00    -0.019 A 
ATOM     30  C   UNL     1       0.134   2.232  -1.117  0.00  0.00    +0.005 A 
ATOM     31  C   UNL     1       0.134   3.614  -1.091  0.00  0.00    +0.000 A 
ATOM     32  C   UNL     1       0.032   4.285   0.114  0.00  0.00    +0.004 A 
ATOM     33  C   UNL     1      -0.070   3.576   1.294  0.00  0.00    +0.046 A 
ATOM     34  C   UNL     1      -0.077   2.189   1.270  0.00  0.00    +0.122 A 
BRANCH  34  35
ATOM     35  O   UNL     1      -0.184   1.488   2.430  0.00  0.00    -0.495 OA
ATOM     36  C   UNL     1      -0.291   2.246   3.638  0.00  0.00    +0.277 C 
ENDBRANCH  34  35
ENDBRANCH   5  29
BRANCH   7  37
ATOM     37  C   UNL     1       2.057  -2.907   0.241  0.00  0.00    +0.350 C 
ATOM     38  O   UNL     1       1.635  -4.010  -0.015  0.00  0.00    -0.248 OA
ATOM     39  O   UNL     1       2.923  -2.738   1.253  0.00  0.00    -0.248 OA
ENDBRANCH   7  37
TORSDOF 7
