REMARK  Name = ZINC12326530
REMARK  6 active torsions:
REMARK  status: ('A' for Active; 'I' for Inactive)
REMARK    1  A    between atoms: C_1  and  C_2
REMARK    2  A    between atoms: C_12  and  C_14
REMARK    3  A    between atoms: C_14  and  C_16
REMARK    4  A    between atoms: C_14  and  O_28
REMARK    5  A    between atoms: C_16  and  N_59
REMARK    6  A    between atoms: N_19  and  C_23
REMARK                            x       y       z     vdW  Elec       q    Type
REMARK                         _______ _______ _______ _____ _____    ______ ____
ROOT
ATOM      1  C   UNL     1      -1.506   5.226  -2.188  0.00  0.00    +0.128 C 
ENDROOT
BRANCH   1  13
ATOM      2  C   UNL     1      -5.457   7.675  -8.622  0.00  0.00    +0.109 C 
ATOM      3  C   UNL     1      -4.913   7.187  -7.304  0.00  0.00    +0.217 C 
ATOM      4  O   UNL     1      -5.647   6.631  -6.514  0.00  0.00    -0.276 OA
ATOM      5  N   UNL     1      -3.612   7.368  -7.003  0.00  0.00    -0.271 N 
ATOM      6  C   UNL     1      -2.732   8.116  -7.911  0.00  0.00    +0.114 C 
ATOM      7  C   UNL     1      -1.419   7.334  -8.041  0.00  0.00    +0.024 C 
ATOM      8  C   UNL     1      -0.740   7.277  -6.672  0.00  0.00    +0.038 C 
ATOM      9  C   UNL     1      -1.704   6.782  -5.626  0.00  0.00    -0.026 A 
ATOM     10  C   UNL     1      -3.076   6.846  -5.817  0.00  0.00    +0.039 A 
ATOM     11  C   UNL     1      -3.938   6.387  -4.829  0.00  0.00    +0.024 A 
ATOM     12  C   UNL     1      -3.429   5.859  -3.658  0.00  0.00    +0.008 A 
ATOM     13  C   UNL     1      -2.061   5.799  -3.467  0.00  0.00    -0.021 A 
ATOM     14  C   UNL     1      -1.202   6.256  -4.448  0.00  0.00    +0.011 A 
ENDBRANCH   1  13
BRANCH   1  15
ATOM     15  O   UNL     1      -2.366   5.569  -1.100  0.00  0.00    -0.389 OA
ATOM     16  H   UNL     1      -3.269   5.236  -1.193  0.00  0.00    +0.210 HD
ENDBRANCH   1  15
BRANCH   1  17
ATOM     17  C   UNL     1      -1.416   3.704  -2.308  0.00  0.00    -0.042 C 
BRANCH  17  24
ATOM     18  C   UNL     1       0.562   3.366  -0.948  0.00  0.00    -0.059 C 
ATOM     19  C   UNL     1       1.002   3.052   0.483  0.00  0.00    +0.089 C 
ATOM     20  N   UNL     1       0.493   1.744   0.885  0.00  0.00    -0.302 N 
ATOM     21  C   UNL     1      -0.513   1.130   0.257  0.00  0.00    +0.199 C 
ATOM     22  O   UNL     1      -0.894   0.059   0.678  0.00  0.00    -0.278 OA
ATOM     23  C   UNL     1      -1.192   1.711  -0.951  0.00  0.00    +0.019 C 
ATOM     24  N   UNL     1      -0.897   3.154  -1.035  0.00  0.00    +0.388 N 
ATOM     25  H   UNL     1      -1.353   3.636  -0.252  0.00  0.00    -0.081 HD
BRANCH  20  26
ATOM     26  C   UNL     1       1.113   1.074   2.030  0.00  0.00    +0.076 C 
ATOM     27  C   UNL     1       1.641  -0.313   1.609  0.00  0.00    +0.022 C 
ATOM     28  C   UNL     1       1.362  -1.215   2.837  0.00  0.00    +0.002 C 
ATOM     29  C   UNL     1      -0.009  -0.697   3.337  0.00  0.00    +0.002 C 
ATOM     30  C   UNL     1       0.064   0.830   3.129  0.00  0.00    +0.022 C 
ENDBRANCH  20  26
ENDBRANCH  17  24
ENDBRANCH   1  17
TORSDOF 5
