REMARK  Name = ZINC28165791
REMARK  1 active torsions:
REMARK  status: ('A' for Active; 'I' for Inactive)
REMARK    1  A    between atoms: C_4  and  N_8
REMARK                            x       y       z     vdW  Elec       q    Type
REMARK                         _______ _______ _______ _____ _____    ______ ____
ROOT
ATOM      1  N   UNL     1      -1.198  -0.721   0.010  0.00  0.00    -0.298 N 
ATOM      2  C   UNL     1      -2.404  -0.051   0.130  0.00  0.00    +0.135 A 
ATOM      3  C   UNL     1      -3.623  -0.774   0.246  0.00  0.00    +0.051 A 
ATOM      4  C   UNL     1      -3.825  -2.232   0.259  0.00  0.00    -0.025 A 
ATOM      5  C   UNL     1      -5.088  -2.669   0.382  0.00  0.00    -0.004 A 
ATOM      6  S   UNL     1      -6.080  -1.196   0.484  0.00  0.00    -0.073 S 
ATOM      7  C   UNL     1      -4.785   0.009   0.363  0.00  0.00    +0.114 A 
ATOM      8  N   UNL     1      -4.732   1.327   0.362  0.00  0.00    -0.228 NA
ATOM      9  C   UNL     1      -3.571   1.944   0.251  0.00  0.00    +0.224 A 
ATOM     10  N   UNL     1      -2.439   1.272   0.144  0.00  0.00    -0.220 NA
ATOM     11  C   UNL     1      -5.173  -4.172   0.387  0.00  0.00    +0.043 C 
ATOM     12  C   UNL     1      -3.731  -4.640   0.682  0.00  0.00    +0.010 C 
ATOM     13  C   UNL     1      -2.903  -3.451   0.158  0.00  0.00    +0.037 C 
ATOM     14  H   UNL     1      -1.186  -1.816  -0.095  0.00  0.00    +0.154 HD
ENDROOT
BRANCH   1  18
ATOM     15  C   UNL     1       2.383   1.409   0.047  0.00  0.00    +0.021 A 
ATOM     16  C   UNL     1       2.321   0.174  -0.572  0.00  0.00    +0.023 A 
ATOM     17  C   UNL     1       1.135  -0.535  -0.586  0.00  0.00    +0.062 A 
ATOM     18  C   UNL     1       0.003  -0.006   0.023  0.00  0.00    +0.052 A 
ATOM     19  C   UNL     1       0.068   1.234   0.643  0.00  0.00    +0.044 A 
ATOM     20  C   UNL     1       1.258   1.939   0.654  0.00  0.00    +0.043 A 
ATOM     21 CL   UNL     1       1.340   3.489   1.430  0.00  0.00    -0.083 Cl
ATOM     22 CL   UNL     1       1.060  -2.086  -1.363  0.00  0.00    -0.082 Cl
ENDBRANCH   1  18
TORSDOF 1
