REMARK  Name = ZINC24071722
REMARK  11 active torsions:
REMARK  status: ('A' for Active; 'I' for Inactive)
REMARK    1  A    between atoms: C_1  and  C_2
REMARK    2  A    between atoms: C_2  and  N_3
REMARK    3  A    between atoms: N_3  and  C_4
REMARK    4  A    between atoms: N_3  and  C_16
REMARK    5  A    between atoms: C_4  and  C_5
REMARK    6  A    between atoms: N_7  and  C_8
REMARK    7  A    between atoms: C_11  and  O_14
REMARK    8  A    between atoms: O_14  and  C_15
REMARK    9  A    between atoms: C_16  and  C_18
REMARK   10  A    between atoms: C_16  and  C_19
REMARK   11  A    between atoms: N_24  and  C_25
REMARK                            x       y       z     vdW  Elec       q    Type
REMARK                         _______ _______ _______ _____ _____    ______ ____
ROOT
ATOM      1  C   UNL     1       3.457  -6.141   0.359  0.00  0.00    +0.017 C 
ATOM      2  C   UNL     1       2.747  -6.392   1.691  0.00  0.00    -0.004 C 
ENDROOT
BRANCH   1   3
ATOM      3  C   UNL     1       4.849  -6.716   0.415  0.00  0.00    +0.207 C 
ATOM      4  O   UNL     1       5.811  -5.984   0.327  0.00  0.00    -0.277 OA
ATOM      5  N   UNL     1       5.024  -8.044   0.564  0.00  0.00    -0.242 N 
ATOM      6  C   UNL     1       6.269  -8.558   0.614  0.00  0.00    +0.306 C 
ATOM      7  O   UNL     1       7.234  -7.824   0.525  0.00  0.00    -0.252 OA
ATOM      8  N   UNL     1       6.445  -9.886   0.762  0.00  0.00    -0.294 N 
ATOM      9  H   UNL     1       4.151  -8.708   0.643  0.00  0.00    +0.159 HD
ATOM     10  H   UNL     1       5.572 -10.550   0.842  0.00  0.00    +0.151 HD
BRANCH   8  11
ATOM     11  C   UNL     1       7.798 -10.444   0.817  0.00  0.00    +0.037 C 
ATOM     12  C   UNL     1       8.538 -10.117  -0.481  0.00  0.00    +0.029 C 
ATOM     13  C   UNL     1       9.951 -10.700  -0.424  0.00  0.00    -0.008 C 
ATOM     14  C   UNL     1       9.870 -12.218  -0.253  0.00  0.00    +0.007 C 
ATOM     15  C   UNL     1       9.130 -12.546   1.046  0.00  0.00    -0.008 C 
ATOM     16  C   UNL     1       7.716 -11.963   0.988  0.00  0.00    +0.029 C 
ATOM     17  C   UNL     1       9.884 -11.939   2.230  0.00  0.00    +0.007 C 
ATOM     18  C   UNL     1       9.966 -10.421   2.059  0.00  0.00    -0.008 C 
ATOM     19  C   UNL     1      10.706 -10.093   0.760  0.00  0.00    +0.007 C 
ATOM     20  C   UNL     1       8.553  -9.837   2.001  0.00  0.00    +0.029 C 
ENDBRANCH   8  11
ENDBRANCH   1   3
BRANCH   1  21
ATOM     21  N   UNL     1       3.534  -4.696   0.109  0.00  0.00    +0.393 N 
ATOM     22  H   UNL     1       4.243  -4.532  -0.716  0.00  0.00    -0.080 HD
BRANCH  21  24
ATOM     23  C   UNL     1       1.913  -4.635  -1.726  0.00  0.00    -0.017 C 
ATOM     24  C   UNL     1       2.229  -4.163  -0.305  0.00  0.00    -0.081 C 
ENDBRANCH  21  24
BRANCH  21  25
ATOM     25  C   UNL     1       4.042  -3.984   1.289  0.00  0.00    +0.020 C 
BRANCH  25  26
ATOM     26  C   UNL     1       4.339  -2.553   0.923  0.00  0.00    +0.201 C 
ATOM     27  O   UNL     1       4.146  -2.164  -0.209  0.00  0.00    -0.278 OA
ATOM     28  N   UNL     1       4.819  -1.704   1.854  0.00  0.00    -0.287 N 
ATOM     29  H   UNL     1       5.070  -2.076   2.859  0.00  0.00    +0.155 HD
BRANCH  28  30
ATOM     30  C   UNL     1       4.997  -0.350   1.543  0.00  0.00    +0.034 A 
ATOM     31  C   UNL     1       4.770   0.621   2.509  0.00  0.00    +0.027 A 
ATOM     32  C   UNL     1       4.947   1.955   2.202  0.00  0.00    +0.047 A 
ATOM     33  C   UNL     1       5.351   2.326   0.928  0.00  0.00    +0.120 A 
ATOM     34  C   UNL     1       5.578   1.357  -0.038  0.00  0.00    +0.047 A 
ATOM     35  C   UNL     1       5.402   0.022   0.268  0.00  0.00    +0.027 A 
BRANCH  33  36
ATOM     36  O   UNL     1       5.524   3.640   0.625  0.00  0.00    -0.495 OA
ATOM     37  C   UNL     1       5.942   3.950  -0.706  0.00  0.00    +0.277 C 
ENDBRANCH  33  36
ENDBRANCH  28  30
ENDBRANCH  25  26
ENDBRANCH  21  25
ENDBRANCH   1  21
TORSDOF 8
