REMARK  Name = ZINC36343005
REMARK  12 active torsions:
REMARK  status: ('A' for Active; 'I' for Inactive)
REMARK    1  A    between atoms: C_1  and  C_2
REMARK    2  A    between atoms: C_2  and  O_3
REMARK    3  A    between atoms: O_3  and  C_4
REMARK    4  A    between atoms: C_4  and  C_6
REMARK    5  A    between atoms: N_12  and  C_13
REMARK    6  A    between atoms: C_13  and  C_14
REMARK    7  A    between atoms: C_17  and  C_30
REMARK    8  A    between atoms: C_20  and  C_22
REMARK    9  A    between atoms: C_27  and  O_28
REMARK   10  A    between atoms: O_28  and  C_29
REMARK   11  A    between atoms: C_35  and  O_36
REMARK   12  A    between atoms: O_36  and  C_37
REMARK                            x       y       z     vdW  Elec       q    Type
REMARK                         _______ _______ _______ _____ _____    ______ ____
ROOT
ATOM      1  C   UNL     1       0.308  -5.829  -1.894  0.00  0.00    +0.219 C 
ATOM      2  O   UNL     1       1.397  -6.354  -1.792  0.00  0.00    -0.276 OA
ATOM      3  N   UNL     1      -0.810  -6.551  -1.683  0.00  0.00    -0.187 N 
ATOM      4  C   UNL     1      -0.853  -7.976  -1.318  0.00  0.00    +0.140 C 
ATOM      5  C   UNL     1      -2.361  -8.275  -1.205  0.00  0.00    +0.087 C 
ATOM      6  C   UNL     1      -3.020  -6.953  -1.526  0.00  0.00    +0.072 C 
ATOM      7  N   UNL     1      -2.114  -6.069  -1.768  0.00  0.00    -0.181 NA
ENDROOT
BRANCH   6   8
ATOM      8  C   UNL     1      -4.473  -6.711  -1.553  0.00  0.00    +0.039 A 
ATOM      9  C   UNL     1      -5.363  -7.747  -1.261  0.00  0.00    +0.013 A 
ATOM     10  C   UNL     1      -6.722  -7.514  -1.288  0.00  0.00    +0.001 A 
ATOM     11  C   UNL     1      -7.209  -6.257  -1.604  0.00  0.00    +0.004 A 
ATOM     12  C   UNL     1      -6.339  -5.223  -1.894  0.00  0.00    +0.046 A 
ATOM     13  C   UNL     1      -4.970  -5.438  -1.865  0.00  0.00    +0.129 A 
BRANCH  13  14
ATOM     14  O   UNL     1      -4.114  -4.422  -2.145  0.00  0.00    -0.494 OA
ATOM     15  C   UNL     1      -4.694  -3.152  -2.454  0.00  0.00    +0.277 C 
ENDBRANCH  13  14
ENDBRANCH   6   8
BRANCH   4  16
ATOM     16  C   UNL     1      -0.222  -8.819  -2.396  0.00  0.00    +0.017 A 
ATOM     17  C   UNL     1      -0.051  -8.303  -3.666  0.00  0.00    +0.009 A 
ATOM     18  C   UNL     1       0.528  -9.075  -4.655  0.00  0.00    +0.001 A 
ATOM     19  C   UNL     1       0.938 -10.366  -4.377  0.00  0.00    +0.004 A 
ATOM     20  C   UNL     1       0.770 -10.887  -3.109  0.00  0.00    +0.046 A 
ATOM     21  C   UNL     1       0.194 -10.112  -2.112  0.00  0.00    +0.125 A 
BRANCH  21  22
ATOM     22  O   UNL     1       0.032 -10.620  -0.862  0.00  0.00    -0.495 OA
ATOM     23  C   UNL     1       0.483 -11.958  -0.643  0.00  0.00    +0.277 C 
ENDBRANCH  21  22
ENDBRANCH   4  16
BRANCH   1  24
ATOM     24  C   UNL     1       0.206  -4.370  -2.257  0.00  0.00    +0.022 C 
BRANCH  24  30
ATOM     25  C   UNL     1       1.462  -2.361  -2.621  0.00  0.00    +0.043 C 
ATOM     26  C   UNL     1       2.868  -1.766  -2.724  0.00  0.00    -0.004 C 
ATOM     27  C   UNL     1       3.595  -2.392  -3.917  0.00  0.00    -0.003 C 
ATOM     28  C   UNL     1       3.620  -3.913  -3.748  0.00  0.00    -0.019 C 
ATOM     29  C   UNL     1       2.186  -4.429  -3.608  0.00  0.00    -0.077 C 
ATOM     30  N   UNL     1       1.554  -3.814  -2.433  0.00  0.00    +0.394 N 
ATOM     31  H   UNL     1       2.107  -4.012  -1.613  0.00  0.00    -0.080 HD
BRANCH  25  32
ATOM     32  C   UNL     1       0.742  -1.749  -1.447  0.00  0.00    +0.293 C 
ATOM     33  O   UNL     1       0.799  -2.276  -0.362  0.00  0.00    -0.253 OA
BRANCH  32  34
ATOM     34  O   UNL     1       0.038  -0.617  -1.608  0.00  0.00    -0.466 OA
BRANCH  34  36
ATOM     35  C   UNL     1      -1.365   1.189  -0.828  0.00  0.00    +0.048 C 
ATOM     36  C   UNL     1      -0.619  -0.092  -0.453  0.00  0.00    +0.228 C 
ENDBRANCH  34  36
ENDBRANCH  32  34
ENDBRANCH  25  32
ENDBRANCH  24  30
ENDBRANCH   1  24
TORSDOF 9
