REMARK  Name = ZINC67373052
REMARK  6 active torsions:
REMARK  status: ('A' for Active; 'I' for Inactive)
REMARK    1  A    between atoms: C_6  and  C_11
REMARK    2  A    between atoms: C_11  and  C_13
REMARK    3  A    between atoms: C_11  and  O_24
REMARK    4  A    between atoms: C_13  and  N_14
REMARK    5  A    between atoms: C_18  and  S_20
REMARK    6  A    between atoms: S_20  and  N_23
REMARK                            x       y       z     vdW  Elec       q    Type
REMARK                         _______ _______ _______ _____ _____    ______ ____
ROOT
ATOM      1  C   UNL     1       5.349  -3.172   1.355  0.00  0.00    +0.139 C 
ENDROOT
BRANCH   1   2
ATOM      2  N   UNL     1       6.686  -3.771   1.361  0.00  0.00    -0.321 N 
ATOM      3  C   UNL     1       7.215  -4.273   2.540  0.00  0.00    +0.160 A 
ATOM      4  N   UNL     1       6.665  -4.304   3.735  0.00  0.00    -0.231 NA
ATOM      5  C   UNL     1       7.307  -4.823   4.767  0.00  0.00    +0.149 A 
ATOM      6  C   UNL     1       8.547  -5.317   4.537  0.00  0.00    +0.163 A 
ATOM      7  S   UNL     1       8.713  -4.998   2.788  0.00  0.00    -0.033 S 
ATOM      8  H   UNL     1       7.201  -3.815   0.540  0.00  0.00    +0.148 HD
BRANCH   6   9
ATOM      9  S   UNL     1       9.681  -6.072   5.654  0.00  0.00    +0.064 S 
ATOM     10  O   UNL     1      10.976  -5.900   5.096  0.00  0.00    -0.153 OA
ATOM     11  O   UNL     1       9.343  -5.605   6.953  0.00  0.00    -0.153 OA
BRANCH   9  12
ATOM     12  N   UNL     1       9.372  -7.699   5.641  0.00  0.00    -0.203 NA
ATOM     13  H   UNL     1       8.667  -8.054   5.077  0.00  0.00    +0.144 HD
ATOM     14  H   UNL     1       9.896  -8.296   6.197  0.00  0.00    +0.144 HD
ENDBRANCH   9  12
ENDBRANCH   6   9
ENDBRANCH   1   2
BRANCH   1  15
ATOM     15  C   UNL     1       5.008  -2.700  -0.060  0.00  0.00    +0.162 C 
BRANCH  15  21
ATOM     16  C   UNL     1      -0.016   1.357   0.009  0.00  0.00    +0.001 A 
ATOM     17  C   UNL     1       1.169   2.091   0.002  0.00  0.00    +0.001 A 
ATOM     18  C   UNL     1       2.378   1.468  -0.013  0.00  0.00    +0.008 A 
ATOM     19  C   UNL     1       2.438   0.063  -0.021  0.00  0.00    -0.018 A 
ATOM     20  C   UNL     1       3.668  -0.615  -0.036  0.00  0.00    +0.014 A 
ATOM     21  C   UNL     1       3.687  -1.976  -0.043  0.00  0.00    -0.017 A 
ATOM     22  C   UNL     1       2.502  -2.710  -0.036  0.00  0.00    +0.007 A 
ATOM     23  C   UNL     1       1.292  -2.087  -0.021  0.00  0.00    +0.009 A 
ATOM     24  C   UNL     1       1.233  -0.683  -0.013  0.00  0.00    -0.018 A 
ATOM     25  C   UNL     1       0.002  -0.004   0.002  0.00  0.00    +0.008 A 
ENDBRANCH  15  21
BRANCH  15  26
ATOM     26  O   UNL     1       4.921  -3.830  -0.931  0.00  0.00    -0.386 OA
ATOM     27  H   UNL     1       4.246  -4.473  -0.674  0.00  0.00    +0.210 HD
ENDBRANCH  15  26
ENDBRANCH   1  15
TORSDOF 6
