REMARK  Name = ZINC20353866
REMARK  4 active torsions:
REMARK  status: ('A' for Active; 'I' for Inactive)
REMARK    1  A    between atoms: C_4  and  C_7
REMARK    2  A    between atoms: C_18  and  S_19
REMARK    3  A    between atoms: S_19  and  C_20
REMARK    4  A    between atoms: N_24  and  C_25
REMARK                            x       y       z     vdW  Elec       q    Type
REMARK                         _______ _______ _______ _____ _____    ______ ____
ROOT
ATOM      1  C   UNL     1      -2.607   3.814  -0.013  0.00  0.00    +0.010 A 
ATOM      2  C   UNL     1      -3.571   3.656   1.089  0.00  0.00    +0.009 A 
ATOM      3  C   UNL     1      -3.365   2.709   2.094  0.00  0.00    +0.030 A 
ATOM      4  C   UNL     1      -4.285   2.585   3.113  0.00  0.00    +0.042 A 
ATOM      5  C   UNL     1      -5.412   3.396   3.142  0.00  0.00    +0.022 A 
ATOM      6  C   UNL     1      -5.628   4.335   2.157  0.00  0.00    +0.028 A 
ATOM      7  C   UNL     1      -4.712   4.476   1.120  0.00  0.00    +0.050 A 
ATOM      8  N   UNL     1      -4.913   5.412   0.124  0.00  0.00    -0.321 N 
ATOM      9  H   UNL     1      -5.806   6.055   0.146  0.00  0.00    +0.169 HD
ATOM     10  C   UNL     1      -4.040   5.562  -0.885  0.00  0.00    +0.264 A 
ATOM     11  O   UNL     1      -4.260   6.401  -1.742  0.00  0.00    -0.267 OA
ATOM     12  C   UNL     1      -2.866   4.774  -0.976  0.00  0.00    +0.088 A 
ATOM     13 CL   UNL     1      -4.033   1.410   4.366  0.00  0.00    -0.084 Cl
ENDROOT
BRANCH   1  17
ATOM     14  C   UNL     1       0.881   1.399  -0.222  0.00  0.00    +0.000 A 
ATOM     15  C   UNL     1      -0.365   0.824  -0.394  0.00  0.00    +0.001 A 
ATOM     16  C   UNL     1      -1.502   1.603  -0.332  0.00  0.00    +0.008 A 
ATOM     17  C   UNL     1      -1.393   2.973  -0.086  0.00  0.00    -0.016 A 
ATOM     18  C   UNL     1      -0.132   3.547   0.086  0.00  0.00    +0.008 A 
ATOM     19  C   UNL     1       0.997   2.757   0.017  0.00  0.00    +0.001 A 
ENDBRANCH   1  17
BRANCH  12  20
ATOM     20  S   UNL     1      -1.744   5.011  -2.313  0.00  0.00    -0.042 S 
BRANCH  20  21
ATOM     21  C   UNL     1      -2.756   4.490  -3.658  0.00  0.00    +0.219 A 
ATOM     22  N   UNL     1      -4.018   4.124  -3.593  0.00  0.00    -0.101 NA
ATOM     23  N   UNL     1      -4.456   3.806  -4.757  0.00  0.00    -0.022 NA
ATOM     24  N   UNL     1      -3.526   3.933  -5.640  0.00  0.00    -0.038 NA
ATOM     25  N   UNL     1      -2.379   4.383  -4.963  0.00  0.00    -0.187 N 
BRANCH  25  26
ATOM     26  C   UNL     1      -1.120   4.663  -5.513  0.00  0.00    +0.070 A 
ATOM     27  C   UNL     1      -0.356   5.705  -5.005  0.00  0.00    +0.028 A 
ATOM     28  C   UNL     1       0.886   5.976  -5.546  0.00  0.00    +0.002 A 
ATOM     29  C   UNL     1       1.364   5.216  -6.598  0.00  0.00    +0.000 A 
ATOM     30  C   UNL     1       0.604   4.180  -7.108  0.00  0.00    +0.002 A 
ATOM     31  C   UNL     1      -0.637   3.902  -6.569  0.00  0.00    +0.028 A 
ENDBRANCH  25  26
ENDBRANCH  20  21
ENDBRANCH  12  20
TORSDOF 4
