REMARK  Name = ZINC39596416
REMARK  7 active torsions:
REMARK  status: ('A' for Active; 'I' for Inactive)
REMARK    1  A    between atoms: C_1  and  C_2
REMARK    2  A    between atoms: C_2  and  C_4
REMARK    3  A    between atoms: C_2  and  O_28
REMARK    4  A    between atoms: C_4  and  N_5
REMARK    5  A    between atoms: C_6  and  C_8
REMARK    6  A    between atoms: C_19  and  C_21
REMARK    7  A    between atoms: O_28  and  C_29
REMARK                            x       y       z     vdW  Elec       q    Type
REMARK                         _______ _______ _______ _____ _____    ______ ____
ROOT
ATOM      1  C   UNL     1      -1.163  -5.595  -0.638  0.00  0.00    +0.100 C 
ATOM      2  C   UNL     1      -0.682  -5.336  -2.083  0.00  0.00    +0.121 C 
ATOM      3  N   UNL     1      -1.223  -6.471  -2.868  0.00  0.00    -0.300 N 
ATOM      4  C   UNL     1      -2.578  -6.694  -2.308  0.00  0.00    +0.115 C 
ATOM      5  C   UNL     1      -2.408  -6.486  -0.790  0.00  0.00    -0.004 C 
ATOM      6  C   UNL     1      -3.633  -5.784  -0.213  0.00  0.00    -0.010 C 
ATOM      7  C   UNL     1      -4.846  -6.713  -0.322  0.00  0.00    -0.082 C 
ATOM      8  N   UNL     1      -4.580  -7.957   0.410  0.00  0.00    +0.379 N 
ATOM      9  C   UNL     1      -3.458  -8.672  -0.209  0.00  0.00    -0.082 C 
ATOM     10  C   UNL     1      -2.186  -7.826  -0.095  0.00  0.00    -0.010 C 
ATOM     11  C   UNL     1      -0.620  -7.149  -3.864  0.00  0.00    +0.219 C 
ATOM     12  O   UNL     1       0.532  -6.903  -4.153  0.00  0.00    -0.275 OA
ATOM     13  H   UNL     1      -4.351  -7.739   1.369  0.00  0.00    -0.086 HD
ATOM     14  H   UNL     1      -5.402  -8.541   0.388  0.00  0.00    -0.086 HD
ENDROOT
BRANCH  11  15
ATOM     15  C   UNL     1      -1.376  -8.211  -4.619  0.00  0.00    +0.079 C 
ATOM     16  C   UNL     1      -0.386  -9.193  -5.259  0.00  0.00    +0.017 C 
ATOM     17  C   UNL     1      -1.178 -10.354  -5.864  0.00  0.00    +0.027 C 
ATOM     18  C   UNL     1      -2.299  -9.828  -6.712  0.00  0.00    -0.031 C 
ATOM     19  C   UNL     1      -2.747  -8.615  -6.651  0.00  0.00    -0.030 C 
ATOM     20  C   UNL     1      -2.206  -7.562  -5.728  0.00  0.00    +0.039 C 
ENDBRANCH  11  15
BRANCH   1  22
ATOM     21  N   UNL     1      -1.387  -4.168   1.370  0.00  0.00    -0.312 N 
ATOM     22  C   UNL     1      -1.526  -4.297   0.035  0.00  0.00    +0.218 C 
ATOM     23  O   UNL     1      -1.943  -3.368  -0.623  0.00  0.00    -0.275 OA
ATOM     24  H   UNL     1      -1.053  -4.911   1.897  0.00  0.00    +0.149 HD
BRANCH  21  25
ATOM     25  C   UNL     1      -1.739  -2.906   2.025  0.00  0.00    +0.148 C 
BRANCH  25  27
ATOM     26  C   UNL     1      -1.858  -1.707   4.213  0.00  0.00    +0.053 C 
ATOM     27  C   UNL     1      -1.490  -3.025   3.529  0.00  0.00    +0.187 C 
BRANCH  27  28
ATOM     28  O   UNL     1      -2.292  -4.079   4.064  0.00  0.00    -0.488 OA
BRANCH  28  29
ATOM     29  C   UNL     1      -1.812  -4.728   5.158  0.00  0.00    +0.121 A 
ATOM     30  C   UNL     1      -2.495  -5.819   5.673  0.00  0.00    +0.048 A 
ATOM     31  C   UNL     1      -2.005  -6.477   6.785  0.00  0.00    +0.042 A 
ATOM     32  C   UNL     1      -0.834  -6.046   7.385  0.00  0.00    +0.124 A 
ATOM     33  C   UNL     1      -0.151  -4.957   6.872  0.00  0.00    +0.042 A 
ATOM     34  C   UNL     1      -0.635  -4.301   5.756  0.00  0.00    +0.048 A 
ATOM     35  F   UNL     1      -0.356  -6.690   8.473  0.00  0.00    -0.205 F 
ENDBRANCH  28  29
ENDBRANCH  27  28
ENDBRANCH  25  27
ENDBRANCH  21  25
ENDBRANCH   1  22
TORSDOF 6
