REMARK  Name = ZINC63102638
REMARK  10 active torsions:
REMARK  status: ('A' for Active; 'I' for Inactive)
REMARK    1  A    between atoms: C_1  and  O_2
REMARK    2  A    between atoms: O_2  and  C_3
REMARK    3  A    between atoms: C_6  and  C_9
REMARK    4  A    between atoms: C_9  and  C_11
REMARK    5  A    between atoms: C_9  and  C_29
REMARK    6  A    between atoms: C_11  and  N_12
REMARK    7  A    between atoms: C_13  and  C_15
REMARK    8  A    between atoms: C_15  and  N_16
REMARK    9  A    between atoms: C_19  and  C_22
REMARK   10  A    between atoms: C_25  and  O_28
REMARK                            x       y       z     vdW  Elec       q    Type
REMARK                         _______ _______ _______ _____ _____    ______ ____
ROOT
ATOM      1  C   UNL     1      -5.105  -3.504  -1.214  0.00  0.00    +0.116 C 
ENDROOT
BRANCH   1   2
ATOM      2  N   UNL     1      -6.446  -4.093  -1.267  0.00  0.00    -0.313 N 
ATOM      3  C   UNL     1      -6.785  -4.905  -2.287  0.00  0.00    +0.227 C 
ATOM      4  O   UNL     1      -5.981  -5.149  -3.162  0.00  0.00    -0.274 OA
ATOM      5  H   UNL     1      -7.089  -3.898  -0.568  0.00  0.00    +0.149 HD
BRANCH   3   6
ATOM      6  C   UNL     1      -8.164  -5.511  -2.341  0.00  0.00    +0.180 C 
BRANCH   6   7
ATOM      7  N   UNL     1      -8.283  -6.351  -3.541  0.00  0.00    -0.290 NA
ATOM      8  C   UNL     1      -9.675  -6.786  -3.744  0.00  0.00    +0.090 C 
ATOM      9  C   UNL     1      -9.800  -7.375  -5.151  0.00  0.00    +0.051 C 
ATOM     10  C   UNL     1      -8.697  -8.370  -5.384  0.00  0.00    -0.042 C 
ATOM     11  C   UNL     1      -7.623  -8.429  -4.628  0.00  0.00    -0.008 C 
ATOM     12  C   UNL     1      -7.393  -7.515  -3.459  0.00  0.00    +0.112 C 
BRANCH  10  13
ATOM     13  C   UNL     1      -8.827  -9.322  -6.506  0.00  0.00    -0.022 A 
ATOM     14  C   UNL     1      -8.830  -8.856  -7.822  0.00  0.00    +0.012 A 
ATOM     15  C   UNL     1      -8.951  -9.748  -8.867  0.00  0.00    +0.046 A 
ATOM     16  C   UNL     1      -9.070 -11.107  -8.612  0.00  0.00    +0.117 A 
ATOM     17  C   UNL     1      -9.068 -11.575  -7.304  0.00  0.00    +0.046 A 
ATOM     18  C   UNL     1      -8.941 -10.691  -6.254  0.00  0.00    +0.012 A 
BRANCH  16  19
ATOM     19  O   UNL     1      -9.189 -11.982  -9.644  0.00  0.00    -0.507 OA
ATOM     20  H   UNL     1      -8.345 -12.319  -9.974  0.00  0.00    +0.292 HD
ENDBRANCH  16  19
ENDBRANCH  10  13
ENDBRANCH   6   7
ENDBRANCH   3   6
ENDBRANCH   1   2
BRANCH   1  21
ATOM     21  C   UNL     1      -4.981  -2.629   0.035  0.00  0.00    +0.064 C 
BRANCH  21  22
ATOM     22  C   UNL     1      -5.085  -3.493   1.265  0.00  0.00    -0.033 C 
ATOM     23  C   UNL     1      -6.013  -3.404   2.245  0.00  0.00    -0.000 A 
ATOM     24  C   UNL     1      -7.158  -2.509   2.452  0.00  0.00    +0.010 A 
ATOM     25  C   UNL     1      -7.923  -2.666   3.557  0.00  0.00    +0.001 A 
ATOM     26  C   UNL     1      -7.649  -3.660   4.507  0.00  0.00    +0.002 A 
ATOM     27  C   UNL     1      -6.615  -4.519   4.386  0.00  0.00    +0.026 A 
ATOM     28  C   UNL     1      -5.746  -4.445   3.263  0.00  0.00    +0.043 A 
ATOM     29  N   UNL     1      -4.694  -5.151   2.926  0.00  0.00    -0.380 N 
ATOM     30  C   UNL     1      -4.178  -4.640   1.651  0.00  0.00    +0.145 C 
ATOM     31  H   UNL     1      -4.322  -5.889   3.432  0.00  0.00    +0.160 HD
ENDBRANCH  21  22
BRANCH  21  35
ATOM     32  C   UNL     1      -1.200  -0.637   0.010  0.00  0.00    +0.120 A 
ATOM     33  C   UNL     1      -2.375   0.101   0.019  0.00  0.00    +0.046 A 
ATOM     34  C   UNL     1      -3.596  -0.545   0.027  0.00  0.00    +0.008 A 
ATOM     35  C   UNL     1      -3.648  -1.927   0.026  0.00  0.00    -0.038 A 
ATOM     36  C   UNL     1      -2.479  -2.665   0.017  0.00  0.00    +0.008 A 
ATOM     37  C   UNL     1      -1.255  -2.024   0.003  0.00  0.00    +0.046 A 
BRANCH  32  39
ATOM     38  C   UNL     1      -0.017   1.425   0.010  0.00  0.00    +0.277 C 
ATOM     39  O   UNL     1       0.002  -0.004   0.002  0.00  0.00    -0.495 OA
ENDBRANCH  32  39
ENDBRANCH  21  35
ENDBRANCH   1  21
TORSDOF 9
