REMARK  Name = ZINC13220776
REMARK  9 active torsions:
REMARK  status: ('A' for Active; 'I' for Inactive)
REMARK    1  A    between atoms: C_7  and  C_11
REMARK    2  A    between atoms: C_11  and  C_12
REMARK    3  A    between atoms: C_12  and  N_13
REMARK    4  A    between atoms: C_14  and  C_16
REMARK    5  A    between atoms: C_16  and  S_17
REMARK    6  A    between atoms: S_17  and  C_18
REMARK    7  A    between atoms: N_28  and  C_29
REMARK    8  A    between atoms: C_29  and  C_30
REMARK    9  A    between atoms: C_30  and  C_31
REMARK                            x       y       z     vdW  Elec       q    Type
REMARK                         _______ _______ _______ _____ _____    ______ ____
ROOT
ATOM      1  S   UNL     1      -2.633  -6.747  -4.309  0.00  0.00    -0.078 S 
ENDROOT
BRANCH   1   2
ATOM      2  C   UNL     1      -3.711  -8.130  -4.138  0.00  0.00    +0.173 A 
ATOM      3  N   UNL     1      -3.939  -8.600  -2.936  0.00  0.00    -0.223 NA
ATOM      4  C   UNL     1      -4.756  -9.659  -2.733  0.00  0.00    +0.080 A 
ATOM      5  C   UNL     1      -5.001 -10.161  -1.452  0.00  0.00    +0.048 A 
ATOM      6  C   UNL     1      -5.841 -11.242  -1.295  0.00  0.00    +0.043 A 
ATOM      7  C   UNL     1      -6.447 -11.838  -2.395  0.00  0.00    +0.021 A 
ATOM      8  C   UNL     1      -6.223 -11.365  -3.658  0.00  0.00    +0.017 A 
ATOM      9  C   UNL     1      -5.377 -10.273  -3.846  0.00  0.00    +0.065 A 
ATOM     10  C   UNL     1      -5.104  -9.726  -5.181  0.00  0.00    +0.262 A 
ATOM     11  O   UNL     1      -5.609 -10.210  -6.177  0.00  0.00    -0.267 OA
ATOM     12  N   UNL     1      -4.274  -8.660  -5.264  0.00  0.00    -0.287 N 
ATOM     13 CL   UNL     1      -6.145 -11.867   0.296  0.00  0.00    -0.083 Cl
BRANCH  12  14
ATOM     14  C   UNL     1      -3.973  -8.073  -6.572  0.00  0.00    +0.138 C 
BRANCH  14  15
ATOM     15  C   UNL     1      -2.744  -8.762  -7.169  0.00  0.00    +0.147 C 
BRANCH  15  16
ATOM     16  C   UNL     1      -2.434  -8.159  -8.515  0.00  0.00    +0.358 C 
ATOM     17  O   UNL     1      -3.132  -7.261  -8.955  0.00  0.00    -0.246 OA
ATOM     18  O   UNL     1      -1.486  -8.568  -9.163  0.00  0.00    -0.246 OA
ENDBRANCH  15  16
ENDBRANCH  14  15
ENDBRANCH  12  14
ENDBRANCH   1   2
BRANCH   1  19
ATOM     19  C   UNL     1      -2.123  -6.375  -2.609  0.00  0.00    +0.173 C 
BRANCH  19  21
ATOM     20  N   UNL     1      -0.675  -4.736  -1.452  0.00  0.00    -0.314 N 
ATOM     21  C   UNL     1      -1.186  -5.195  -2.612  0.00  0.00    +0.223 C 
ATOM     22  O   UNL     1      -0.891  -4.657  -3.659  0.00  0.00    -0.275 OA
ATOM     23  H   UNL     1      -0.911  -5.166  -0.615  0.00  0.00    +0.149 HD
BRANCH  20  24
ATOM     24  C   UNL     1       0.236  -3.589  -1.455  0.00  0.00    +0.109 C 
BRANCH  24  25
ATOM     25  C   UNL     1       0.666  -3.275  -0.021  0.00  0.00    +0.056 C 
BRANCH  25  32
ATOM     26  C   UNL     1      -0.017   1.362   0.009  0.00  0.00    +0.001 A 
ATOM     27  C   UNL     1       1.170   2.083   0.002  0.00  0.00    +0.002 A 
ATOM     28  C   UNL     1       2.386   1.436  -0.013  0.00  0.00    +0.026 A 
ATOM     29  C   UNL     1       2.428   0.046  -0.021  0.00  0.00    +0.047 A 
ATOM     30  C   UNL     1       1.223  -0.681  -0.013  0.00  0.00    +0.003 A 
ATOM     31  C   UNL     1       0.002  -0.004   0.002  0.00  0.00    +0.010 A 
ATOM     32  C   UNL     1       1.604  -2.095  -0.025  0.00  0.00    -0.021 A 
ATOM     33  C   UNL     1       2.945  -2.141  -0.038  0.00  0.00    +0.087 A 
ATOM     34  N   UNL     1       3.455  -0.871  -0.036  0.00  0.00    -0.360 N 
ATOM     35  H   UNL     1       4.399  -0.650  -0.044  0.00  0.00    +0.165 HD
ENDBRANCH  25  32
ENDBRANCH  24  25
ENDBRANCH  20  24
ENDBRANCH  19  21
ENDBRANCH   1  19
TORSDOF 9
