REMARK  Name = ZINC32634424
REMARK  12 active torsions:
REMARK  status: ('A' for Active; 'I' for Inactive)
REMARK    1  A    between atoms: C_1  and  C_2
REMARK    2  A    between atoms: C_5  and  N_8
REMARK    3  A    between atoms: N_20  and  C_21
REMARK    4  A    between atoms: C_21  and  C_23
REMARK    5  A    between atoms: C_23  and  C_25
REMARK    6  A    between atoms: C_23  and  N_32
REMARK    7  A    between atoms: C_25  and  C_26
REMARK    8  A    between atoms: C_33  and  O_35
REMARK    9  A    between atoms: O_35  and  C_36
REMARK   10  A    between atoms: C_36  and  C_37
REMARK   11  A    between atoms: C_36  and  C_38
REMARK   12  A    between atoms: C_36  and  C_39
REMARK                            x       y       z     vdW  Elec       q    Type
REMARK                         _______ _______ _______ _____ _____    ______ ____
ROOT
ATOM      1  C   UNL     1       5.659  -1.563  -0.868  0.00  0.00    +0.259 C 
ATOM      2  O   UNL     1       6.670  -1.148  -1.401  0.00  0.00    -0.272 OA
ENDROOT
BRANCH   1  13
ATOM      3  N   UNL     1       6.631  -4.995  -0.468  0.00  0.00    -0.276 N 
ATOM      4  C   UNL     1       7.794  -5.778  -0.845  0.00  0.00    +0.116 C 
ATOM      5  C   UNL     1       7.351  -6.951  -1.751  0.00  0.00    +0.190 C 
ATOM      6  S   UNL     1       8.787  -7.103  -2.899  0.00  0.00    -0.028 S 
ATOM      7  O   UNL     1       9.807  -7.872  -2.277  0.00  0.00    -0.174 OA
ATOM      8  O   UNL     1       8.319  -7.464  -4.191  0.00  0.00    -0.174 OA
ATOM      9  C   UNL     1       9.299  -5.312  -2.898  0.00  0.00    +0.182 C 
ATOM     10  C   UNL     1       8.896  -4.911  -1.465  0.00  0.00    +0.097 C 
ATOM     11  S   UNL     1       8.087  -3.270  -1.508  0.00  0.00    -0.086 S 
ATOM     12  C   UNL     1       6.577  -3.672  -0.764  0.00  0.00    +0.154 C 
ATOM     13  N   UNL     1       5.566  -2.846  -0.524  0.00  0.00    -0.157 NA
BRANCH   3  18
ATOM     14  C   UNL     1       2.296  -7.470   2.226  0.00  0.00    +0.044 C 
ATOM     15  C   UNL     1       3.448  -6.813   1.510  0.00  0.00    -0.050 A 
ATOM     16  C   UNL     1       4.671  -6.685   2.143  0.00  0.00    +0.005 A 
ATOM     17  C   UNL     1       5.728  -6.083   1.489  0.00  0.00    +0.024 A 
ATOM     18  C   UNL     1       5.562  -5.606   0.196  0.00  0.00    +0.036 A 
ATOM     19  C   UNL     1       4.331  -5.732  -0.435  0.00  0.00    +0.024 A 
ATOM     20  C   UNL     1       3.279  -6.340   0.222  0.00  0.00    +0.005 A 
ENDBRANCH   3  18
ENDBRANCH   1  13
BRANCH   1  21
ATOM     21  C   UNL     1       4.511  -0.625  -0.596  0.00  0.00    +0.168 C 
BRANCH  21  22
ATOM     22  N   UNL     1       4.858   0.719  -1.063  0.00  0.00    -0.269 N 
ATOM     23  C   UNL     1       3.884   1.588  -1.399  0.00  0.00    +0.401 C 
ATOM     24  O   UNL     1       2.718   1.256  -1.314  0.00  0.00    -0.226 OA
ATOM     25  H   UNL     1       5.913   1.020  -1.139  0.00  0.00    +0.153 HD
BRANCH  23  26
ATOM     26  O   UNL     1       4.202   2.824  -1.828  0.00  0.00    -0.445 OA
BRANCH  26  27
ATOM     27  C   UNL     1       3.102   3.706  -2.172  0.00  0.00    +0.107 C 
ATOM     28  C   UNL     1       2.212   3.914  -0.945  0.00  0.00    +0.055 C 
ATOM     29  C   UNL     1       3.656   5.055  -2.635  0.00  0.00    +0.055 C 
ATOM     30  C   UNL     1       2.279   3.079  -3.299  0.00  0.00    +0.055 C 
ENDBRANCH  26  27
ENDBRANCH  23  26
ENDBRANCH  21  22
BRANCH  21  31
ATOM     31  C   UNL     1       4.230  -0.586   0.908  0.00  0.00    +0.067 C 
BRANCH  31  32
ATOM     32  C   UNL     1       3.006   0.254   1.168  0.00  0.00    -0.045 A 
ATOM     33  C   UNL     1       1.755  -0.333   1.184  0.00  0.00    +0.004 A 
ATOM     34  C   UNL     1       0.633   0.438   1.423  0.00  0.00    +0.000 A 
ATOM     35  C   UNL     1       0.762   1.796   1.647  0.00  0.00    +0.000 A 
ATOM     36  C   UNL     1       2.013   2.383   1.631  0.00  0.00    +0.000 A 
ATOM     37  C   UNL     1       3.135   1.612   1.391  0.00  0.00    +0.004 A 
ENDBRANCH  31  32
ENDBRANCH  21  31
ENDBRANCH   1  21
TORSDOF 8
