REMARK  Name = ZINC39243156
REMARK  8 active torsions:
REMARK  status: ('A' for Active; 'I' for Inactive)
REMARK    1  A    between atoms: C_1  and  O_2
REMARK    2  A    between atoms: O_2  and  C_3
REMARK    3  A    between atoms: C_6  and  C_9
REMARK    4  A    between atoms: C_13  and  C_23
REMARK    5  A    between atoms: C_17  and  C_19
REMARK    6  A    between atoms: N_25  and  C_26
REMARK    7  A    between atoms: C_26  and  C_27
REMARK    8  A    between atoms: C_27  and  C_28
REMARK                            x       y       z     vdW  Elec       q    Type
REMARK                         _______ _______ _______ _____ _____    ______ ____
ROOT
ATOM      1  C   UNL     1      -4.960  -2.618   0.036  0.00  0.00    +0.075 C 
ATOM      2  N   UNL     1      -6.072  -1.914   0.040  0.00  0.00    -0.231 NA
ATOM      3  C   UNL     1      -7.284  -2.524   0.048  0.00  0.00    +0.138 C 
ATOM      4  C   UNL     1      -8.515  -1.972   0.053  0.00  0.00    +0.047 C 
ATOM      5  C   UNL     1      -9.504  -3.115   0.062  0.00  0.00    +0.185 C 
ATOM      6  N   UNL     1      -8.666  -4.327   0.061  0.00  0.00    -0.218 NA
ATOM      7  N   UNL     1      -7.363  -3.909   0.053  0.00  0.00    -0.213 N 
ATOM      8  C   UNL     1      -6.208  -4.655   0.050  0.00  0.00    +0.133 C 
ATOM      9  C   UNL     1      -5.012  -4.034   0.035  0.00  0.00    +0.057 C 
ATOM     10  H   UNL     1      -8.857  -4.899   0.870  0.00  0.00    +0.146 HD
ENDROOT
BRANCH   1  14
ATOM     11  C   UNL     1      -1.199  -0.637   0.010  0.00  0.00    +0.120 A 
ATOM     12  C   UNL     1      -2.373   0.105   0.020  0.00  0.00    +0.046 A 
ATOM     13  C   UNL     1      -3.594  -0.533   0.028  0.00  0.00    +0.013 A 
ATOM     14  C   UNL     1      -3.650  -1.928   0.027  0.00  0.00    +0.001 A 
ATOM     15  C   UNL     1      -2.468  -2.671   0.017  0.00  0.00    +0.013 A 
ATOM     16  C   UNL     1      -1.251  -2.025   0.003  0.00  0.00    +0.046 A 
BRANCH  11  18
ATOM     17  C   UNL     1      -0.017   1.425   0.010  0.00  0.00    +0.277 C 
ATOM     18  O   UNL     1       0.002  -0.004   0.002  0.00  0.00    -0.495 OA
ENDBRANCH  11  18
ENDBRANCH   1  14
BRANCH   8  19
ATOM     19  C   UNL     1      -6.279  -6.161   0.055  0.00  0.00    +0.432 C 
ATOM     20  F   UNL     1      -4.983  -6.689   0.050  0.00  0.00    -0.165 F 
ATOM     21  F   UNL     1      -6.954  -6.591   1.202  0.00  0.00    -0.165 F 
ATOM     22  F   UNL     1      -6.965  -6.599  -1.082  0.00  0.00    -0.165 F 
ENDBRANCH   8  19
BRANCH   5  23
ATOM     23  C   UNL     1     -10.357  -3.063   1.304  0.00  0.00    +0.236 C 
ATOM     24  O   UNL     1     -10.332  -3.981   2.096  0.00  0.00    -0.274 OA
ATOM     25  N   UNL     1     -11.149  -1.996   1.533  0.00  0.00    -0.313 N 
ATOM     26  H   UNL     1     -11.169  -1.262   0.899  0.00  0.00    +0.149 HD
BRANCH  25  27
ATOM     27  C   UNL     1     -11.978  -1.946   2.740  0.00  0.00    +0.109 C 
BRANCH  27  28
ATOM     28  C   UNL     1     -12.773  -0.639   2.758  0.00  0.00    +0.056 C 
BRANCH  28  29
ATOM     29  C   UNL     1     -13.626  -0.587   3.999  0.00  0.00    -0.021 A 
ATOM     30  C   UNL     1     -13.208  -0.124   5.324  0.00  0.00    +0.004 A 
ATOM     31  C   UNL     1     -12.012   0.374   5.845  0.00  0.00    +0.030 A 
ATOM     32  C   UNL     1     -11.944   0.731   7.174  0.00  0.00    +0.042 A 
ATOM     33  C   UNL     1     -13.057   0.597   7.995  0.00  0.00    +0.022 A 
ATOM     34  C   UNL     1     -14.244   0.107   7.495  0.00  0.00    +0.027 A 
ATOM     35  C   UNL     1     -14.335  -0.259   6.157  0.00  0.00    +0.047 A 
ATOM     36  N   UNL     1     -15.354  -0.767   5.381  0.00  0.00    -0.360 N 
ATOM     37  C   UNL     1     -14.914  -0.950   4.098  0.00  0.00    +0.087 A 
ATOM     38 CL   UNL     1     -10.460   1.351   7.827  0.00  0.00    -0.084 Cl
ATOM     39  H   UNL     1     -16.250  -0.962   5.696  0.00  0.00    +0.165 HD
ENDBRANCH  28  29
ENDBRANCH  27  28
ENDBRANCH  25  27
ENDBRANCH   5  23
TORSDOF 7
