REMARK  Name = ZINC12384452
REMARK  10 active torsions:
REMARK  status: ('A' for Active; 'I' for Inactive)
REMARK    1  A    between atoms: C_1  and  C_2
REMARK    2  A    between atoms: C_2  and  C_38
REMARK    3  A    between atoms: C_6  and  C_24
REMARK    4  A    between atoms: C_12  and  C_16
REMARK    5  A    between atoms: C_16  and  C_18
REMARK    6  A    between atoms: C_26  and  O_33
REMARK    7  A    between atoms: C_27  and  O_32
REMARK    8  A    between atoms: C_28  and  O_30
REMARK    9  A    between atoms: O_30  and  C_31
REMARK   10  A    between atoms: O_33  and  C_34
REMARK                            x       y       z     vdW  Elec       q    Type
REMARK                         _______ _______ _______ _____ _____    ______ ____
ROOT
ATOM      1  C   UNL     1       6.137   4.259   1.294  0.00  0.00    +0.011 C 
ATOM      2  C   UNL     1       5.202   4.678   2.430  0.00  0.00    -0.023 C 
ATOM      3  C   UNL     1       3.786   4.873   1.890  0.00  0.00    +0.058 C 
ATOM      4  C   UNL     1       3.285   3.576   1.275  0.00  0.00    +0.017 C 
ATOM      5  C   UNL     1       3.666   2.391   1.782  0.00  0.00    +0.036 C 
ATOM      6  C   UNL     1       3.224   1.034   1.290  0.00  0.00    +0.136 C 
ATOM      7  N   UNL     1       2.530   1.051   0.020  0.00  0.00    -0.331 N 
ATOM      8  C   UNL     1       1.300   1.678  -0.120  0.00  0.00    +0.049 A 
ATOM      9  C   UNL     1       0.144   0.953  -0.384  0.00  0.00    +0.025 A 
ATOM     10  C   UNL     1      -1.070   1.602  -0.437  0.00  0.00    +0.013 A 
ATOM     11  C   UNL     1      -1.141   2.982  -0.215  0.00  0.00    +0.024 A 
ATOM     12  C   UNL     1       0.028   3.712   0.035  0.00  0.00    +0.036 A 
ATOM     13  C   UNL     1       1.240   3.055   0.064  0.00  0.00    +0.053 A 
ATOM     14  N   UNL     1       2.444   3.732   0.222  0.00  0.00    -0.316 N 
ATOM     15  C   UNL     1       4.565   2.340   2.873  0.00  0.00    +0.163 C 
ATOM     16  O   UNL     1       4.877   1.255   3.324  0.00  0.00    -0.292 OA
ATOM     17  C   UNL     1       5.148   3.574   3.492  0.00  0.00    +0.086 C 
ATOM     18  C   UNL     1       5.700   5.981   3.059  0.00  0.00    +0.011 C 
ATOM     19  H   UNL     1       2.932   0.616  -0.748  0.00  0.00    +0.147 HD
ATOM     20  H   UNL     1       2.701   4.360  -0.471  0.00  0.00    +0.152 HD
ENDROOT
BRANCH   6  21
ATOM     21  C   UNL     1       2.312   0.425   2.324  0.00  0.00    -0.016 A 
ATOM     22  C   UNL     1       1.127   1.056   2.655  0.00  0.00    +0.055 A 
ATOM     23  C   UNL     1       0.283   0.496   3.602  0.00  0.00    +0.165 A 
ATOM     24  C   UNL     1       0.635  -0.694   4.226  0.00  0.00    +0.201 A 
ATOM     25  C   UNL     1       1.829  -1.322   3.895  0.00  0.00    +0.165 A 
ATOM     26  C   UNL     1       2.665  -0.759   2.942  0.00  0.00    +0.055 A 
BRANCH  25  27
ATOM     27  O   UNL     1       2.178  -2.488   4.503  0.00  0.00    -0.491 OA
ATOM     28  C   UNL     1       3.420  -3.077   4.112  0.00  0.00    +0.277 C 
ENDBRANCH  25  27
BRANCH  24  29
ATOM     29  O   UNL     1      -0.188  -1.244   5.161  0.00  0.00    -0.501 OA
ATOM     30  H   UNL     1      -0.011  -0.947   6.064  0.00  0.00    +0.292 HD
ENDBRANCH  24  29
BRANCH  23  31
ATOM     31  O   UNL     1      -0.885   1.115   3.923  0.00  0.00    -0.491 OA
ATOM     32  C   UNL     1      -1.124   2.396   3.336  0.00  0.00    +0.277 C 
ENDBRANCH  23  31
ENDBRANCH   6  21
BRANCH  11  33
ATOM     33  C   UNL     1      -2.445   3.668  -0.250  0.00  0.00    +0.193 C 
ATOM     34  O   UNL     1      -2.495   4.882  -0.202  0.00  0.00    -0.287 OA
BRANCH  33  35
ATOM     35  C   UNL     1      -3.692   2.880  -0.342  0.00  0.00    +0.022 A 
ATOM     36  C   UNL     1      -3.798   1.654   0.318  0.00  0.00    +0.012 A 
ATOM     37  C   UNL     1      -4.967   0.927   0.232  0.00  0.00    +0.001 A 
ATOM     38  C   UNL     1      -6.029   1.404  -0.516  0.00  0.00    +0.000 A 
ATOM     39  C   UNL     1      -5.929   2.616  -1.177  0.00  0.00    +0.001 A 
ATOM     40  C   UNL     1      -4.768   3.356  -1.095  0.00  0.00    +0.012 A 
ENDBRANCH  33  35
ENDBRANCH  11  33
TORSDOF 6
