REMARK  Name = ZINC25039663
REMARK  10 active torsions:
REMARK  status: ('A' for Active; 'I' for Inactive)
REMARK    1  A    between atoms: C_1  and  C_2
REMARK    2  A    between atoms: C_2  and  C_4
REMARK    3  A    between atoms: C_2  and  S_18
REMARK    4  A    between atoms: N_10  and  C_11
REMARK    5  A    between atoms: S_18  and  C_19
REMARK    6  A    between atoms: C_22  and  C_24
REMARK    7  A    between atoms: C_27  and  C_30
REMARK    8  A    between atoms: C_30  and  C_31
REMARK    9  A    between atoms: C_30  and  C_32
REMARK   10  A    between atoms: C_30  and  C_33
REMARK                            x       y       z     vdW  Elec       q    Type
REMARK                         _______ _______ _______ _____ _____    ______ ____
ROOT
ATOM      1  C   UNL     1       5.476   0.748  -1.102  0.00  0.00    +0.028 C 
ATOM      2  C   UNL     1       4.776   0.752   0.259  0.00  0.00    +0.121 C 
ENDROOT
BRANCH   2   3
ATOM      3  C   UNL     1       3.499   1.546   0.164  0.00  0.00    +0.149 A 
ATOM      4  N   UNL     1       3.546   2.866   0.118  0.00  0.00    -0.198 NA
ATOM      5  C   UNL     1       2.420   3.572   0.035  0.00  0.00    +0.217 A 
ATOM      6  N   UNL     1       1.248   2.947  -0.002  0.00  0.00    -0.181 NA
ATOM      7  C   UNL     1       1.205   1.620   0.045  0.00  0.00    +0.224 A 
ATOM      8  N   UNL     1       2.335   0.922   0.134  0.00  0.00    -0.198 NA
ATOM      9  N   UNL     1      -0.011   0.966   0.007  0.00  0.00    -0.284 N 
ATOM     10  N   UNL     1       2.470   4.950  -0.014  0.00  0.00    -0.327 N 
ATOM     11  H   UNL     1      -0.053  -0.126   0.139  0.00  0.00    +0.155 HD
ATOM     12  H   UNL     1       1.540   5.532  -0.083  0.00  0.00    +0.145 HD
ATOM     13  H   UNL     1       3.441   5.466   0.016  0.00  0.00    +0.145 HD
BRANCH   9  14
ATOM     14  C   UNL     1      -1.189   1.691  -0.198  0.00  0.00    +0.034 A 
ATOM     15  C   UNL     1      -2.354   1.328   0.465  0.00  0.00    +0.023 A 
ATOM     16  C   UNL     1      -3.514   2.050   0.264  0.00  0.00    +0.002 A 
ATOM     17  C   UNL     1      -3.520   3.126  -0.605  0.00  0.00    +0.000 A 
ATOM     18  C   UNL     1      -2.362   3.486  -1.272  0.00  0.00    +0.002 A 
ATOM     19  C   UNL     1      -1.198   2.772  -1.071  0.00  0.00    +0.023 A 
ENDBRANCH   9  14
ENDBRANCH   2   3
BRANCH   2  20
ATOM     20  S   UNL     1       5.864   1.503   1.495  0.00  0.00    -0.055 S 
BRANCH  20  21
ATOM     21  C   UNL     1       7.172   0.322   1.508  0.00  0.00    +0.278 A 
ATOM     22  N   UNL     1       7.242  -0.769   0.781  0.00  0.00    -0.101 NA
ATOM     23  N   UNL     1       8.335  -1.392   1.049  0.00  0.00    -0.106 NA
ATOM     24  C   UNL     1       9.006  -0.726   1.956  0.00  0.00    +0.249 A 
ATOM     25  O   UNL     1       8.287   0.377   2.262  0.00  0.00    -0.411 OA
BRANCH  24  26
ATOM     26  C   UNL     1      10.311  -1.107   2.535  0.00  0.00    +0.039 A 
ATOM     27  C   UNL     1      10.916  -0.295   3.495  0.00  0.00    +0.013 A 
ATOM     28  C   UNL     1      12.132  -0.660   4.035  0.00  0.00    +0.005 A 
ATOM     29  C   UNL     1      12.757  -1.821   3.618  0.00  0.00    -0.042 A 
ATOM     30  C   UNL     1      12.165  -2.628   2.663  0.00  0.00    +0.005 A 
ATOM     31  C   UNL     1      10.947  -2.278   2.119  0.00  0.00    +0.013 A 
BRANCH  29  32
ATOM     32  C   UNL     1      14.089  -2.210   4.208  0.00  0.00    -0.013 C 
ATOM     33  C   UNL     1      15.134  -2.295   3.094  0.00  0.00    +0.015 C 
ATOM     34  C   UNL     1      14.519  -1.159   5.232  0.00  0.00    +0.015 C 
ATOM     35  C   UNL     1      13.964  -3.571   4.895  0.00  0.00    +0.015 C 
ENDBRANCH  29  32
ENDBRANCH  24  26
ENDBRANCH  20  21
ENDBRANCH   2  20
TORSDOF 6
