REMARK  Name = ZINC32971921
REMARK  17 active torsions:
REMARK  status: ('A' for Active; 'I' for Inactive)
REMARK    1  A    between atoms: C_1  and  C_2
REMARK    2  A    between atoms: C_2  and  C_3
REMARK    3  A    between atoms: C_2  and  C_4
REMARK    4  A    between atoms: C_4  and  N_5
REMARK    5  A    between atoms: C_6  and  N_37
REMARK    6  A    between atoms: C_7  and  N_14
REMARK    7  A    between atoms: N_14  and  C_15
REMARK    8  A    between atoms: C_15  and  C_16
REMARK    9  A    between atoms: C_16  and  C_17
REMARK   10  A    between atoms: C_16  and  C_18
REMARK   11  A    between atoms: C_19  and  C_21
REMARK   12  A    between atoms: C_21  and  N_22
REMARK   13  A    between atoms: N_22  and  C_23
REMARK   14  A    between atoms: C_24  and  C_26
REMARK   15  A    between atoms: C_29  and  S_35
REMARK   16  A    between atoms: C_30  and  N_32
REMARK   17  A    between atoms: S_35  and  C_36
REMARK                            x       y       z     vdW  Elec       q    Type
REMARK                         _______ _______ _______ _____ _____    ______ ____
ROOT
ATOM      1  N   UNL     1       1.440   2.473  -0.359  0.00  0.00    -0.263 N 
ATOM      2  C   UNL     1       0.327   1.710  -0.331  0.00  0.00    +0.237 C 
ATOM      3  O   UNL     1       0.402   0.518  -0.545  0.00  0.00    -0.274 OA
ENDROOT
BRANCH   1   6
ATOM      4  N   UNL     1       4.892   1.370   0.245  0.00  0.00    -0.280 N 
ATOM      5  C   UNL     1       3.670   1.968   0.445  0.00  0.00    +0.127 A 
ATOM      6  C   UNL     1       2.703   1.870  -0.535  0.00  0.00    +0.140 A 
ATOM      7  C   UNL     1       2.998   1.154  -1.710  0.00  0.00    +0.277 A 
ATOM      8  O   UNL     1       2.160   1.048  -2.590  0.00  0.00    -0.266 OA
ATOM      9  N   UNL     1       4.213   0.591  -1.858  0.00  0.00    -0.273 N 
ATOM     10  H   UNL     1       4.454   0.038  -2.778  0.00  0.00    +0.173 HD
ATOM     11  C   UNL     1       5.143   0.697  -0.892  0.00  0.00    +0.331 A 
ATOM     12  O   UNL     1       6.229   0.175  -1.050  0.00  0.00    -0.246 OA
BRANCH   5  13
ATOM     13  N   UNL     1       3.414   2.656   1.607  0.00  0.00    -0.343 N 
ATOM     14  H   UNL     1       2.434   3.132   1.761  0.00  0.00    +0.144 HD
ATOM     15  H   UNL     1       4.190   2.731   2.384  0.00  0.00    +0.144 HD
ENDBRANCH   5  13
BRANCH   4  16
ATOM     16  C   UNL     1       5.927   1.466   1.278  0.00  0.00    +0.131 C 
BRANCH  16  18
ATOM     17  C   UNL     1       6.949   0.318   3.248  0.00  0.00    +0.009 C 
ATOM     18  C   UNL     1       5.794   0.288   2.244  0.00  0.00    +0.003 C 
ATOM     19  C   UNL     1       4.464   0.391   2.994  0.00  0.00    +0.009 C 
ENDBRANCH  16  18
ENDBRANCH   4  16
ENDBRANCH   1   6
BRANCH   1  20
ATOM     20  C   UNL     1       1.335   3.926  -0.207  0.00  0.00    +0.117 C 
BRANCH  20  21
ATOM     21  C   UNL     1       1.200   4.574  -1.587  0.00  0.00    +0.001 C 
ATOM     22  C   UNL     1       0.926   6.071  -1.422  0.00  0.00    +0.009 C 
ATOM     23  C   UNL     1       2.497   4.376  -2.373  0.00  0.00    +0.009 C 
ENDBRANCH  20  21
ENDBRANCH   1  20
BRANCH   2  24
ATOM     24  C   UNL     1      -1.011   2.340  -0.039  0.00  0.00    +0.204 C 
BRANCH  24  25
ATOM     25  N   UNL     1      -2.035   1.295   0.040  0.00  0.00    -0.292 N 
ATOM     26  C   UNL     1      -2.331   0.655   1.324  0.00  0.00    +0.133 C 
ATOM     27  C   UNL     1      -2.705   0.923  -1.069  0.00  0.00    +0.247 C 
ATOM     28  O   UNL     1      -2.394   1.384  -2.150  0.00  0.00    -0.270 OA
BRANCH  27  29
ATOM     29  C   UNL     1      -3.816  -0.042  -0.970  0.00  0.00    +0.039 A 
ATOM     30  C   UNL     1      -4.490  -0.214   0.243  0.00  0.00    +0.014 A 
ATOM     31  C   UNL     1      -5.521  -1.104   0.333  0.00  0.00    +0.018 A 
ATOM     32  C   UNL     1      -5.899  -1.853  -0.779  0.00  0.00    +0.038 A 
ATOM     33  C   UNL     1      -5.230  -1.692  -1.990  0.00  0.00    +0.140 A 
ATOM     34  C   UNL     1      -4.193  -0.792  -2.088  0.00  0.00    +0.047 A 
BRANCH  33  35
ATOM     35  N   UNL     1      -5.633  -2.488  -3.171  0.00  0.00    +0.058 N 
ATOM     36  O   UNL     1      -5.048  -2.347  -4.230  0.00  0.00    -0.126 OA
ATOM     37  O   UNL     1      -6.551  -3.285  -3.084  0.00  0.00    -0.126 OA
ENDBRANCH  33  35
BRANCH  32  38
ATOM     38  S   UNL     1      -7.226  -3.005  -0.654  0.00  0.00    -0.126 S 
ATOM     39  C   UNL     1      -7.769  -2.863   1.071  0.00  0.00    +0.090 C 
ENDBRANCH  32  38
ENDBRANCH  27  29
ENDBRANCH  24  25
ENDBRANCH   2  24
TORSDOF 11
