REMARK  Name = ZINC39468778
REMARK  13 active torsions:
REMARK  status: ('A' for Active; 'I' for Inactive)
REMARK    1  A    between atoms: C_1  and  C_2
REMARK    2  A    between atoms: C_5  and  C_38
REMARK    3  A    between atoms: C_12  and  N_15
REMARK    4  A    between atoms: C_16  and  C_18
REMARK    5  A    between atoms: C_18  and  N_19
REMARK    6  A    between atoms: N_19  and  C_20
REMARK    7  A    between atoms: N_19  and  C_29
REMARK    8  A    between atoms: C_20  and  C_21
REMARK    9  A    between atoms: C_24  and  O_27
REMARK   10  A    between atoms: O_27  and  C_28
REMARK   11  A    between atoms: C_29  and  C_31
REMARK   12  A    between atoms: C_29  and  C_32
REMARK   13  A    between atoms: C_32  and  C_33
REMARK                            x       y       z     vdW  Elec       q    Type
REMARK                         _______ _______ _______ _____ _____    ______ ____
ROOT
ATOM      1  N   UNL     1       0.318   2.637   5.956  0.00  0.00    +0.390 N 
ATOM      2  H   UNL     1       1.272   2.323   6.054  0.00  0.00    -0.080 HD
ENDROOT
BRANCH   1   3
ATOM      3  C   UNL     1       0.228   3.591   4.843  0.00  0.00    -0.066 C 
ATOM      4  C   UNL     1       1.472   3.464   3.961  0.00  0.00    -0.013 C 
BRANCH   3   5
ATOM      5  C   UNL     1      -1.020   3.289   4.012  0.00  0.00    +0.027 C 
BRANCH   5   6
ATOM      6  C   UNL     1      -2.251   3.620   4.816  0.00  0.00    -0.012 A 
ATOM      7  C   UNL     1      -2.991   4.756   4.815  0.00  0.00    +0.011 A 
ATOM      8  C   UNL     1      -4.094   4.838   5.645  0.00  0.00    +0.008 A 
ATOM      9  C   UNL     1      -4.402   3.780   6.434  0.00  0.00    +0.045 A 
ATOM     10  S   UNL     1      -3.118   2.615   6.010  0.00  0.00    -0.102 S 
ENDBRANCH   5   6
ENDBRANCH   3   5
ENDBRANCH   1   3
BRANCH   1  11
ATOM     11  C   UNL     1      -0.552   1.485   5.685  0.00  0.00    +0.019 C 
BRANCH  11  13
ATOM     12  N   UNL     1      -0.819  -0.191   3.885  0.00  0.00    -0.288 N 
ATOM     13  C   UNL     1      -0.054   0.756   4.464  0.00  0.00    +0.199 C 
ATOM     14  O   UNL     1       1.035   1.022   4.001  0.00  0.00    -0.278 OA
ATOM     15  H   UNL     1      -1.714  -0.361   4.218  0.00  0.00    +0.151 HD
BRANCH  12  26
ATOM     16  C   UNL     1      -3.284  -0.696   2.002  0.00  0.00    +0.043 C 
ATOM     17  C   UNL     1      -2.061  -1.353   1.359  0.00  0.00    +0.150 C 
ATOM     18  C   UNL     1      -1.737  -2.648   2.059  0.00  0.00    +0.016 A 
ATOM     19  C   UNL     1      -2.278  -3.938   2.012  0.00  0.00    +0.065 A 
ATOM     20  N   UNL     1      -1.774  -4.886   2.757  0.00  0.00    -0.176 NA
ATOM     21  N   UNL     1      -0.784  -4.691   3.550  0.00  0.00    -0.243 N 
ATOM     22  C   UNL     1      -0.194  -3.483   3.666  0.00  0.00    +0.272 A 
ATOM     23  O   UNL     1       0.747  -3.322   4.426  0.00  0.00    -0.266 OA
ATOM     24  C   UNL     1      -0.682  -2.413   2.895  0.00  0.00    +0.072 A 
ATOM     25  H   UNL     1      -0.450  -5.432   4.080  0.00  0.00    +0.192 HD
ATOM     26  C   UNL     1      -0.299  -0.963   2.754  0.00  0.00    +0.243 C 
ATOM     27  O   UNL     1      -0.902  -0.513   1.524  0.00  0.00    -0.347 OA
ATOM     28  C   UNL     1      -3.442  -4.234   1.102  0.00  0.00    +0.068 C 
ENDBRANCH  12  26
ENDBRANCH  11  13
ENDBRANCH   1  11
BRANCH   1  29
ATOM     29  C   UNL     1      -0.111   3.293   7.199  0.00  0.00    -0.042 C 
BRANCH  29  30
ATOM     30  C   UNL     1       0.388   2.503   8.382  0.00  0.00    -0.064 A 
ATOM     31  C   UNL     1      -0.383   1.480   8.903  0.00  0.00    +0.005 A 
ATOM     32  C   UNL     1       0.072   0.755   9.987  0.00  0.00    +0.046 A 
ATOM     33  C   UNL     1       1.303   1.054  10.553  0.00  0.00    +0.120 A 
ATOM     34  C   UNL     1       2.074   2.080  10.028  0.00  0.00    +0.046 A 
ATOM     35  C   UNL     1       1.617   2.799   8.940  0.00  0.00    +0.005 A 
BRANCH  33  36
ATOM     36  O   UNL     1       1.752   0.342  11.620  0.00  0.00    -0.495 OA
ATOM     37  C   UNL     1       3.029   0.705  12.151  0.00  0.00    +0.277 C 
ENDBRANCH  33  36
ENDBRANCH  29  30
ENDBRANCH   1  29
TORSDOF 9
