REMARK  Name = ZINC39942178
REMARK  8 active torsions:
REMARK  status: ('A' for Active; 'I' for Inactive)
REMARK    1  A    between atoms: C_1  and  C_2
REMARK    2  A    between atoms: C_2  and  C_4
REMARK    3  A    between atoms: C_2  and  N_14
REMARK    4  A    between atoms: C_15  and  C_17
REMARK    5  A    between atoms: C_17  and  S_18
REMARK    6  A    between atoms: S_18  and  C_19
REMARK    7  A    between atoms: C_23  and  C_28
REMARK    8  A    between atoms: N_24  and  C_25
REMARK                            x       y       z     vdW  Elec       q    Type
REMARK                         _______ _______ _______ _____ _____    ______ ____
ROOT
ATOM      1  C   UNL     1      -5.680  -1.854   2.699  0.00  0.00    +0.237 C 
ATOM      2  N   UNL     1      -5.538  -3.093   1.916  0.00  0.00    -0.237 N 
ATOM      3  N   UNL     1      -6.435  -2.992   0.846  0.00  0.00    -0.169 NA
ATOM      4  C   UNL     1      -7.092  -1.863   0.883  0.00  0.00    +0.147 C 
ATOM      5  N   UNL     1      -6.709  -1.084   1.982  0.00  0.00    -0.282 N 
ATOM      6  H   UNL     1      -4.941  -3.833   2.105  0.00  0.00    +0.171 HD
ENDROOT
BRANCH   4   7
ATOM      7  C   UNL     1      -8.059  -1.480  -0.059  0.00  0.00    +0.022 C 
ATOM      8  C   UNL     1      -8.558  -2.244  -1.115  0.00  0.00    +0.006 A 
ATOM      9  C   UNL     1      -8.281  -3.555  -1.556  0.00  0.00    +0.010 A 
ATOM     10  C   UNL     1      -8.933  -4.053  -2.639  0.00  0.00    +0.001 A 
ATOM     11  C   UNL     1      -9.879  -3.297  -3.334  0.00  0.00    +0.002 A 
ATOM     12  C   UNL     1     -10.194  -2.031  -2.966  0.00  0.00    +0.026 A 
ATOM     13  C   UNL     1      -9.554  -1.443  -1.845  0.00  0.00    +0.043 A 
ATOM     14  N   UNL     1      -9.682  -0.252  -1.293  0.00  0.00    -0.380 N 
ATOM     15  C   UNL     1      -8.784  -0.154  -0.139  0.00  0.00    +0.152 C 
ATOM     16  H   UNL     1     -10.279   0.448  -1.601  0.00  0.00    +0.160 HD
ENDBRANCH   4   7
BRANCH   5  17
ATOM     17  C   UNL     1      -7.229   0.236   2.347  0.00  0.00    +0.078 C 
ATOM     18  C   UNL     1      -6.594   0.937   3.549  0.00  0.00    +0.024 C 
ATOM     19  C   UNL     1      -8.003   0.352   3.662  0.00  0.00    +0.024 C 
ENDBRANCH   5  17
BRANCH   1  20
ATOM     20  S   UNL     1      -4.112  -0.941   2.731  0.00  0.00    -0.109 S 
BRANCH  20  21
ATOM     21  C   UNL     1      -3.720  -0.681   0.979  0.00  0.00    +0.168 C 
BRANCH  21  23
ATOM     22  N   UNL     1      -1.931   0.386  -0.354  0.00  0.00    -0.308 N 
ATOM     23  C   UNL     1      -2.423   0.077   0.862  0.00  0.00    +0.223 C 
ATOM     24  O   UNL     1      -1.823   0.409   1.862  0.00  0.00    -0.275 OA
ATOM     25  H   UNL     1      -2.412   0.121  -1.154  0.00  0.00    +0.149 HD
BRANCH  22  27
ATOM     26  C   UNL     1      -0.945   2.625  -0.360  0.00  0.00    +0.033 C 
ATOM     27  C   UNL     1      -0.670   1.123  -0.468  0.00  0.00    +0.100 C 
BRANCH  27  28
ATOM     28  C   UNL     1      -0.032   0.825  -1.800  0.00  0.00    -0.024 A 
ATOM     29  C   UNL     1      -0.816   0.734  -2.936  0.00  0.00    +0.009 A 
ATOM     30  C   UNL     1      -0.234   0.459  -4.159  0.00  0.00    +0.050 A 
ATOM     31  C   UNL     1       1.137   0.273  -4.250  0.00  0.00    +0.162 A 
ATOM     32  C   UNL     1       1.925   0.366  -3.110  0.00  0.00    +0.162 A 
ATOM     33  C   UNL     1       1.336   0.647  -1.886  0.00  0.00    +0.055 A 
ATOM     34  O   UNL     1       3.273   0.195  -3.178  0.00  0.00    -0.485 OA
ATOM     35  C   UNL     1       3.782  -0.445  -4.354  0.00  0.00    +0.270 C 
ATOM     36  C   UNL     1       3.109   0.191  -5.577  0.00  0.00    +0.270 C 
ATOM     37  O   UNL     1       1.695  -0.002  -5.461  0.00  0.00    -0.485 OA
ENDBRANCH  27  28
ENDBRANCH  22  27
ENDBRANCH  21  23
ENDBRANCH  20  21
ENDBRANCH   1  20
TORSDOF 7
