REMARK  Name = ZINC09542294
REMARK  12 active torsions:
REMARK  status: ('A' for Active; 'I' for Inactive)
REMARK    1  A    between atoms: C_1  and  C_2
REMARK    2  A    between atoms: C_2  and  O_3
REMARK    3  A    between atoms: O_3  and  C_4
REMARK    4  A    between atoms: C_8  and  C_11
REMARK    5  A    between atoms: C_9  and  O_10
REMARK    6  A    between atoms: C_14  and  C_28
REMARK    7  A    between atoms: C_16  and  C_18
REMARK    8  A    between atoms: C_21  and  C_24
REMARK    9  A    between atoms: C_24  and  O_26
REMARK   10  A    between atoms: O_26  and  C_27
REMARK   11  A    between atoms: C_31  and  O_34
REMARK   12  A    between atoms: O_34  and  C_35
REMARK                            x       y       z     vdW  Elec       q    Type
REMARK                         _______ _______ _______ _____ _____    ______ ____
ROOT
ATOM      1  C   UNL     1      -0.730   1.580   1.268  0.00  0.00    -0.028 C 
ATOM      2  C   UNL     1      -0.013   1.086   0.008  0.00  0.00    +0.044 C 
ATOM      3  C   UNL     1      -0.740   1.584  -1.210  0.00  0.00    +0.040 C 
ATOM      4  N   UNL     1      -1.603   2.529  -1.171  0.00  0.00    -0.299 NA
ATOM      5  C   UNL     1      -1.996   3.228   0.045  0.00  0.00    +0.081 C 
ATOM      6  N   UNL     1      -1.002   3.022   1.110  0.00  0.00    +0.401 N 
ATOM      7  H   UNL     1      -0.133   3.508   0.863  0.00  0.00    -0.081 HD
ATOM      8  H   UNL     1      -1.366   3.398   1.993  0.00  0.00    -0.081 HD
ENDROOT
BRANCH   1  13
ATOM      9  C   UNL     1       1.043  -0.090   4.166  0.00  0.00    +0.162 A 
ATOM     10  C   UNL     1       1.770   0.968   4.686  0.00  0.00    +0.049 A 
ATOM     11  C   UNL     1       1.687   2.218   4.100  0.00  0.00    +0.004 A 
ATOM     12  C   UNL     1       0.883   2.413   2.992  0.00  0.00    +0.006 A 
ATOM     13  C   UNL     1       0.150   1.362   2.472  0.00  0.00    -0.016 A 
ATOM     14  C   UNL     1       0.229   0.107   3.055  0.00  0.00    +0.160 A 
BRANCH  14  15
ATOM     15  O   UNL     1      -0.486  -0.929   2.541  0.00  0.00    -0.503 OA
ATOM     16  H   UNL     1      -0.017  -1.432   1.862  0.00  0.00    +0.292 HD
ENDBRANCH  14  15
BRANCH   9  17
ATOM     17  O   UNL     1       1.123  -1.320   4.742  0.00  0.00    -0.489 OA
BRANCH  17  19
ATOM     18  C   UNL     1       1.940  -2.892   6.386  0.00  0.00    +0.048 C 
ATOM     19  C   UNL     1       1.978  -1.449   5.880  0.00  0.00    +0.226 C 
ENDBRANCH  17  19
ENDBRANCH   9  17
ENDBRANCH   1  13
BRANCH   5  20
ATOM     20  C   UNL     1      -2.108   4.703  -0.244  0.00  0.00    -0.040 A 
ATOM     21  C   UNL     1      -1.856   5.623   0.759  0.00  0.00    +0.004 A 
ATOM     22  C   UNL     1      -1.952   6.974   0.499  0.00  0.00    +0.015 A 
ATOM     23  C   UNL     1      -2.314   7.413  -0.776  0.00  0.00    +0.059 A 
ATOM     24  C   UNL     1      -2.572   6.479  -1.782  0.00  0.00    +0.015 A 
ATOM     25  C   UNL     1      -2.467   5.131  -1.510  0.00  0.00    +0.004 A 
BRANCH  23  26
ATOM     26  C   UNL     1      -2.424   8.859  -1.060  0.00  0.00    +0.339 C 
ATOM     27  O   UNL     1      -2.739   9.237  -2.170  0.00  0.00    -0.245 OA
BRANCH  26  28
ATOM     28  O   UNL     1      -2.175   9.757  -0.087  0.00  0.00    -0.464 OA
ATOM     29  C   UNL     1      -2.302  11.160  -0.438  0.00  0.00    +0.280 C 
ENDBRANCH  26  28
ENDBRANCH  23  26
ENDBRANCH   5  20
BRANCH   3  30
ATOM     30  C   UNL     1      -0.445   0.955  -2.510  0.00  0.00    -0.004 A 
ATOM     31  C   UNL     1       0.496  -0.076  -2.593  0.00  0.00    +0.013 A 
ATOM     32  C   UNL     1       0.764  -0.665  -3.809  0.00  0.00    +0.046 A 
ATOM     33  C   UNL     1       0.110  -0.228  -4.954  0.00  0.00    +0.120 A 
ATOM     34  C   UNL     1      -0.822   0.800  -4.878  0.00  0.00    +0.046 A 
ATOM     35  C   UNL     1      -1.101   1.391  -3.665  0.00  0.00    +0.013 A 
BRANCH  33  36
ATOM     36  O   UNL     1       0.382  -0.807  -6.152  0.00  0.00    -0.495 OA
ATOM     37  C   UNL     1       1.349  -1.858  -6.159  0.00  0.00    +0.277 C 
ENDBRANCH  33  36
ENDBRANCH   3  30
TORSDOF 9
