REMARK  Name = ZINC26123674
REMARK  13 active torsions:
REMARK  status: ('A' for Active; 'I' for Inactive)
REMARK    1  A    between atoms: C_1  and  C_2
REMARK    2  A    between atoms: C_2  and  C_4
REMARK    3  A    between atoms: C_2  and  S_17
REMARK    4  A    between atoms: N_6  and  C_7
REMARK    5  A    between atoms: S_17  and  C_18
REMARK    6  A    between atoms: C_21  and  C_24
REMARK    7  A    between atoms: N_22  and  N_23
REMARK    8  A    between atoms: C_24  and  O_25
REMARK    9  A    between atoms: O_25  and  C_26
REMARK   10  A    between atoms: C_29  and  C_32
REMARK   11  A    between atoms: C_32  and  C_33
REMARK   12  A    between atoms: C_32  and  C_34
REMARK   13  A    between atoms: C_32  and  C_35
REMARK                            x       y       z     vdW  Elec       q    Type
REMARK                         _______ _______ _______ _____ _____    ______ ____
ROOT
ATOM      1  C   UNL     1       1.675   1.838   2.550  0.00  0.00    +0.209 A 
ATOM      2  N   UNL     1       1.996   2.659   1.577  0.00  0.00    -0.121 NA
ATOM      3  N   UNL     1       3.187   3.107   1.761  0.00  0.00    -0.128 NA
ATOM      4  C   UNL     1       3.695   2.597   2.847  0.00  0.00    +0.189 A 
ATOM      5  N   UNL     1       2.750   1.770   3.388  0.00  0.00    -0.225 N 
ENDROOT
BRANCH   5   6
ATOM      6  N   UNL     1       2.859   1.029   4.531  0.00  0.00    -0.295 N 
ATOM      7  H   UNL     1       3.786   1.063   5.122  0.00  0.00    +0.163 HD
ATOM      8  H   UNL     1       2.019   0.400   4.861  0.00  0.00    +0.163 HD
ENDBRANCH   5   6
BRANCH   1   9
ATOM      9  S   UNL     1       0.147   0.980   2.733  0.00  0.00    -0.072 S 
BRANCH   9  11
ATOM     10  C   UNL     1      -0.013   1.086   0.008  0.00  0.00    +0.029 C 
ATOM     11  C   UNL     1      -0.729   1.579   1.267  0.00  0.00    +0.137 C 
BRANCH  11  12
ATOM     12  C   UNL     1      -2.143   1.058   1.278  0.00  0.00    +0.227 C 
ATOM     13  O   UNL     1      -2.427   0.089   1.950  0.00  0.00    -0.275 OA
ATOM     14  N   UNL     1      -3.091   1.667   0.539  0.00  0.00    -0.309 N 
ATOM     15  H   UNL     1      -2.834   2.546  -0.071  0.00  0.00    +0.149 HD
BRANCH  14  16
ATOM     16  C   UNL     1      -4.466   1.160   0.550  0.00  0.00    +0.035 C 
ATOM     17  C   UNL     1      -5.017   1.211   1.976  0.00  0.00    +0.029 C 
ATOM     18  C   UNL     1      -6.453   0.681   1.987  0.00  0.00    -0.008 C 
ATOM     19  C   UNL     1      -7.323   1.547   1.073  0.00  0.00    +0.007 C 
ATOM     20  C   UNL     1      -6.771   1.496  -0.353  0.00  0.00    -0.008 C 
ATOM     21  C   UNL     1      -5.336   2.025  -0.364  0.00  0.00    +0.029 C 
ATOM     22  C   UNL     1      -6.785   0.050  -0.855  0.00  0.00    +0.007 C 
ATOM     23  C   UNL     1      -5.915  -0.815   0.060  0.00  0.00    -0.008 C 
ATOM     24  C   UNL     1      -6.467  -0.764   1.486  0.00  0.00    +0.007 C 
ATOM     25  C   UNL     1      -4.480  -0.285   0.049  0.00  0.00    +0.029 C 
ENDBRANCH  14  16
ENDBRANCH  11  12
ENDBRANCH   9  11
ENDBRANCH   1   9
BRANCH   4  26
ATOM     26  C   UNL     1       5.069   2.867   3.403  0.00  0.00    +0.306 C 
BRANCH  26  27
ATOM     27  O   UNL     1       5.996   1.922   2.864  0.00  0.00    -0.484 OA
BRANCH  27  28
ATOM     28  C   UNL     1       7.289   2.028   3.267  0.00  0.00    +0.121 A 
ATOM     29  C   UNL     1       7.660   3.024   4.158  0.00  0.00    +0.046 A 
ATOM     30  C   UNL     1       8.975   3.126   4.571  0.00  0.00    +0.008 A 
ATOM     31  C   UNL     1       9.923   2.243   4.087  0.00  0.00    -0.042 A 
ATOM     32  C   UNL     1       9.556   1.253   3.194  0.00  0.00    +0.008 A 
ATOM     33  C   UNL     1       8.242   1.143   2.783  0.00  0.00    +0.046 A 
BRANCH  31  34
ATOM     34  C   UNL     1      11.357   2.360   4.534  0.00  0.00    -0.013 C 
ATOM     35  C   UNL     1      12.251   2.609   3.317  0.00  0.00    +0.015 C 
ATOM     36  C   UNL     1      11.492   3.528   5.513  0.00  0.00    +0.015 C 
ATOM     37  C   UNL     1      11.784   1.063   5.224  0.00  0.00    +0.015 C 
ENDBRANCH  31  34
ENDBRANCH  27  28
ENDBRANCH  26  27
ENDBRANCH   4  26
TORSDOF 9
