REMARK  Name = ZINC35744220
REMARK  7 active torsions:
REMARK  status: ('A' for Active; 'I' for Inactive)
REMARK    1  A    between atoms: C_1  and  C_2
REMARK    2  A    between atoms: C_2  and  C_3
REMARK    3  A    between atoms: C_2  and  N_4
REMARK    4  A    between atoms: C_5  and  C_7
REMARK    5  A    between atoms: C_7  and  N_8
REMARK    6  A    between atoms: N_10  and  C_32
REMARK    7  A    between atoms: N_21  and  C_22
REMARK                            x       y       z     vdW  Elec       q    Type
REMARK                         _______ _______ _______ _____ _____    ______ ____
ROOT
ATOM      1  N   UNL     1      -3.100  -3.596  -1.064  0.00  0.00    -0.275 N 
ATOM      2  C   UNL     1      -3.308  -3.880  -2.483  0.00  0.00    +0.217 C 
ATOM      3  N   UNL     1      -3.250  -5.336  -2.669  0.00  0.00    -0.300 N 
ATOM      4  C   UNL     1      -3.006  -5.901  -1.336  0.00  0.00    +0.115 C 
ATOM      5  C   UNL     1      -2.918  -4.739  -0.382  0.00  0.00    +0.241 C 
ATOM      6  O   UNL     1      -2.718  -4.822   0.812  0.00  0.00    -0.273 OA
ATOM      7  C   UNL     1      -4.159  -6.824  -0.943  0.00  0.00    +0.054 C 
ATOM      8  C   UNL     1      -4.262  -7.968  -1.956  0.00  0.00    +0.112 C 
ATOM      9  N   UNL     1      -2.956  -8.633  -2.052  0.00  0.00    -0.285 N 
ATOM     10  C   UNL     1      -1.769  -7.819  -2.350  0.00  0.00    +0.112 C 
ATOM     11  C   UNL     1      -1.688  -6.676  -1.333  0.00  0.00    +0.054 C 
ATOM     12  C   UNL     1      -2.847  -9.964  -1.871  0.00  0.00    +0.303 C 
ATOM     13  O   UNL     1      -1.751 -10.489  -1.863  0.00  0.00    -0.253 OA
ATOM     14  N   UNL     1      -3.954 -10.713  -1.698  0.00  0.00    -0.294 N 
ATOM     15  H   UNL     1      -4.832 -10.307  -1.777  0.00  0.00    +0.151 HD
ENDROOT
BRANCH  14  16
ATOM     16  C   UNL     1      -3.833 -12.140  -1.392  0.00  0.00    +0.037 C 
ATOM     17  C   UNL     1      -3.084 -12.843  -2.527  0.00  0.00    +0.029 C 
ATOM     18  C   UNL     1      -2.958 -14.334  -2.207  0.00  0.00    -0.008 C 
ATOM     19  C   UNL     1      -4.353 -14.945  -2.061  0.00  0.00    +0.007 C 
ATOM     20  C   UNL     1      -5.101 -14.242  -0.927  0.00  0.00    -0.008 C 
ATOM     21  C   UNL     1      -5.228 -12.751  -1.247  0.00  0.00    +0.029 C 
ATOM     22  C   UNL     1      -4.327 -14.419   0.381  0.00  0.00    +0.007 C 
ATOM     23  C   UNL     1      -2.932 -13.808   0.235  0.00  0.00    -0.008 C 
ATOM     24  C   UNL     1      -2.184 -14.511  -0.899  0.00  0.00    +0.007 C 
ATOM     25  C   UNL     1      -3.059 -12.318  -0.084  0.00  0.00    +0.029 C 
ENDBRANCH  14  16
BRANCH   3  26
ATOM     26  C   UNL     1      -3.398  -6.038  -3.867  0.00  0.00    +0.032 A 
ATOM     27  C   UNL     1      -3.700  -5.358  -5.040  0.00  0.00    +0.023 A 
ATOM     28  C   UNL     1      -3.845  -6.056  -6.223  0.00  0.00    +0.002 A 
ATOM     29  C   UNL     1      -3.689  -7.430  -6.241  0.00  0.00    +0.000 A 
ATOM     30  C   UNL     1      -3.389  -8.110  -5.075  0.00  0.00    +0.002 A 
ATOM     31  C   UNL     1      -3.237  -7.418  -3.889  0.00  0.00    +0.023 A 
ENDBRANCH   3  26
BRANCH   1  32
ATOM     32  C   UNL     1      -3.087  -2.256  -0.472  0.00  0.00    +0.205 C 
BRANCH  32  34
ATOM     33  N   UNL     1      -1.427  -0.483   0.000  0.00  0.00    -0.312 N 
ATOM     34  C   UNL     1      -1.682  -1.710  -0.496  0.00  0.00    +0.231 C 
ATOM     35  O   UNL     1      -0.781  -2.375  -0.963  0.00  0.00    -0.274 OA
ATOM     36  H   UNL     1      -2.148   0.048   0.373  0.00  0.00    +0.149 HD
BRANCH  33  38
ATOM     37  C   UNL     1      -0.109   1.577  -0.013  0.00  0.00    +0.027 C 
ATOM     38  C   UNL     1      -0.062   0.047  -0.024  0.00  0.00    +0.067 C 
ATOM     39  C   UNL     1       0.700  -0.448   1.207  0.00  0.00    +0.027 C 
ENDBRANCH  33  38
ENDBRANCH  32  34
ENDBRANCH   1  32
TORSDOF 5
