REMARK  Name = ZINC08879699
REMARK  6 active torsions:
REMARK  status: ('A' for Active; 'I' for Inactive)
REMARK    1  A    between atoms: C_1  and  C_2
REMARK    2  A    between atoms: C_6  and  C_25
REMARK    3  A    between atoms: C_7  and  C_11
REMARK    4  A    between atoms: C_11  and  C_12
REMARK    5  A    between atoms: N_14  and  C_15
REMARK    6  A    between atoms: C_28  and  C_31
REMARK                            x       y       z     vdW  Elec       q    Type
REMARK                         _______ _______ _______ _____ _____    ______ ____
ROOT
ATOM      1  C   UNL     1      13.540   2.794  -0.092  0.00  0.00    +0.044 C 
ATOM      2  C   UNL     1      12.161   3.369  -0.291  0.00  0.00    -0.036 A 
ATOM      3  C   UNL     1      11.371   3.626   0.793  0.00  0.00    +0.051 A 
ATOM      4  C   UNL     1      10.095   4.157   0.628  0.00  0.00    +0.143 A 
ATOM      5  C   UNL     1       9.612   4.432  -0.662  0.00  0.00    +0.064 A 
ATOM      6  C   UNL     1       8.268   4.989  -0.816  0.00  0.00    -0.026 A 
ATOM      7  C   UNL     1       7.535   5.220   0.305  0.00  0.00    +0.049 A 
ATOM      8  C   UNL     1       8.084   4.926   1.570  0.00  0.00    +0.341 A 
ATOM      9  O   UNL     1       7.421   5.142   2.569  0.00  0.00    -0.245 OA
ATOM     10  O   UNL     1       9.315   4.410   1.702  0.00  0.00    -0.422 OA
ATOM     11  C   UNL     1       7.710   5.298  -2.182  0.00  0.00    +0.045 C 
ATOM     12  C   UNL     1      10.419   4.169  -1.782  0.00  0.00    +0.146 A 
ATOM     13  C   UNL     1      11.700   3.635  -1.583  0.00  0.00    +0.027 A 
ATOM     14  C   UNL     1      12.273   3.482  -2.926  0.00  0.00    -0.005 A 
ATOM     15  C   UNL     1      11.338   3.915  -3.783  0.00  0.00    +0.199 A 
ATOM     16  O   UNL     1      10.247   4.320  -3.108  0.00  0.00    -0.462 OA
ATOM     17  C   UNL     1      13.638   2.946  -3.272  0.00  0.00    +0.047 C 
ENDROOT
BRANCH   7  18
ATOM     18  C   UNL     1       6.146   5.792   0.197  0.00  0.00    +0.138 C 
BRANCH  18  19
ATOM     19  C   UNL     1       5.147   4.670   0.082  0.00  0.00    +0.222 C 
ATOM     20  O   UNL     1       5.527   3.518   0.087  0.00  0.00    -0.275 OA
ATOM     21  N   UNL     1       3.833   4.946  -0.027  0.00  0.00    -0.285 N 
ATOM     22  H   UNL     1       3.535   5.865  -0.106  0.00  0.00    +0.155 HD
BRANCH  21  23
ATOM     23  C   UNL     1       2.895   3.904  -0.025  0.00  0.00    +0.034 A 
ATOM     24  C   UNL     1       1.729   4.018  -0.779  0.00  0.00    +0.025 A 
ATOM     25  C   UNL     1       0.798   3.004  -0.788  0.00  0.00    +0.028 A 
ATOM     26  C   UNL     1       1.017   1.852  -0.039  0.00  0.00    +0.047 A 
ATOM     27  C   UNL     1       2.192   1.733   0.723  0.00  0.00    +0.001 A 
ATOM     28  C   UNL     1       3.131   2.767   0.725  0.00  0.00    +0.033 A 
ATOM     29  C   UNL     1       2.119   0.426   1.381  0.00  0.00    +0.027 A 
ATOM     30  C   UNL     1       0.961  -0.138   1.005  0.00  0.00    +0.083 A 
ATOM     31  N   UNL     1       0.291   0.695   0.151  0.00  0.00    -0.361 N 
ATOM     32  H   UNL     1      -0.568   0.503  -0.256  0.00  0.00    +0.165 HD
ENDBRANCH  21  23
ENDBRANCH  18  19
ENDBRANCH   7  18
TORSDOF 3
