REMARK  Name = ZINC64541016
REMARK  6 active torsions:
REMARK  status: ('A' for Active; 'I' for Inactive)
REMARK    1  A    between atoms: C_5  and  C_12
REMARK    2  A    between atoms: C_17  and  C_20
REMARK    3  A    between atoms: C_20  and  C_21
REMARK    4  A    between atoms: N_23  and  C_24
REMARK    5  A    between atoms: C_24  and  C_25
REMARK    6  A    between atoms: C_25  and  N_26
REMARK                            x       y       z     vdW  Elec       q    Type
REMARK                         _______ _______ _______ _____ _____    ______ ____
ROOT
ATOM      1  C   UNL     1       5.431   0.946   1.189  0.00  0.00    +0.242 C 
ATOM      2  O   UNL     1       5.276   1.827   2.008  0.00  0.00    -0.273 OA
ATOM      3  N   UNL     1       6.383   0.012   1.376  0.00  0.00    -0.300 N 
ATOM      4  C   UNL     1       6.586  -1.058   0.389  0.00  0.00    +0.108 C 
ATOM      5  C   UNL     1       6.523  -2.410   1.107  0.00  0.00    +0.023 C 
ATOM      6  C   UNL     1       7.530  -2.418   2.259  0.00  0.00    +0.001 C 
ATOM      7  C   UNL     1       7.169  -1.321   3.263  0.00  0.00    +0.023 C 
ATOM      8  C   UNL     1       7.243   0.047   2.567  0.00  0.00    +0.108 C 
ENDROOT
BRANCH   1  13
ATOM      9  C   UNL     1      -0.017   1.399   0.010  0.00  0.00    +0.022 A 
ATOM     10  C   UNL     1       1.109   2.143   0.003  0.00  0.00    +0.027 A 
ATOM     11  C   UNL     1       2.385   1.516  -0.013  0.00  0.00    +0.043 A 
ATOM     12  N   UNL     1       3.600   2.009  -0.022  0.00  0.00    -0.370 N 
ATOM     13  C   UNL     1       4.557   0.897  -0.038  0.00  0.00    +0.190 C 
ATOM     14  C   UNL     1       3.724  -0.366  -0.036  0.00  0.00    +0.016 C 
ATOM     15  C   UNL     1       2.433   0.036  -0.021  0.00  0.00    -0.002 A 
ATOM     16  C   UNL     1       1.163  -0.699  -0.013  0.00  0.00    +0.029 A 
ATOM     17  C   UNL     1       0.002  -0.004   0.002  0.00  0.00    +0.042 A 
ATOM     18 CL   UNL     1      -1.502  -0.870   0.012  0.00  0.00    -0.084 Cl
ATOM     19  H   UNL     1       3.828   2.952  -0.020  0.00  0.00    +0.161 HD
ENDBRANCH   1  13
BRANCH   6  20
ATOM     20  C   UNL     1       7.495  -3.779   2.958  0.00  0.00    +0.099 C 
BRANCH  20  21
ATOM     21  C   UNL     1       8.570  -3.831   4.012  0.00  0.00    +0.213 C 
ATOM     22  O   UNL     1       9.294  -2.874   4.188  0.00  0.00    -0.276 OA
ATOM     23  N   UNL     1       8.727  -4.941   4.760  0.00  0.00    -0.317 N 
ATOM     24  H   UNL     1       8.149  -5.707   4.619  0.00  0.00    +0.149 HD
BRANCH  23  25
ATOM     25  C   UNL     1       9.773  -4.992   5.785  0.00  0.00    +0.085 C 
BRANCH  25  26
ATOM     26  C   UNL     1       9.737  -6.353   6.483  0.00  0.00    -0.060 C 
BRANCH  26  27
ATOM     27  N   UNL     1      10.785  -6.404   7.511  0.00  0.00    +0.381 N 
ATOM     28  C   UNL     1      10.456  -5.477   8.624  0.00  0.00    -0.079 C 
ATOM     29  C   UNL     1      11.282  -6.039   9.809  0.00  0.00    -0.020 C 
ATOM     30  C   UNL     1      11.184  -7.568   9.604  0.00  0.00    -0.020 C 
ATOM     31  C   UNL     1      10.844  -7.753   8.113  0.00  0.00    -0.079 C 
ATOM     32  H   UNL     1      11.679  -6.163   7.109  0.00  0.00    -0.082 HD
ENDBRANCH  26  27
ENDBRANCH  25  26
ENDBRANCH  23  25
ENDBRANCH  20  21
ENDBRANCH   6  20
TORSDOF 6
