REMARK  Name = ZINC34380653
REMARK  8 active torsions:
REMARK  status: ('A' for Active; 'I' for Inactive)
REMARK    1  A    between atoms: C_1  and  C_2
REMARK    2  A    between atoms: C_2  and  C_4
REMARK    3  A    between atoms: C_2  and  O_35
REMARK    4  A    between atoms: C_4  and  C_32
REMARK    5  A    between atoms: C_9  and  C_12
REMARK    6  A    between atoms: C_17  and  O_18
REMARK    7  A    between atoms: N_22  and  C_25
REMARK    8  A    between atoms: C_25  and  C_26
REMARK                            x       y       z     vdW  Elec       q    Type
REMARK                         _______ _______ _______ _____ _____    ______ ____
ROOT
ATOM      1  C   UNL     1       0.644  -0.267   1.306  0.00  0.00    +0.074 C 
ATOM      2  C   UNL     1       0.536  -1.786   1.218  0.00  0.00    +0.088 C 
ATOM      3  C   UNL     1       0.988  -2.100   2.694  0.00  0.00    +0.077 C 
ATOM      4  C   UNL     1       0.174  -1.185   3.503  0.00  0.00    -0.023 C 
ATOM      5  N   UNL     1       0.023   0.041   2.636  0.00  0.00    +0.397 N 
ATOM      6  C   UNL     1       1.326  -3.501   2.612  0.00  0.00    +0.225 C 
ATOM      7  O   UNL     1       1.195  -4.344   3.473  0.00  0.00    -0.275 OA
ATOM      8  N   UNL     1       1.830  -3.670   1.346  0.00  0.00    -0.237 N 
ATOM      9  C   UNL     1       1.582  -2.595   0.517  0.00  0.00    +0.225 C 
ATOM     10  O   UNL     1       2.101  -2.348  -0.550  0.00  0.00    -0.275 OA
ATOM     11  H   UNL     1       0.492   0.828   3.058  0.00  0.00    -0.083 HD
ATOM     12  H   UNL     1      -0.957   0.248   2.516  0.00  0.00    -0.083 HD
ENDROOT
BRANCH   4  13
ATOM     13  C   UNL     1      -1.164  -1.806   3.815  0.00  0.00    -0.018 A 
ATOM     14  C   UNL     1      -2.245  -1.569   2.987  0.00  0.00    +0.020 A 
ATOM     15  C   UNL     1      -3.473  -2.139   3.273  0.00  0.00    +0.018 A 
ATOM     16  C   UNL     1      -3.620  -2.946   4.387  0.00  0.00    +0.019 A 
ATOM     17  C   UNL     1      -2.542  -3.185   5.216  0.00  0.00    +0.047 A 
ATOM     18  C   UNL     1      -1.308  -2.619   4.929  0.00  0.00    +0.119 A 
ATOM     19 BR   UNL     1      -4.951  -1.814   2.140  0.00  0.00    -0.050 Br
BRANCH  18  20
ATOM     20  O   UNL     1      -0.245  -2.857   5.741  0.00  0.00    -0.507 OA
ATOM     21  H   UNL     1      -0.151  -2.220   6.463  0.00  0.00    +0.292 HD
ENDBRANCH  18  20
ENDBRANCH   4  13
BRANCH   1  22
ATOM     22  C   UNL     1       2.086   0.171   1.276  0.00  0.00    +0.349 C 
ATOM     23  O   UNL     1       2.564   0.757   2.232  0.00  0.00    -0.248 OA
ATOM     24  O   UNL     1       2.773  -0.061   0.297  0.00  0.00    -0.248 OA
ENDBRANCH   1  22
BRANCH   1  26
ATOM     25  C   UNL     1      -0.119   1.916   0.359  0.00  0.00    +0.037 C 
ATOM     26  C   UNL     1      -0.144   0.397   0.175  0.00  0.00    +0.112 C 
BRANCH  26  27
ATOM     27  O   UNL     1      -1.496  -0.063   0.202  0.00  0.00    -0.393 OA
ATOM     28  H   UNL     1      -2.056   0.318  -0.489  0.00  0.00    +0.210 HD
ENDBRANCH  26  27
ENDBRANCH   1  26
BRANCH   8  29
ATOM     29  C   UNL     1       2.546  -4.872   0.912  0.00  0.00    +0.151 C 
BRANCH  29  30
ATOM     30  C   UNL     1       1.562  -5.868   0.352  0.00  0.00    -0.030 A 
ATOM     31  C   UNL     1       0.969  -6.797   1.186  0.00  0.00    +0.005 A 
ATOM     32  C   UNL     1       0.067  -7.710   0.672  0.00  0.00    +0.000 A 
ATOM     33  C   UNL     1      -0.242  -7.694  -0.675  0.00  0.00    +0.000 A 
ATOM     34  C   UNL     1       0.351  -6.764  -1.509  0.00  0.00    +0.000 A 
ATOM     35  C   UNL     1       1.250  -5.848  -0.995  0.00  0.00    +0.005 A 
ENDBRANCH  29  30
ENDBRANCH   8  29
TORSDOF 7
