REMARK  Name = ZINC04502890
REMARK  7 active torsions:
REMARK  status: ('A' for Active; 'I' for Inactive)
REMARK    1  A    between atoms: C_1  and  C_2
REMARK    2  A    between atoms: C_2  and  C_18
REMARK    3  A    between atoms: N_3  and  N_4
REMARK    4  A    between atoms: C_5  and  C_7
REMARK    5  A    between atoms: C_18  and  C_19
REMARK    6  A    between atoms: C_18  and  C_20
REMARK    7  A    between atoms: C_18  and  C_21
REMARK                            x       y       z     vdW  Elec       q    Type
REMARK                         _______ _______ _______ _____ _____    ______ ____
ROOT
ATOM      1  N   UNL     1       1.830  -0.099  -3.233  0.00  0.00    -0.204 N 
ATOM      2  C   UNL     1       2.322   0.788  -4.120  0.00  0.00    +0.276 C 
ATOM      3  O   UNL     1       2.197   1.978  -3.921  0.00  0.00    -0.270 OA
ATOM      4  H   UNL     1       1.930  -1.050  -3.393  0.00  0.00    +0.177 HD
ENDROOT
BRANCH   2   5
ATOM      5  C   UNL     1       3.027   0.302  -5.360  0.00  0.00    +0.297 C 
ATOM      6  C   UNL     1       2.031  -0.428  -6.270  0.00  0.00    +0.283 C 
ATOM      7  O   UNL     1       2.729  -0.864  -7.441  0.00  0.00    -0.484 OA
ATOM      8  C   UNL     1       3.544   0.047  -8.041  0.00  0.00    +0.162 A 
ATOM      9  C   UNL     1       3.963  -0.170  -9.345  0.00  0.00    +0.049 A 
ATOM     10  C   UNL     1       4.796   0.742  -9.966  0.00  0.00    +0.004 A 
ATOM     11  C   UNL     1       5.213   1.873  -9.288  0.00  0.00    +0.004 A 
ATOM     12  C   UNL     1       4.798   2.095  -7.989  0.00  0.00    +0.049 A 
ATOM     13  C   UNL     1       3.961   1.185  -7.361  0.00  0.00    +0.163 A 
ATOM     14  O   UNL     1       3.559   1.419  -6.082  0.00  0.00    -0.472 OA
ENDBRANCH   2   5
BRANCH   1  17
ATOM     15  C   UNL     1       0.863  -1.968  -1.486  0.00  0.00    +0.063 C 
ATOM     16  C   UNL     1       0.707  -0.490  -1.238  0.00  0.00    +0.039 C 
ATOM     17  N   UNL     1       1.175   0.353  -2.080  0.00  0.00    -0.189 NA
BRANCH  16  18
ATOM     18  C   UNL     1       0.002  -0.004   0.002  0.00  0.00    +0.002 C 
ATOM     19  C   UNL     1      -0.019   1.526   0.010  0.00  0.00    +0.017 C 
ATOM     20  C   UNL     1       0.742  -0.511   1.242  0.00  0.00    +0.017 C 
ATOM     21  C   UNL     1      -1.433  -0.534   0.013  0.00  0.00    +0.017 C 
ENDBRANCH  16  18
ENDBRANCH   1  17
TORSDOF 3
