REMARK  Name = ZINC45699568
REMARK  7 active torsions:
REMARK  status: ('A' for Active; 'I' for Inactive)
REMARK    1  A    between atoms: C_7  and  C_11
REMARK    2  A    between atoms: C_14  and  S_16
REMARK    3  A    between atoms: S_16  and  C_17
REMARK    4  A    between atoms: C_17  and  C_18
REMARK    5  A    between atoms: C_18  and  C_19
REMARK    6  A    between atoms: N_21  and  C_22
REMARK    7  A    between atoms: C_23  and  C_31
REMARK                            x       y       z     vdW  Elec       q    Type
REMARK                         _______ _______ _______ _____ _____    ______ ____
ROOT
ATOM      1  C   UNL     1      -2.040  -7.320  -0.018  0.00  0.00    +0.088 C 
ENDROOT
BRANCH   1   2
ATOM      2  S   UNL     1      -0.250  -7.026  -0.027  0.00  0.00    -0.065 S 
BRANCH   2   6
ATOM      3  C   UNL     1       0.685  -3.260  -0.022  0.00  0.00    +0.251 A 
ATOM      4  N   UNL     1      -0.626  -3.213  -0.015  0.00  0.00    -0.106 NA
ATOM      5  N   UNL     1      -1.097  -4.410  -0.015  0.00  0.00    -0.101 NA
ATOM      6  C   UNL     1      -0.106  -5.270  -0.024  0.00  0.00    +0.278 A 
ATOM      7  O   UNL     1       1.042  -4.564  -0.034  0.00  0.00    -0.411 OA
BRANCH   3  14
ATOM      8  C   UNL     1      -0.017   1.363   0.009  0.00  0.00    +0.001 A 
ATOM      9  C   UNL     1       1.170   2.083   0.002  0.00  0.00    +0.002 A 
ATOM     10  C   UNL     1       2.385   1.434  -0.013  0.00  0.00    +0.026 A 
ATOM     11  C   UNL     1       2.425   0.043  -0.021  0.00  0.00    +0.047 A 
ATOM     12  C   UNL     1       1.221  -0.680  -0.013  0.00  0.00    +0.012 A 
ATOM     13  C   UNL     1       0.002  -0.004   0.002  0.00  0.00    +0.011 A 
ATOM     14  C   UNL     1       1.601  -2.103  -0.025  0.00  0.00    +0.063 A 
ATOM     15  C   UNL     1       2.959  -2.143  -0.039  0.00  0.00    +0.097 A 
ATOM     16  N   UNL     1       3.456  -0.872  -0.036  0.00  0.00    -0.360 N 
ATOM     17  H   UNL     1       4.399  -0.646  -0.044  0.00  0.00    +0.165 HD
ENDBRANCH   3  14
ENDBRANCH   2   6
ENDBRANCH   1   2
BRANCH   1  18
ATOM     18  C   UNL     1      -2.309  -8.826  -0.020  0.00  0.00    +0.107 C 
BRANCH  18  19
ATOM     19  C   UNL     1      -3.796  -9.070  -0.012  0.00  0.00    +0.218 C 
ATOM     20  O   UNL     1      -4.565  -8.132  -0.005  0.00  0.00    -0.275 OA
ATOM     21  N   UNL     1      -4.272 -10.331  -0.012  0.00  0.00    -0.279 N 
ATOM     22  H   UNL     1      -3.657 -11.082  -0.017  0.00  0.00    +0.155 HD
BRANCH  21  23
ATOM     23  C   UNL     1      -5.642 -10.556  -0.004  0.00  0.00    +0.090 A 
ATOM     24  C   UNL     1      -6.305 -11.772   0.002  0.00  0.00    +0.084 A 
ATOM     25  C   UNL     1      -7.756 -11.738   0.010  0.00  0.00    -0.018 A 
ATOM     26  C   UNL     1      -8.279 -10.492   0.009  0.00  0.00    -0.004 A 
ATOM     27  S   UNL     1      -6.875  -9.417   0.006  0.00  0.00    -0.077 S 
ATOM     28  C   UNL     1      -9.731 -10.126   0.015  0.00  0.00    +0.043 C 
ATOM     29  C   UNL     1     -10.544 -11.374  -0.360  0.00  0.00    +0.005 C 
ATOM     30  C   UNL     1     -10.050 -12.557   0.477  0.00  0.00    +0.005 C 
ATOM     31  C   UNL     1      -8.649 -12.970   0.019  0.00  0.00    +0.037 C 
BRANCH  24  32
ATOM     32  C   UNL     1      -5.588 -13.012   0.001  0.00  0.00    +0.102 C 
ATOM     33  N   UNL     1      -5.020 -13.996  -0.000  0.00  0.00    -0.191 NA
ENDBRANCH  24  32
ENDBRANCH  21  23
ENDBRANCH  18  19
ENDBRANCH   1  18
TORSDOF 7
