REMARK  Name = ZINC63933252
REMARK  9 active torsions:
REMARK  status: ('A' for Active; 'I' for Inactive)
REMARK    1  A    between atoms: C_1  and  O_2
REMARK    2  A    between atoms: O_2  and  C_3
REMARK    3  A    between atoms: C_6  and  C_9
REMARK    4  A    between atoms: C_9  and  N_10
REMARK    5  A    between atoms: C_11  and  O_37
REMARK    6  A    between atoms: C_14  and  O_36
REMARK    7  A    between atoms: C_15  and  C_19
REMARK    8  A    between atoms: C_26  and  O_31
REMARK    9  A    between atoms: O_31  and  C_32
REMARK                            x       y       z     vdW  Elec       q    Type
REMARK                         _______ _______ _______ _____ _____    ______ ____
ROOT
ATOM      1  N   UNL     1       1.582  -2.650   5.548  0.00  0.00    -0.252 N 
ATOM      2  C   UNL     1       1.342  -1.730   6.650  0.00  0.00    +0.334 C 
ATOM      3  N   UNL     1       0.750  -2.394   7.800  0.00  0.00    -0.204 NA
ATOM      4  C   UNL     1       0.137  -3.512   7.745  0.00  0.00    +0.200 C 
ATOM      5  C   UNL     1      -0.044  -4.281   6.469  0.00  0.00    +0.179 C 
ATOM      6  C   UNL     1       0.946  -3.823   5.436  0.00  0.00    +0.233 C 
ATOM      7  O   UNL     1       1.177  -4.534   4.481  0.00  0.00    -0.275 OA
ENDROOT
BRANCH   5   8
ATOM      8  C   UNL     1      -1.460  -4.053   5.937  0.00  0.00    +0.101 C 
ATOM      9  C   UNL     1      -1.692  -4.921   4.698  0.00  0.00    +0.124 C 
ATOM     10  C   UNL     1      -3.048  -4.510   4.137  0.00  0.00    -0.036 C 
ATOM     11  C   UNL     1      -3.764  -5.621   4.034  0.00  0.00    +0.003 A 
ATOM     12  C   UNL     1      -5.104  -5.882   3.487  0.00  0.00    +0.055 A 
ATOM     13  C   UNL     1      -5.552  -7.166   3.553  0.00  0.00    +0.121 A 
ATOM     14  C   UNL     1      -4.816  -8.225   4.104  0.00  0.00    +0.047 A 
ATOM     15  C   UNL     1      -3.571  -8.098   4.630  0.00  0.00    +0.029 A 
ATOM     16  C   UNL     1      -2.976  -6.755   4.610  0.00  0.00    +0.043 A 
ATOM     17  N   UNL     1      -1.793  -6.344   5.019  0.00  0.00    -0.376 N 
ATOM     18  C   UNL     1      -3.398  -3.062   3.893  0.00  0.00    +0.048 C 
ATOM     19  C   UNL     1      -2.998  -2.303   5.171  0.00  0.00    +0.085 C 
ATOM     20  N   UNL     1      -1.625  -2.643   5.552  0.00  0.00    -0.310 NA
ATOM     21  H   UNL     1      -1.287  -2.028   6.278  0.00  0.00    +0.122 HD
ATOM     22  H   UNL     1      -1.111  -6.878   5.457  0.00  0.00    +0.160 HD
BRANCH  13  23
ATOM     23  O   UNL     1      -6.788  -7.437   3.056  0.00  0.00    -0.495 OA
ATOM     24  C   UNL     1      -7.236  -8.791   3.137  0.00  0.00    +0.277 C 
ENDBRANCH  13  23
ENDBRANCH   5   8
BRANCH   4  25
ATOM     25  O   UNL     1      -0.371  -4.024   8.885  0.00  0.00    -0.495 OA
ATOM     26  H   UNL     1      -0.217  -3.476   9.666  0.00  0.00    +0.293 HD
ENDBRANCH   4  25
BRANCH   2  27
ATOM     27  O   UNL     1       0.458  -0.697   6.208  0.00  0.00    -0.356 OA
ATOM     28  H   UNL     1       0.249  -0.041   6.887  0.00  0.00    +0.214 HD
ENDBRANCH   2  27
BRANCH   1  29
ATOM     29  C   UNL     1       2.553  -2.275   4.517  0.00  0.00    +0.147 C 
BRANCH  29  33
ATOM     30  C   UNL     1       0.569  -0.122   1.404  0.00  0.00    +0.120 A 
ATOM     31  C   UNL     1       1.106   0.559   2.487  0.00  0.00    +0.046 A 
ATOM     32  C   UNL     1       1.747  -0.140   3.492  0.00  0.00    +0.009 A 
ATOM     33  C   UNL     1       1.853  -1.516   3.420  0.00  0.00    -0.030 A 
ATOM     34  C   UNL     1       1.320  -2.197   2.341  0.00  0.00    +0.009 A 
ATOM     35  C   UNL     1       0.673  -1.504   1.337  0.00  0.00    +0.046 A 
BRANCH  30  37
ATOM     36  C   UNL     1      -0.131   1.983   0.550  0.00  0.00    +0.277 C 
ATOM     37  O   UNL     1      -0.062   0.562   0.414  0.00  0.00    -0.495 OA
ENDBRANCH  30  37
ENDBRANCH  29  33
ENDBRANCH   1  29
TORSDOF 7
