REMARK  Name = ZINC39443721
REMARK  9 active torsions:
REMARK  status: ('A' for Active; 'I' for Inactive)
REMARK    1  A    between atoms: C_1  and  C_2
REMARK    2  A    between atoms: C_5  and  N_8
REMARK    3  A    between atoms: C_9  and  O_41
REMARK    4  A    between atoms: C_11  and  C_20
REMARK    5  A    between atoms: C_12  and  C_14
REMARK    6  A    between atoms: C_20  and  C_21
REMARK    7  A    between atoms: C_23  and  C_35
REMARK    8  A    between atoms: N_25  and  C_28
REMARK    9  A    between atoms: C_31  and  C_34
REMARK                            x       y       z     vdW  Elec       q    Type
REMARK                         _______ _______ _______ _____ _____    ______ ____
ROOT
ATOM      1  N   UNL     1      -1.066  -4.676   0.099  0.00  0.00    -0.221 N 
ATOM      2  C   UNL     1      -0.508  -6.034  -0.006  0.00  0.00    +0.249 C 
ATOM      3  C   UNL     1      -0.136  -6.408   1.411  0.00  0.00    +0.002 C 
ATOM      4  C   UNL     1      -0.453  -5.378   2.191  0.00  0.00    +0.055 C 
ATOM      5  N   UNL     1      -0.998  -4.333   1.456  0.00  0.00    -0.261 N 
ATOM      6  H   UNL     1      -1.293  -3.488   1.830  0.00  0.00    +0.170 HD
ENDROOT
BRANCH   1  11
ATOM      7  C   UNL     1      -3.057  -1.469  -4.133  0.00  0.00    +0.044 C 
ATOM      8  C   UNL     1      -2.528  -2.321  -3.008  0.00  0.00    -0.050 A 
ATOM      9  C   UNL     1      -2.532  -1.835  -1.714  0.00  0.00    +0.005 A 
ATOM     10  C   UNL     1      -2.047  -2.613  -0.681  0.00  0.00    +0.025 A 
ATOM     11  C   UNL     1      -1.557  -3.886  -0.943  0.00  0.00    +0.051 A 
ATOM     12  C   UNL     1      -1.555  -4.371  -2.245  0.00  0.00    +0.025 A 
ATOM     13  C   UNL     1      -2.045  -3.590  -3.272  0.00  0.00    +0.005 A 
ENDBRANCH   1  11
BRANCH   4  14
ATOM     14  C   UNL     1      -0.245  -5.347   3.657  0.00  0.00    -0.003 A 
ATOM     15  C   UNL     1       0.371  -4.247   4.253  0.00  0.00    +0.010 A 
ATOM     16  C   UNL     1       0.562  -4.223   5.619  0.00  0.00    +0.001 A 
ATOM     17  C   UNL     1       0.145  -5.288   6.397  0.00  0.00    +0.000 A 
ATOM     18  C   UNL     1      -0.466  -6.383   5.811  0.00  0.00    +0.001 A 
ATOM     19  C   UNL     1      -0.669  -6.415   4.447  0.00  0.00    +0.010 A 
ENDBRANCH   4  14
BRANCH   2  20
ATOM     20  O   UNL     1       0.649  -6.034  -0.844  0.00  0.00    -0.369 OA
ATOM     21  H   UNL     1       0.477  -5.754  -1.753  0.00  0.00    +0.212 HD
ENDBRANCH   2  20
BRANCH   3  22
ATOM     22  C   UNL     1       0.480  -7.709   1.858  0.00  0.00    +0.056 C 
BRANCH  22  23
ATOM     23  C   UNL     1       1.995  -7.653   1.652  0.00  0.00    +0.132 C 
ATOM     24  C   UNL     1       2.641  -8.947   2.101  0.00  0.00    +0.079 C 
ATOM     25  N   UNL     1       3.454  -8.648   3.063  0.00  0.00    -0.176 NA
ATOM     26  N   UNL     1       3.466  -7.288   3.356  0.00  0.00    -0.160 N 
ATOM     27  C   UNL     1       2.617  -6.606   2.554  0.00  0.00    +0.249 C 
ATOM     28  O   UNL     1       2.399  -5.412   2.555  0.00  0.00    -0.273 OA
BRANCH  26  29
ATOM     29  C   UNL     1       4.255  -6.701   4.351  0.00  0.00    +0.060 A 
ATOM     30  C   UNL     1       4.191  -5.331   4.572  0.00  0.00    +0.026 A 
ATOM     31  C   UNL     1       4.972  -4.755   5.555  0.00  0.00    +0.005 A 
ATOM     32  C   UNL     1       5.816  -5.540   6.318  0.00  0.00    -0.050 A 
ATOM     33  C   UNL     1       5.882  -6.904   6.101  0.00  0.00    +0.005 A 
ATOM     34  C   UNL     1       5.100  -7.487   5.124  0.00  0.00    +0.026 A 
ATOM     35  C   UNL     1       6.668  -4.907   7.389  0.00  0.00    +0.044 C 
ENDBRANCH  26  29
BRANCH  24  36
ATOM     36  C   UNL     1       2.391 -10.291   1.548  0.00  0.00    -0.001 A 
ATOM     37  C   UNL     1       1.609 -10.444   0.401  0.00  0.00    +0.010 A 
ATOM     38  C   UNL     1       1.379 -11.704  -0.110  0.00  0.00    +0.001 A 
ATOM     39  C   UNL     1       1.922 -12.816   0.510  0.00  0.00    +0.000 A 
ATOM     40  C   UNL     1       2.698 -12.672   1.647  0.00  0.00    +0.001 A 
ATOM     41  C   UNL     1       2.941 -11.417   2.166  0.00  0.00    +0.010 A 
ENDBRANCH  24  36
ENDBRANCH  22  23
ENDBRANCH   3  22
TORSDOF 7
