REMARK  Name = ZINC36588377
REMARK  11 active torsions:
REMARK  status: ('A' for Active; 'I' for Inactive)
REMARK    1  A    between atoms: C_1  and  C_2
REMARK    2  A    between atoms: C_2  and  C_3
REMARK    3  A    between atoms: C_2  and  C_4
REMARK    4  A    between atoms: C_2  and  N_5
REMARK    5  A    between atoms: N_5  and  C_6
REMARK    6  A    between atoms: C_6  and  C_8
REMARK    7  A    between atoms: C_6  and  C_15
REMARK    8  A    between atoms: C_11  and  O_14
REMARK    9  A    between atoms: N_17  and  C_18
REMARK   10  A    between atoms: C_24  and  C_26
REMARK   11  A    between atoms: C_26  and  C_27
REMARK                            x       y       z     vdW  Elec       q    Type
REMARK                         _______ _______ _______ _____ _____    ______ ____
ROOT
ATOM      1  C   UNL     1       2.783  -0.788  -2.374  0.00  0.00    +0.193 C 
ENDROOT
BRANCH   1   2
ATOM      2  C   UNL     1       3.585   0.411  -2.809  0.00  0.00    -0.018 A 
ATOM      3  C   UNL     1       3.932   1.381  -1.887  0.00  0.00    +0.009 A 
ATOM      4  C   UNL     1       4.667   2.482  -2.283  0.00  0.00    +0.046 A 
ATOM      5  C   UNL     1       5.057   2.613  -3.608  0.00  0.00    +0.117 A 
ATOM      6  C   UNL     1       4.708   1.639  -4.532  0.00  0.00    +0.046 A 
ATOM      7  C   UNL     1       3.978   0.537  -4.129  0.00  0.00    +0.009 A 
BRANCH   5   8
ATOM      8  O   UNL     1       5.780   3.695  -4.000  0.00  0.00    -0.507 OA
ATOM      9  H   UNL     1       6.737   3.573  -3.937  0.00  0.00    +0.292 HD
ENDBRANCH   5   8
ENDBRANCH   1   2
BRANCH   1  10
ATOM     10  C   UNL     1       3.675  -1.744  -1.626  0.00  0.00    +0.238 C 
ATOM     11  O   UNL     1       3.326  -2.183  -0.550  0.00  0.00    -0.273 OA
ATOM     12  N   UNL     1       4.860  -2.112  -2.151  0.00  0.00    -0.311 N 
ATOM     13  H   UNL     1       5.139  -1.761  -3.011  0.00  0.00    +0.149 HD
BRANCH  12  14
ATOM     14  C   UNL     1       5.728  -3.042  -1.423  0.00  0.00    +0.073 C 
ATOM     15  C   UNL     1       6.580  -2.263  -0.419  0.00  0.00    +0.022 C 
ATOM     16  C   UNL     1       7.486  -3.234   0.341  0.00  0.00    +0.002 C 
ATOM     17  C   UNL     1       8.399  -3.961  -0.648  0.00  0.00    +0.000 C 
ATOM     18  C   UNL     1       7.546  -4.739  -1.653  0.00  0.00    +0.002 C 
ATOM     19  C   UNL     1       6.641  -3.768  -2.413  0.00  0.00    +0.022 C 
ENDBRANCH  12  14
ENDBRANCH   1  10
BRANCH   1  20
ATOM     20  N   UNL     1       1.690  -0.354  -1.501  0.00  0.00    -0.281 N 
ATOM     21  C   UNL     1       1.934  -0.075  -0.205  0.00  0.00    +0.221 C 
ATOM     22  O   UNL     1       3.073  -0.075   0.212  0.00  0.00    -0.275 OA
BRANCH  20  24
ATOM     23  C   UNL     1       0.290  -0.779  -3.460  0.00  0.00    +0.031 C 
ATOM     24  C   UNL     1       0.333  -0.223  -2.036  0.00  0.00    +0.030 C 
ATOM     25  C   UNL     1      -0.068   1.254  -2.053  0.00  0.00    +0.031 C 
ATOM     26  C   UNL     1      -0.641  -1.005  -1.153  0.00  0.00    +0.031 C 
ENDBRANCH  20  24
BRANCH  21  27
ATOM     27  C   UNL     1       0.791   0.237   0.726  0.00  0.00    +0.131 C 
BRANCH  27  28
ATOM     28  C   UNL     1       1.333   0.778   2.024  0.00  0.00    -0.035 A 
ATOM     29  C   UNL     1       1.642  -0.087   3.057  0.00  0.00    +0.008 A 
ATOM     30  C   UNL     1       2.141   0.404   4.249  0.00  0.00    +0.050 A 
ATOM     31  C   UNL     1       2.332   1.766   4.412  0.00  0.00    +0.166 A 
ATOM     32  C   UNL     1       2.020   2.639   3.371  0.00  0.00    +0.166 A 
ATOM     33  C   UNL     1       1.526   2.138   2.177  0.00  0.00    +0.053 A 
ATOM     34  O   UNL     1       2.293   3.914   3.774  0.00  0.00    -0.453 OA
ATOM     35  C   UNL     1       2.389   3.851   5.210  0.00  0.00    +0.466 C 
ATOM     36  O   UNL     1       2.800   2.495   5.466  0.00  0.00    -0.453 OA
ENDBRANCH  27  28
ENDBRANCH  21  27
ENDBRANCH   1  20
TORSDOF 8
