REMARK  Name = ZINC38188565
REMARK  5 active torsions:
REMARK  status: ('A' for Active; 'I' for Inactive)
REMARK    1  A    between atoms: C_2  and  C_3
REMARK    2  A    between atoms: C_3  and  N_4
REMARK    3  A    between atoms: N_20  and  N_21
REMARK    4  A    between atoms: C_22  and  C_24
REMARK    5  A    between atoms: C_24  and  C_25
REMARK                            x       y       z     vdW  Elec       q    Type
REMARK                         _______ _______ _______ _____ _____    ______ ____
ROOT
ATOM      1  N   UNL     1       1.367  -1.676   1.111  0.00  0.00    -0.241 N 
ATOM      2  C   UNL     1       1.851  -1.276   2.276  0.00  0.00    +0.260 C 
ATOM      3  O   UNL     1       2.259  -0.142   2.441  0.00  0.00    -0.269 OA
ATOM      4  C   UNL     1       1.871  -2.278   3.372  0.00  0.00    +0.090 C 
ATOM      5  C   UNL     1       2.315  -2.143   4.679  0.00  0.00    +0.065 C 
ATOM      6  C   UNL     1       2.321  -3.174   5.737  0.00  0.00    +0.010 A 
ATOM      7  C   UNL     1       1.918  -4.506   5.774  0.00  0.00    +0.010 A 
ATOM      8  C   UNL     1       2.053  -5.229   6.941  0.00  0.00    +0.001 A 
ATOM      9  C   UNL     1       2.586  -4.631   8.071  0.00  0.00    +0.002 A 
ATOM     10  C   UNL     1       2.988  -3.311   8.046  0.00  0.00    +0.024 A 
ATOM     11  C   UNL     1       2.861  -2.565   6.879  0.00  0.00    +0.042 A 
ATOM     12  N   UNL     1       3.181  -1.245   6.586  0.00  0.00    -0.281 N 
ATOM     13  C   UNL     1       2.888  -0.943   5.310  0.00  0.00    +0.250 C 
ATOM     14  O   UNL     1       3.063   0.135   4.771  0.00  0.00    -0.270 OA
ATOM     15  S   UNL     1       1.170  -3.704   2.555  0.00  0.00    -0.047 S 
ATOM     16  C   UNL     1       0.903  -2.970   0.950  0.00  0.00    +0.186 C 
ATOM     17  N   UNL     1       0.395  -3.521  -0.118  0.00  0.00    -0.157 NA
ATOM     18  H   UNL     1       3.569  -0.623   7.220  0.00  0.00    +0.155 HD
ENDROOT
BRANCH  17  19
ATOM     19  N   UNL     1      -0.023  -4.858  -0.085  0.00  0.00    -0.204 N 
ATOM     20  C   UNL     1      -0.548  -5.427  -1.190  0.00  0.00    +0.237 C 
ATOM     21  O   UNL     1      -0.660  -4.781  -2.211  0.00  0.00    -0.274 OA
ATOM     22  H   UNL     1       0.066  -5.374   0.731  0.00  0.00    +0.177 HD
BRANCH  20  23
ATOM     23  C   UNL     1      -0.998  -6.865  -1.155  0.00  0.00    +0.132 C 
BRANCH  23  24
ATOM     24  C   UNL     1      -1.542  -7.254  -2.505  0.00  0.00    -0.039 A 
ATOM     25  C   UNL     1      -2.884  -7.078  -2.786  0.00  0.00    +0.004 A 
ATOM     26  C   UNL     1      -3.384  -7.434  -4.025  0.00  0.00    +0.000 A 
ATOM     27  C   UNL     1      -2.541  -7.967  -4.982  0.00  0.00    +0.000 A 
ATOM     28  C   UNL     1      -1.199  -8.143  -4.702  0.00  0.00    +0.000 A 
ATOM     29  C   UNL     1      -0.699  -7.782  -3.465  0.00  0.00    +0.004 A 
ENDBRANCH  23  24
ENDBRANCH  20  23
ENDBRANCH  17  19
BRANCH   1  30
ATOM     30  C   UNL     1       1.317  -0.740  -0.015  0.00  0.00    +0.142 C 
BRANCH  30  32
ATOM     31  C   UNL     1      -0.016   1.306   0.009  0.00  0.00    +0.005 C 
ATOM     32  C   UNL     1       0.002  -0.004   0.002  0.00  0.00    -0.015 C 
ENDBRANCH  30  32
ENDBRANCH   1  30
TORSDOF 5
