REMARK  Name = ZINC60110305
REMARK  9 active torsions:
REMARK  status: ('A' for Active; 'I' for Inactive)
REMARK    1  A    between atoms: C_1  and  C_2
REMARK    2  A    between atoms: C_2  and  C_3
REMARK    3  A    between atoms: C_2  and  C_4
REMARK    4  A    between atoms: C_2  and  N_5
REMARK    5  A    between atoms: N_14  and  C_15
REMARK    6  A    between atoms: C_15  and  C_17
REMARK    7  A    between atoms: C_17  and  C_18
REMARK    8  A    between atoms: C_21  and  S_24
REMARK    9  A    between atoms: S_24  and  N_27
REMARK                            x       y       z     vdW  Elec       q    Type
REMARK                         _______ _______ _______ _____ _____    ______ ____
ROOT
ATOM      1  C   UNL     1       1.863   2.304  -3.133  0.00  0.00    +0.243 C 
ATOM      2  O   UNL     1       2.386   1.698  -4.048  0.00  0.00    -0.273 OA
ENDROOT
BRANCH   1  12
ATOM      3  N   UNL     1       0.700  -0.476  -1.196  0.00  0.00    -0.306 N 
ATOM      4  C   UNL     1       0.908  -1.806  -1.546  0.00  0.00    +0.068 A 
ATOM      5  C   UNL     1       0.580  -3.009  -0.936  0.00  0.00    +0.028 A 
ATOM      6  C   UNL     1       0.927  -4.202  -1.537  0.00  0.00    +0.002 A 
ATOM      7  C   UNL     1       1.603  -4.204  -2.746  0.00  0.00    +0.002 A 
ATOM      8  C   UNL     1       1.935  -3.013  -3.360  0.00  0.00    +0.028 A 
ATOM      9  C   UNL     1       1.590  -1.808  -2.765  0.00  0.00    +0.066 A 
ATOM     10  N   UNL     1       1.781  -0.480  -3.129  0.00  0.00    -0.326 N 
ATOM     11  C   UNL     1       1.231   0.309  -2.170  0.00  0.00    +0.202 A 
ATOM     12  N   UNL     1       1.216   1.639  -2.180  0.00  0.00    -0.146 NA
ATOM     13  H   UNL     1       2.228  -0.170  -3.933  0.00  0.00    +0.169 HD
BRANCH   3  15
ATOM     14  C   UNL     1      -0.005   1.527   0.018  0.00  0.00    +0.034 C 
ATOM     15  C   UNL     1       0.020  -0.003   0.013  0.00  0.00    +0.040 C 
ATOM     16  C   UNL     1       0.769  -0.505   1.249  0.00  0.00    +0.034 C 
ATOM     17  C   UNL     1      -1.413  -0.537   0.034  0.00  0.00    +0.034 C 
ENDBRANCH   3  15
ENDBRANCH   1  12
BRANCH   1  18
ATOM     18  C   UNL     1       1.946   3.807  -3.080  0.00  0.00    +0.133 C 
BRANCH  18  19
ATOM     19  C   UNL     1       2.726   4.310  -4.268  0.00  0.00    -0.038 A 
ATOM     20  C   UNL     1       4.098   4.456  -4.182  0.00  0.00    +0.006 A 
ATOM     21  C   UNL     1       4.813   4.917  -5.271  0.00  0.00    +0.029 A 
ATOM     22  C   UNL     1       4.157   5.231  -6.447  0.00  0.00    +0.105 A 
ATOM     23  C   UNL     1       2.785   5.084  -6.532  0.00  0.00    +0.029 A 
ATOM     24  C   UNL     1       2.070   4.619  -5.444  0.00  0.00    +0.006 A 
BRANCH  22  25
ATOM     25  S   UNL     1       5.068   5.819  -7.835  0.00  0.00    +0.061 S 
ATOM     26  O   UNL     1       4.157   6.559  -8.635  0.00  0.00    -0.153 OA
ATOM     27  O   UNL     1       6.267   6.386  -7.323  0.00  0.00    -0.153 OA
BRANCH  25  28
ATOM     28  N   UNL     1       5.513   4.496  -8.725  0.00  0.00    -0.177 NA
ATOM     29  C   UNL     1       6.782   3.806  -8.458  0.00  0.00    +0.109 C 
ATOM     30  C   UNL     1       6.497   2.318  -8.233  0.00  0.00    +0.017 C 
ATOM     31  C   UNL     1       5.721   1.764  -9.430  0.00  0.00    +0.003 C 
ATOM     32  C   UNL     1       4.384   2.499  -9.558  0.00  0.00    +0.017 C 
ATOM     33  C   UNL     1       4.643   3.986  -9.794  0.00  0.00    +0.109 C 
ENDBRANCH  25  28
ENDBRANCH  22  25
ENDBRANCH  18  19
ENDBRANCH   1  18
TORSDOF 6
