REMARK  Name = ZINC35967176
REMARK  12 active torsions:
REMARK  status: ('A' for Active; 'I' for Inactive)
REMARK    1  A    between atoms: C_1  and  C_2
REMARK    2  A    between atoms: C_2  and  N_3
REMARK    3  A    between atoms: C_6  and  C_11
REMARK    4  A    between atoms: C_15  and  O_17
REMARK    5  A    between atoms: O_17  and  C_18
REMARK    6  A    between atoms: N_26  and  C_28
REMARK    7  A    between atoms: C_28  and  C_29
REMARK    8  A    between atoms: C_29  and  C_30
REMARK    9  A    between atoms: N_32  and  C_33
REMARK   10  A    between atoms: C_33  and  C_34
REMARK   11  A    between atoms: C_34  and  C_35
REMARK   12  A    between atoms: C_34  and  C_36
REMARK                            x       y       z     vdW  Elec       q    Type
REMARK                         _______ _______ _______ _____ _____    ______ ____
ROOT
ATOM      1  N   UNL     1      -0.841  -0.916   2.635  0.00  0.00    -0.257 N 
ATOM      2  C   UNL     1       0.424  -1.188   2.196  0.00  0.00    +0.042 C 
ATOM      3  C   UNL     1       1.398  -1.554   3.054  0.00  0.00    +0.058 C 
ATOM      4  C   UNL     1       1.042  -1.654   4.524  0.00  0.00    +0.142 C 
ATOM      5  N   UNL     1      -0.349  -1.341   4.896  0.00  0.00    -0.288 N 
ATOM      6  C   UNL     1      -1.209  -0.984   3.921  0.00  0.00    +0.307 C 
ATOM      7  O   UNL     1      -2.357  -0.719   4.219  0.00  0.00    -0.252 OA
ATOM      8  C   UNL     1       2.604  -1.778   2.360  0.00  0.00    +0.247 C 
ATOM      9  O   UNL     1       3.648  -2.119   2.886  0.00  0.00    -0.270 OA
ATOM     10  N   UNL     1       2.452  -1.565   1.040  0.00  0.00    -0.292 N 
ATOM     11  C   UNL     1       1.052  -1.172   0.821  0.00  0.00    +0.159 C 
ATOM     12  H   UNL     1      -0.637  -1.387   5.820  0.00  0.00    +0.151 HD
ENDROOT
BRANCH   4  13
ATOM     13  C   UNL     1       1.947  -0.721   5.286  0.00  0.00    -0.019 A 
ATOM     14  C   UNL     1       1.665   0.632   5.331  0.00  0.00    +0.006 A 
ATOM     15  C   UNL     1       2.494   1.490   6.029  0.00  0.00    +0.004 A 
ATOM     16  C   UNL     1       3.606   0.998   6.685  0.00  0.00    +0.046 A 
ATOM     17  C   UNL     1       3.891  -0.359   6.641  0.00  0.00    +0.129 A 
ATOM     18  C   UNL     1       3.055  -1.219   5.944  0.00  0.00    +0.052 A 
BRANCH  17  19
ATOM     19  O   UNL     1       4.985  -0.846   7.285  0.00  0.00    -0.456 OA
BRANCH  19  20
ATOM     20  C   UNL     1       5.228  -2.181   7.209  0.00  0.00    +0.128 A 
ATOM     21  C   UNL     1       6.012  -2.687   6.182  0.00  0.00    +0.046 A 
ATOM     22  C   UNL     1       6.258  -4.045   6.108  0.00  0.00    +0.004 A 
ATOM     23  C   UNL     1       5.722  -4.898   7.054  0.00  0.00    +0.000 A 
ATOM     24  C   UNL     1       4.940  -4.396   8.078  0.00  0.00    +0.004 A 
ATOM     25  C   UNL     1       4.697  -3.039   8.161  0.00  0.00    +0.046 A 
ENDBRANCH  19  20
ENDBRANCH  17  19
ENDBRANCH   4  13
BRANCH   1  27
ATOM     26  C   UNL     1      -1.833   0.997   1.479  0.00  0.00    +0.025 C 
ATOM     27  C   UNL     1      -1.847  -0.524   1.646  0.00  0.00    +0.111 C 
ENDBRANCH   1  27
BRANCH  10  28
ATOM     28  C   UNL     1       3.488  -1.700   0.013  0.00  0.00    +0.117 C 
BRANCH  28  29
ATOM     29  C   UNL     1       3.487  -3.132  -0.526  0.00  0.00    +0.114 C 
BRANCH  29  30
ATOM     30  C   UNL     1       4.553  -3.271  -1.583  0.00  0.00    +0.215 C 
ATOM     31  O   UNL     1       5.244  -2.319  -1.876  0.00  0.00    -0.276 OA
ATOM     32  N   UNL     1       4.737  -4.454  -2.203  0.00  0.00    -0.315 N 
ATOM     33  H   UNL     1       4.184  -5.215  -1.969  0.00  0.00    +0.149 HD
BRANCH  32  34
ATOM     34  C   UNL     1       5.773  -4.589  -3.230  0.00  0.00    +0.107 C 
BRANCH  34  35
ATOM     35  C   UNL     1       5.772  -6.021  -3.769  0.00  0.00    -0.000 C 
ATOM     36  C   UNL     1       4.450  -6.294  -4.489  0.00  0.00    +0.009 C 
ATOM     37  C   UNL     1       6.933  -6.196  -4.751  0.00  0.00    +0.009 C 
ENDBRANCH  34  35
ENDBRANCH  32  34
ENDBRANCH  29  30
ENDBRANCH  28  29
ENDBRANCH  10  28
TORSDOF 9
