REMARK  Name = ZINC34923178
REMARK  10 active torsions:
REMARK  status: ('A' for Active; 'I' for Inactive)
REMARK    1  A    between atoms: C_1  and  C_2
REMARK    2  A    between atoms: C_2  and  C_3
REMARK    3  A    between atoms: C_4  and  C_31
REMARK    4  A    between atoms: C_5  and  C_24
REMARK    5  A    between atoms: C_8  and  C_13
REMARK    6  A    between atoms: C_14  and  N_16
REMARK    7  A    between atoms: N_16  and  C_17
REMARK    8  A    between atoms: N_20  and  C_23
REMARK    9  A    between atoms: C_31  and  O_33
REMARK   10  A    between atoms: O_33  and  C_34
REMARK                            x       y       z     vdW  Elec       q    Type
REMARK                         _______ _______ _______ _____ _____    ______ ____
ROOT
ATOM      1  C   UNL     1       0.694  -0.838   1.143  0.00  0.00    +0.056 C 
ATOM      2  C   UNL     1       0.053  -0.951   2.362  0.00  0.00    +0.083 C 
ATOM      3  C   UNL     1       0.912  -1.093   3.599  0.00  0.00    +0.150 C 
ATOM      4  N   UNL     1       2.386  -1.100   3.402  0.00  0.00    -0.267 N 
ATOM      5  C   UNL     1       3.354  -1.218   4.379  0.00  0.00    +0.048 C 
ATOM      6  C   UNL     1       4.647  -1.202   3.986  0.00  0.00    +0.072 C 
ATOM      7  S   UNL     1       4.493  -1.018   2.221  0.00  0.00    -0.060 S 
ATOM      8  C   UNL     1       2.818  -0.976   2.111  0.00  0.00    +0.166 C 
ATOM      9  N   UNL     1       2.015  -0.860   1.075  0.00  0.00    -0.229 NA
ENDROOT
BRANCH   3  10
ATOM     10  C   UNL     1       0.574   0.041   4.531  0.00  0.00    -0.019 A 
ATOM     11  C   UNL     1       0.973   1.329   4.225  0.00  0.00    +0.006 A 
ATOM     12  C   UNL     1       0.663   2.371   5.079  0.00  0.00    +0.003 A 
ATOM     13  C   UNL     1      -0.044   2.127   6.240  0.00  0.00    +0.038 A 
ATOM     14  C   UNL     1      -0.444   0.837   6.548  0.00  0.00    +0.124 A 
ATOM     15  C   UNL     1      -0.139  -0.205   5.689  0.00  0.00    +0.044 A 
ATOM     16  F   UNL     1      -1.136   0.597   7.684  0.00  0.00    -0.205 F 
ENDBRANCH   3  10
BRANCH   5  17
ATOM     17  C   UNL     1       2.991  -1.357   5.797  0.00  0.00    +0.091 C 
ATOM     18  C   UNL     1       3.938  -1.652   6.709  0.00  0.00    +0.239 C 
ATOM     19  O   UNL     1       5.242  -1.691   6.343  0.00  0.00    -0.271 OA
BRANCH  18  20
ATOM     20  N   UNL     1       3.578  -1.917   8.019  0.00  0.00    -0.309 N 
ATOM     21  H   UNL     1       2.641  -1.959   8.266  0.00  0.00    +0.149 HD
BRANCH  20  22
ATOM     22  C   UNL     1       4.613  -2.133   9.034  0.00  0.00    +0.070 C 
ATOM     23  C   UNL     1       5.063  -3.596   9.001  0.00  0.00    +0.003 C 
ATOM     24  C   UNL     1       6.086  -3.834  10.115  0.00  0.00    -0.077 C 
ATOM     25  N   UNL     1       5.475  -3.537  11.416  0.00  0.00    +0.378 N 
ATOM     26  C   UNL     1       5.106  -2.118  11.481  0.00  0.00    -0.077 C 
ATOM     27  C   UNL     1       4.046  -1.814  10.420  0.00  0.00    +0.003 C 
ATOM     28  C   UNL     1       6.434  -3.841  12.486  0.00  0.00    -0.096 C 
ATOM     29  H   UNL     1       4.649  -4.104  11.537  0.00  0.00    -0.082 HD
ENDBRANCH  20  22
ENDBRANCH  18  20
ENDBRANCH   5  17
BRANCH   1  31
ATOM     30  C   UNL     1      -0.473   0.779  -0.332  0.00  0.00    +0.010 C 
ATOM     31  C   UNL     1      -0.118  -0.694  -0.119  0.00  0.00    +0.053 C 
ENDBRANCH   1  31
BRANCH   2  32
ATOM     32  C   UNL     1      -1.344  -0.934   2.449  0.00  0.00    +0.339 C 
ATOM     33  O   UNL     1      -2.014  -0.707   1.456  0.00  0.00    -0.245 OA
BRANCH  32  34
ATOM     34  O   UNL     1      -1.950  -1.169   3.634  0.00  0.00    -0.465 OA
ATOM     35  C   UNL     1      -3.379  -1.136   3.650  0.00  0.00    +0.280 C 
ENDBRANCH  32  34
ENDBRANCH   2  32
TORSDOF 7
