REMARK  Name = ZINC16688096
REMARK  10 active torsions:
REMARK  status: ('A' for Active; 'I' for Inactive)
REMARK    1  A    between atoms: C_1  and  C_2
REMARK    2  A    between atoms: C_2  and  O_3
REMARK    3  A    between atoms: O_3  and  C_4
REMARK    4  A    between atoms: C_5  and  C_12
REMARK    5  A    between atoms: C_12  and  N_43
REMARK    6  A    between atoms: C_13  and  C_14
REMARK    7  A    between atoms: C_13  and  N_43
REMARK    8  A    between atoms: C_14  and  N_15
REMARK    9  A    between atoms: N_15  and  C_16
REMARK   10  A    between atoms: C_19  and  N_23
REMARK                            x       y       z     vdW  Elec       q    Type
REMARK                         _______ _______ _______ _____ _____    ______ ____
ROOT
ATOM      1  N   UNL     1       0.245   4.314   2.581  0.00  0.00    +0.383 N 
ATOM      2  H   UNL     1       0.156   4.460   3.594  0.00  0.00    -0.085 HD
ATOM      3  H   UNL     1      -0.660   4.019   2.197  0.00  0.00    -0.085 HD
ENDROOT
BRANCH   1   4
ATOM      4  C   UNL     1       1.248   3.263   2.327  0.00  0.00    -0.043 C 
BRANCH   4   6
ATOM      5  C   UNL     1      -0.149   1.182   2.380  0.00  0.00    +0.140 A 
ATOM      6  C   UNL     1       0.803   1.985   2.990  0.00  0.00    -0.020 A 
ATOM      7  C   UNL     1       1.344   1.613   4.206  0.00  0.00    +0.025 A 
ATOM      8  C   UNL     1       0.937   0.440   4.815  0.00  0.00    +0.043 A 
ATOM      9  C   UNL     1      -0.013  -0.363   4.210  0.00  0.00    +0.043 A 
ATOM     10  C   UNL     1      -0.561   0.008   2.995  0.00  0.00    +0.084 A 
ATOM     11 CL   UNL     1      -1.757  -0.996   2.238  0.00  0.00    -0.080 Cl
ATOM     12 CL   UNL     1       1.618  -0.025   6.343  0.00  0.00    -0.083 Cl
BRANCH   5  13
ATOM     13  O   UNL     1      -0.682   1.547   1.184  0.00  0.00    -0.491 OA
BRANCH  13  15
ATOM     14  C   UNL     1      -0.753   1.593  -1.232  0.00  0.00    +0.048 C 
ATOM     15  C   UNL     1      -0.013   1.086   0.008  0.00  0.00    +0.226 C 
ENDBRANCH  13  15
ENDBRANCH   5  13
ENDBRANCH   4   6
ENDBRANCH   1   4
BRANCH   1  16
ATOM     16  C   UNL     1       0.655   5.579   1.942  0.00  0.00    -0.063 C 
BRANCH  16  17
ATOM     17  C   UNL     1      -0.402   6.649   2.223  0.00  0.00    +0.082 C 
BRANCH  17  18
ATOM     18  N   UNL     1      -0.002   7.909   1.591  0.00  0.00    -0.345 N 
ATOM     19  H   UNL     1       0.828   7.958   1.091  0.00  0.00    +0.146 HD
BRANCH  18  20
ATOM     20  C   UNL     1      -0.815   9.039   1.710  0.00  0.00    +0.046 A 
ATOM     21  C   UNL     1      -2.003   8.970   2.426  0.00  0.00    +0.026 A 
ATOM     22  C   UNL     1      -2.805  10.088   2.541  0.00  0.00    +0.034 A 
ATOM     23  C   UNL     1      -2.426  11.277   1.944  0.00  0.00    +0.128 A 
ATOM     24  C   UNL     1      -1.244  11.351   1.231  0.00  0.00    +0.054 A 
ATOM     25  C   UNL     1      -0.434  10.236   1.116  0.00  0.00    +0.064 A 
ATOM     26 CL   UNL     1       1.053  10.331   0.226  0.00  0.00    -0.082 Cl
BRANCH  23  27
ATOM     27  N   UNL     1      -3.288  12.474   2.071  0.00  0.00    +0.056 N 
ATOM     28  O   UNL     1      -4.329  12.411   2.700  0.00  0.00    -0.126 OA
ATOM     29  O   UNL     1      -2.955  13.522   1.546  0.00  0.00    -0.126 OA
ENDBRANCH  23  27
ENDBRANCH  18  20
ENDBRANCH  17  18
ENDBRANCH  16  17
ENDBRANCH   1  16
TORSDOF 9
