REMARK  Name = ZINC48572774
REMARK  8 active torsions:
REMARK  status: ('A' for Active; 'I' for Inactive)
REMARK    1  A    between atoms: C_4  and  O_24
REMARK    2  A    between atoms: C_5  and  C_7
REMARK    3  A    between atoms: N_8  and  N_9
REMARK    4  A    between atoms: C_10  and  C_12
REMARK    5  A    between atoms: C_12  and  N_13
REMARK    6  A    between atoms: C_14  and  C_16
REMARK    7  A    between atoms: O_24  and  C_25
REMARK    8  A    between atoms: C_25  and  C_27
REMARK                            x       y       z     vdW  Elec       q    Type
REMARK                         _______ _______ _______ _____ _____    ______ ____
ROOT
ATOM      1  C   UNL     1       1.215  -1.846  -0.312  0.00  0.00    +0.142 C 
ATOM      2  N   UNL     1       2.274  -2.590  -0.415  0.00  0.00    -0.188 NA
ENDROOT
BRANCH   1   7
ATOM      3  C   UNL     1       0.347   1.746   0.338  0.00  0.00    +0.001 A 
ATOM      4  C   UNL     1       1.604   2.319   0.421  0.00  0.00    +0.004 A 
ATOM      5  C   UNL     1       2.738   1.543   0.267  0.00  0.00    +0.047 A 
ATOM      6  C   UNL     1       2.621   0.183   0.027  0.00  0.00    +0.141 A 
ATOM      7  C   UNL     1       1.350  -0.401  -0.057  0.00  0.00    +0.037 A 
ATOM      8  C   UNL     1       0.213   0.394   0.100  0.00  0.00    +0.013 A 
BRANCH   6   9
ATOM      9  O   UNL     1       3.735  -0.580  -0.125  0.00  0.00    -0.422 OA
BRANCH   9  10
ATOM     10  C   UNL     1       4.167  -0.825  -1.378  0.00  0.00    +0.344 C 
ATOM     11  O   UNL     1       3.514  -0.447  -2.330  0.00  0.00    -0.245 OA
BRANCH  10  12
ATOM     12  C   UNL     1       5.433  -1.553  -1.592  0.00  0.00    +0.059 A 
ATOM     13  C   UNL     1       6.177  -2.003  -0.499  0.00  0.00    +0.016 A 
ATOM     14  C   UNL     1       7.359  -2.682  -0.706  0.00  0.00    +0.021 A 
ATOM     15  C   UNL     1       7.810  -2.917  -1.995  0.00  0.00    +0.041 A 
ATOM     16  C   UNL     1       7.077  -2.473  -3.083  0.00  0.00    +0.021 A 
ATOM     17  C   UNL     1       5.890  -1.798  -2.889  0.00  0.00    +0.016 A 
ATOM     18 CL   UNL     1       9.300  -3.771  -2.248  0.00  0.00    -0.084 Cl
ENDBRANCH  10  12
ENDBRANCH   9  10
ENDBRANCH   6   9
ENDBRANCH   1   7
BRANCH   2  19
ATOM     19  N   UNL     1       2.149  -3.945  -0.746  0.00  0.00    -0.206 N 
ATOM     20  C   UNL     1       3.251  -4.706  -0.896  0.00  0.00    +0.249 C 
ATOM     21  O   UNL     1       4.345  -4.246  -0.645  0.00  0.00    -0.272 OA
ATOM     22  H   UNL     1       1.270  -4.335  -0.869  0.00  0.00    +0.177 HD
BRANCH  20  23
ATOM     23  C   UNL     1       3.125  -6.130  -1.374  0.00  0.00    +0.202 C 
BRANCH  23  24
ATOM     24  N   UNL     1       4.455  -6.739  -1.452  0.00  0.00    -0.303 N 
ATOM     25  C   UNL     1       4.588  -8.017  -1.860  0.00  0.00    +0.245 C 
ATOM     26  O   UNL     1       3.604  -8.664  -2.162  0.00  0.00    -0.270 OA
ATOM     27  H   UNL     1       5.239  -6.222  -1.211  0.00  0.00    +0.150 HD
BRANCH  25  28
ATOM     28  C   UNL     1       5.929  -8.631  -1.939  0.00  0.00    +0.038 A 
ATOM     29  C   UNL     1       7.061  -7.892  -1.587  0.00  0.00    +0.014 A 
ATOM     30  C   UNL     1       8.310  -8.470  -1.662  0.00  0.00    +0.022 A 
ATOM     31  C   UNL     1       8.445  -9.781  -2.087  0.00  0.00    +0.059 A 
ATOM     32  C   UNL     1       7.327 -10.521  -2.438  0.00  0.00    +0.060 A 
ATOM     33  C   UNL     1       6.070  -9.954  -2.360  0.00  0.00    +0.034 A 
ATOM     34 CL   UNL     1       7.506 -12.164  -2.969  0.00  0.00    -0.082 Cl
ATOM     35 CL   UNL     1      10.022 -10.501  -2.181  0.00  0.00    -0.082 Cl
ENDBRANCH  25  28
ENDBRANCH  23  24
ENDBRANCH  20  23
ENDBRANCH   2  19
TORSDOF 8
