REMARK  Name = ZINC13813669
REMARK  3 active torsions:
REMARK  status: ('A' for Active; 'I' for Inactive)
REMARK    1  A    between atoms: C_4  and  C_7
REMARK    2  A    between atoms: C_12  and  C_24
REMARK    3  A    between atoms: C_17  and  C_19
REMARK                            x       y       z     vdW  Elec       q    Type
REMARK                         _______ _______ _______ _____ _____    ______ ____
ROOT
ATOM      1  C   UNL     1       3.711  -0.707  -0.038  0.00  0.00    +0.032 C 
ATOM      2  C   UNL     1       3.817  -1.604   1.198  0.00  0.00    +0.060 C 
ATOM      3  C   UNL     1       5.118  -2.370   1.158  0.00  0.00    +0.020 C 
ATOM      4  C   UNL     1       5.673  -2.733  -0.018  0.00  0.00    +0.041 C 
ATOM      5  C   UNL     1       6.966  -3.516  -0.089  0.00  0.00    +0.177 C 
ATOM      6  N   UNL     1       7.634  -3.493   1.205  0.00  0.00    -0.220 N 
ATOM      7  C   UNL     1       7.027  -3.098   2.352  0.00  0.00    +0.219 A 
ATOM      8  N   UNL     1       7.892  -3.201   3.323  0.00  0.00    -0.189 NA
ATOM      9  C   UNL     1       9.054  -3.652   2.840  0.00  0.00    +0.256 A 
ATOM     10  N   UNL     1       8.939  -3.842   1.548  0.00  0.00    -0.143 NA
ATOM     11  N   UNL     1       5.709  -2.671   2.362  0.00  0.00    -0.287 N 
ATOM     12  C   UNL     1       5.064  -2.390  -1.239  0.00  0.00    +0.164 C 
ATOM     13  O   UNL     1       5.580  -2.746  -2.280  0.00  0.00    -0.292 OA
ATOM     14  C   UNL     1       3.791  -1.593  -1.286  0.00  0.00    +0.088 C 
ATOM     15  H   UNL     1       5.217  -2.588   3.194  0.00  0.00    +0.155 HD
ENDROOT
BRANCH   5  16
ATOM     16  C   UNL     1       6.667  -4.943  -0.470  0.00  0.00    +0.007 A 
ATOM     17  C   UNL     1       5.892  -5.804   0.207  0.00  0.00    +0.089 A 
ATOM     18  N   UNL     1       5.854  -7.008  -0.442  0.00  0.00    -0.360 N 
ATOM     19  H   UNL     1       5.359  -7.787  -0.144  0.00  0.00    +0.165 HD
ATOM     20  C   UNL     1       6.623  -6.949  -1.583  0.00  0.00    +0.047 A 
ATOM     21  C   UNL     1       7.161  -5.651  -1.654  0.00  0.00    +0.005 A 
ATOM     22  C   UNL     1       7.987  -5.296  -2.721  0.00  0.00    +0.010 A 
ATOM     23  C   UNL     1       8.268  -6.213  -3.696  0.00  0.00    +0.001 A 
ATOM     24  C   UNL     1       7.737  -7.494  -3.632  0.00  0.00    +0.002 A 
ATOM     25  C   UNL     1       6.926  -7.867  -2.583  0.00  0.00    +0.026 A 
ENDBRANCH   5  16
BRANCH   1  29
ATOM     26  C   UNL     1      -0.017   1.378   0.010  0.00  0.00    +0.000 A 
ATOM     27  C   UNL     1       1.171   2.086   0.002  0.00  0.00    +0.000 A 
ATOM     28  C   UNL     1       2.377   1.411  -0.013  0.00  0.00    +0.004 A 
ATOM     29  C   UNL     1       2.396   0.029  -0.020  0.00  0.00    -0.044 A 
ATOM     30  C   UNL     1       1.208  -0.679  -0.012  0.00  0.00    +0.004 A 
ATOM     31  C   UNL     1       0.002  -0.004   0.002  0.00  0.00    +0.000 A 
ENDBRANCH   1  29
BRANCH   9  32
ATOM     32  C   UNL     1      10.299  -3.901   3.652  0.00  0.00    +0.454 C 
ATOM     33  F   UNL     1       9.972  -3.923   5.012  0.00  0.00    -0.163 F 
ATOM     34  F   UNL     1      10.856  -5.132   3.286  0.00  0.00    -0.163 F 
ATOM     35  F   UNL     1      11.225  -2.881   3.411  0.00  0.00    -0.163 F 
ENDBRANCH   9  32
TORSDOF 3
