REMARK  Name = ZINC40985974
REMARK  10 active torsions:
REMARK  status: ('A' for Active; 'I' for Inactive)
REMARK    1  A    between atoms: C_1  and  C_2
REMARK    2  A    between atoms: C_2  and  C_3
REMARK    3  A    between atoms: C_6  and  C_9
REMARK    4  A    between atoms: C_9  and  C_11
REMARK    5  A    between atoms: C_9  and  N_31
REMARK    6  A    between atoms: C_11  and  N_12
REMARK    7  A    between atoms: C_13  and  C_15
REMARK    8  A    between atoms: C_18  and  S_22
REMARK    9  A    between atoms: S_22  and  C_23
REMARK   10  A    between atoms: C_23  and  C_24
REMARK                            x       y       z     vdW  Elec       q    Type
REMARK                         _______ _______ _______ _____ _____    ______ ____
ROOT
ATOM      1  N   UNL     1      -4.715  -4.159   0.986  0.00  0.00    -0.312 N 
ATOM      2  C   UNL     1      -4.553  -5.497   1.018  0.00  0.00    +0.248 C 
ATOM      3  O   UNL     1      -5.054  -6.191   0.154  0.00  0.00    -0.270 OA
ATOM      4  H   UNL     1      -4.315  -3.605   1.674  0.00  0.00    +0.149 HD
ENDROOT
BRANCH   2   5
ATOM      5  C   UNL     1      -3.767  -6.118   2.099  0.00  0.00    +0.092 A 
ATOM      6  C   UNL     1      -3.186  -5.336   3.106  0.00  0.00    +0.129 A 
ATOM      7  N   UNL     1      -2.490  -5.930   4.057  0.00  0.00    -0.229 NA
ATOM      8  C   UNL     1      -2.338  -7.249   4.068  0.00  0.00    +0.190 A 
ATOM      9  N   UNL     1      -2.871  -8.025   3.134  0.00  0.00    -0.209 NA
ATOM     10  C   UNL     1      -3.586  -7.509   2.151  0.00  0.00    +0.146 A 
ATOM     11 CL   UNL     1      -4.286  -8.534   0.937  0.00  0.00    -0.061 Cl
BRANCH   8  12
ATOM     12  S   UNL     1      -1.398  -7.990   5.362  0.00  0.00    -0.081 S 
BRANCH  12  13
ATOM     13  C   UNL     1      -1.454  -9.764   4.984  0.00  0.00    +0.112 C 
BRANCH  13  14
ATOM     14  C   UNL     1      -0.678 -10.524   6.027  0.00  0.00    -0.037 A 
ATOM     15  C   UNL     1       0.673 -10.759   5.850  0.00  0.00    +0.006 A 
ATOM     16  C   UNL     1       1.385 -11.457   6.807  0.00  0.00    +0.020 A 
ATOM     17  C   UNL     1       0.747 -11.920   7.943  0.00  0.00    +0.041 A 
ATOM     18  C   UNL     1      -0.605 -11.685   8.120  0.00  0.00    +0.020 A 
ATOM     19  C   UNL     1      -1.315 -10.983   7.165  0.00  0.00    +0.006 A 
ATOM     20 CL   UNL     1       1.641 -12.797   9.145  0.00  0.00    -0.084 Cl
ENDBRANCH  13  14
ENDBRANCH  12  13
ENDBRANCH   8  12
ENDBRANCH   2   5
BRANCH   1  21
ATOM     21  C   UNL     1      -5.496  -3.541  -0.089  0.00  0.00    +0.094 C 
BRANCH  21  22
ATOM     22  C   UNL     1      -5.413  -2.018   0.031  0.00  0.00    -0.020 C 
BRANCH  22  26
ATOM     23  C   UNL     1      -1.391  -0.754  -0.657  0.00  0.00    -0.048 A 
ATOM     24  C   UNL     1      -1.870  -0.863   0.635  0.00  0.00    +0.004 A 
ATOM     25  C   UNL     1      -3.171  -1.272   0.857  0.00  0.00    +0.002 A 
ATOM     26  C   UNL     1      -3.994  -1.572  -0.212  0.00  0.00    -0.059 A 
ATOM     27  C   UNL     1      -3.516  -1.462  -1.504  0.00  0.00    +0.002 A 
ATOM     28  C   UNL     1      -2.216  -1.049  -1.727  0.00  0.00    +0.004 A 
BRANCH  23  30
ATOM     29  C   UNL     1       0.070   1.216  -1.023  0.00  0.00    +0.009 C 
ATOM     30  C   UNL     1       0.028  -0.309  -0.900  0.00  0.00    +0.032 C 
ENDBRANCH  23  30
ENDBRANCH  22  26
BRANCH  22  31
ATOM     31  N   UNL     1      -6.298  -1.400  -0.965  0.00  0.00    +0.385 N 
ATOM     32  C   UNL     1      -7.711  -1.768  -0.693  0.00  0.00    -0.078 C 
ATOM     33  C   UNL     1      -8.513  -0.651  -1.408  0.00  0.00    -0.020 C 
ATOM     34  C   UNL     1      -7.651   0.608  -1.156  0.00  0.00    -0.020 C 
ATOM     35  C   UNL     1      -6.238   0.074  -0.856  0.00  0.00    -0.078 C 
ATOM     36  H   UNL     1      -6.034  -1.691  -1.895  0.00  0.00    -0.081 HD
ENDBRANCH  22  31
ENDBRANCH  21  22
ENDBRANCH   1  21
TORSDOF 9
