REMARK  Name = ZINC20705838
REMARK  6 active torsions:
REMARK  status: ('A' for Active; 'I' for Inactive)
REMARK    1  A    between atoms: C_1  and  O_2
REMARK    2  A    between atoms: O_2  and  C_3
REMARK    3  A    between atoms: C_6  and  O_29
REMARK    4  A    between atoms: C_16  and  C_19
REMARK    5  A    between atoms: C_21  and  N_26
REMARK    6  A    between atoms: O_29  and  C_30
REMARK                            x       y       z     vdW  Elec       q    Type
REMARK                         _______ _______ _______ _____ _____    ______ ____
ROOT
ATOM      1  C   UNL     1       3.618   2.190   0.064  0.00  0.00    +0.126 A 
ATOM      2  C   UNL     1       3.594   3.574  -0.021  0.00  0.00    +0.049 A 
ATOM      3  C   UNL     1       2.381   4.232  -0.114  0.00  0.00    +0.051 A 
ATOM      4  C   UNL     1       1.200   3.516  -0.115  0.00  0.00    +0.141 A 
ATOM      5  C   UNL     1       1.207   2.119  -0.023  0.00  0.00    +0.077 A 
ATOM      6  C   UNL     1       2.438   1.466   0.056  0.00  0.00    +0.026 A 
ATOM      7  C   UNL     1       2.432  -0.012   0.127  0.00  0.00    +0.052 C 
ATOM      8  C   UNL     1       3.497  -0.783   0.814  0.00  0.00    -0.022 C 
ATOM      9  C   UNL     1       2.959  -1.886   1.322  0.00  0.00    -0.030 C 
ATOM     10  C   UNL     1       1.438  -1.914   1.058  0.00  0.00    +0.033 C 
ATOM     11  C   UNL     1       1.143  -0.417   0.908  0.00  0.00    +0.029 C 
ATOM     12  C   UNL     1       0.002  -0.004   0.002  0.00  0.00    +0.106 C 
ATOM     13  N   UNL     1      -0.027   1.467  -0.013  0.00  0.00    -0.334 N 
ATOM     14  H   UNL     1      -0.990   1.998  -0.015  0.00  0.00    +0.147 HD
ENDROOT
BRANCH  12  15
ATOM     15  C   UNL     1      -1.300  -0.539   0.540  0.00  0.00    -0.007 A 
ATOM     16  C   UNL     1      -1.943  -1.575  -0.110  0.00  0.00    +0.039 A 
ATOM     17  C   UNL     1      -3.135  -2.069   0.386  0.00  0.00    +0.127 A 
ATOM     18  C   UNL     1      -3.690  -1.520   1.527  0.00  0.00    +0.034 A 
ATOM     19  C   UNL     1      -3.051  -0.479   2.174  0.00  0.00    +0.022 A 
ATOM     20  C   UNL     1      -1.855   0.012   1.681  0.00  0.00    +0.046 A 
ATOM     21 CL   UNL     1      -1.052   1.318   2.494  0.00  0.00    -0.083 Cl
BRANCH  17  22
ATOM     22  N   UNL     1      -3.820  -3.183  -0.308  0.00  0.00    +0.056 N 
ATOM     23  O   UNL     1      -4.873  -3.615   0.126  0.00  0.00    -0.126 OA
ATOM     24  O   UNL     1      -3.332  -3.667  -1.313  0.00  0.00    -0.126 OA
ENDBRANCH  17  22
ENDBRANCH  12  15
BRANCH   1  26
ATOM     25  C   UNL     1       5.989   2.345   0.157  0.00  0.00    +0.277 C 
ATOM     26  O   UNL     1       4.808   1.540   0.154  0.00  0.00    -0.495 OA
ENDBRANCH   1  26
BRANCH   4  27
ATOM     27  O   UNL     1       0.015   4.178  -0.207  0.00  0.00    -0.493 OA
ATOM     28  C   UNL     1       0.072   5.603  -0.298  0.00  0.00    +0.277 C 
ENDBRANCH   4  27
TORSDOF 4
