REMARK  Name = ZINC13573195
REMARK  8 active torsions:
REMARK  status: ('A' for Active; 'I' for Inactive)
REMARK    1  A    between atoms: C_1  and  C_2
REMARK    2  A    between atoms: C_2  and  C_3
REMARK    3  A    between atoms: C_3  and  C_4
REMARK    4  A    between atoms: C_4  and  N_5
REMARK    5  A    between atoms: C_10  and  C_28
REMARK    6  A    between atoms: C_28  and  C_29
REMARK    7  A    between atoms: C_29  and  C_30
REMARK    8  A    between atoms: C_29  and  C_31
REMARK                            x       y       z     vdW  Elec       q    Type
REMARK                         _______ _______ _______ _____ _____    ______ ____
ROOT
ATOM      1  N   UNL     1       1.465  -2.247  -2.657  0.00  0.00    -0.242 N 
ATOM      2  C   UNL     1       0.784  -2.594  -3.755  0.00  0.00    +0.227 C 
ATOM      3  O   UNL     1      -0.421  -2.538  -3.879  0.00  0.00    -0.275 OA
ATOM      4  C   UNL     1       1.750  -3.067  -4.818  0.00  0.00    +0.107 C 
ATOM      5  C   UNL     1       1.556  -4.583  -5.040  0.00  0.00    +0.068 C 
ATOM      6  N   UNL     1       2.932  -5.144  -5.059  0.00  0.00    -0.295 NA
ATOM      7  C   UNL     1       3.648  -4.382  -4.019  0.00  0.00    +0.136 C 
ATOM      8  C   UNL     1       3.136  -2.925  -4.130  0.00  0.00    +0.122 C 
ATOM      9  C   UNL     1       2.792  -2.390  -2.759  0.00  0.00    +0.228 C 
ATOM     10  O   UNL     1       3.593  -2.133  -1.886  0.00  0.00    -0.275 OA
ATOM     11  C   UNL     1       3.408  -4.957  -2.652  0.00  0.00    +0.004 A 
ATOM     12  C   UNL     1       2.276  -5.168  -1.898  0.00  0.00    +0.023 A 
ATOM     13  C   UNL     1       2.378  -5.733  -0.638  0.00  0.00    +0.018 A 
ATOM     14  C   UNL     1       3.620  -6.083  -0.139  0.00  0.00    +0.017 A 
ATOM     15  C   UNL     1       4.757  -5.873  -0.892  0.00  0.00    +0.025 A 
ATOM     16  C   UNL     1       4.663  -5.305  -2.160  0.00  0.00    +0.039 A 
ATOM     17  N   UNL     1       5.652  -4.997  -3.098  0.00  0.00    -0.283 N 
ATOM     18  C   UNL     1       5.138  -4.451  -4.217  0.00  0.00    +0.243 C 
ATOM     19  O   UNL     1       5.756  -4.086  -5.194  0.00  0.00    -0.273 OA
ATOM     20 BR   UNL     1       0.824  -6.023   0.400  0.00  0.00    -0.050 Br
ATOM     21  H   UNL     1       2.924  -6.130  -4.844  0.00  0.00    +0.123 HD
ATOM     22  H   UNL     1       6.598  -5.157  -2.959  0.00  0.00    +0.155 HD
ENDROOT
BRANCH   1  23
ATOM     23  C   UNL     1       0.813  -1.747  -1.445  0.00  0.00    +0.116 C 
BRANCH  23  24
ATOM     24  C   UNL     1       0.692  -0.224  -1.523  0.00  0.00    +0.019 C 
BRANCH  24  26
ATOM     25  C   UNL     1      -0.110   1.823  -0.334  0.00  0.00    +0.004 C 
ATOM     26  C   UNL     1       0.011   0.299  -0.257  0.00  0.00    -0.002 C 
ENDBRANCH  24  26
ENDBRANCH  23  24
ENDBRANCH   1  23
BRANCH   5  27
ATOM     27  C   UNL     1       0.854  -4.840  -6.375  0.00  0.00    +0.022 C 
BRANCH  27  28
ATOM     28  C   UNL     1      -0.568  -4.279  -6.320  0.00  0.00    -0.016 C 
ATOM     29  C   UNL     1      -1.218  -4.401  -7.700  0.00  0.00    +0.007 C 
ATOM     30  C   UNL     1      -1.389  -5.067  -5.298  0.00  0.00    +0.007 C 
ENDBRANCH  27  28
ENDBRANCH   5  27
TORSDOF 5
