REMARK  Name = ZINC40986715
REMARK  10 active torsions:
REMARK  status: ('A' for Active; 'I' for Inactive)
REMARK    1  A    between atoms: C_1  and  C_2
REMARK    2  A    between atoms: C_2  and  C_3
REMARK    3  A    between atoms: C_3  and  C_4
REMARK    4  A    between atoms: C_4  and  S_5
REMARK    5  A    between atoms: S_5  and  C_6
REMARK    6  A    between atoms: C_11  and  C_27
REMARK    7  A    between atoms: C_13  and  C_17
REMARK    8  A    between atoms: C_14  and  C_16
REMARK    9  A    between atoms: N_19  and  C_20
REMARK   10  A    between atoms: C_25  and  C_26
REMARK                            x       y       z     vdW  Elec       q    Type
REMARK                         _______ _______ _______ _____ _____    ______ ____
ROOT
ATOM      1  C   UNL     1       2.311  -4.431   1.774  0.00  0.00    +0.210 A 
ATOM      2  N   UNL     1       1.613  -5.318   1.050  0.00  0.00    -0.187 NA
ATOM      3  C   UNL     1       1.639  -6.481   1.641  0.00  0.00    +0.220 A 
ATOM      4  N   UNL     1       2.364  -6.359   2.780  0.00  0.00    -0.217 N 
ATOM      5  N   UNL     1       2.793  -5.034   2.840  0.00  0.00    -0.141 NA
ATOM      6  C   UNL     1       2.601  -7.461   3.709  0.00  0.00    +0.213 C 
ATOM      7  C   UNL     1       2.189  -8.757   3.065  0.00  0.00    +0.063 C 
ATOM      8  C   UNL     1       1.474  -8.817   1.932  0.00  0.00    +0.018 C 
ATOM      9  N   UNL     1       1.068  -7.689   1.262  0.00  0.00    -0.287 N 
ATOM     10  C   UNL     1       1.102 -10.168   1.376  0.00  0.00    +0.061 C 
ATOM     11  H   UNL     1       0.409  -7.734   0.553  0.00  0.00    +0.155 HD
ENDROOT
BRANCH   6  12
ATOM     12  C   UNL     1       4.066  -7.516   4.059  0.00  0.00    +0.136 A 
ATOM     13  C   UNL     1       4.579  -7.498   5.302  0.00  0.00    +0.048 A 
ATOM     14  C   UNL     1       5.985  -7.567   5.167  0.00  0.00    +0.057 A 
ATOM     15  C   UNL     1       6.247  -7.624   3.848  0.00  0.00    +0.170 A 
ATOM     16  O   UNL     1       5.080  -7.599   3.182  0.00  0.00    -0.451 OA
ATOM     17 BR   UNL     1       7.965  -7.730   3.065  0.00  0.00    -0.008 Br
ENDBRANCH   6  12
BRANCH   7  18
ATOM     18  C   UNL     1       2.575  -9.970   3.683  0.00  0.00    +0.248 C 
ATOM     19  O   UNL     1       2.041 -10.322   4.719  0.00  0.00    -0.270 OA
ATOM     20  N   UNL     1       3.535 -10.735   3.126  0.00  0.00    -0.281 N 
ATOM     21  H   UNL     1       3.904 -10.497   2.261  0.00  0.00    +0.155 HD
BRANCH  20  22
ATOM     22  C   UNL     1       4.000 -11.871   3.795  0.00  0.00    +0.037 A 
ATOM     23  C   UNL     1       3.149 -12.583   4.631  0.00  0.00    +0.023 A 
ATOM     24  C   UNL     1       3.611 -13.705   5.291  0.00  0.00    +0.002 A 
ATOM     25  C   UNL     1       4.919 -14.120   5.119  0.00  0.00    +0.000 A 
ATOM     26  C   UNL     1       5.768 -13.414   4.287  0.00  0.00    +0.005 A 
ATOM     27  C   UNL     1       5.311 -12.294   3.620  0.00  0.00    -0.029 A 
ATOM     28  C   UNL     1       6.235 -11.529   2.709  0.00  0.00    +0.045 C 
ENDBRANCH  20  22
ENDBRANCH   7  18
BRANCH   1  29
ATOM     29  S   UNL     1       2.550  -2.735   1.362  0.00  0.00    -0.084 S 
BRANCH  29  30
ATOM     30  C   UNL     1       1.648  -2.531  -0.198  0.00  0.00    +0.077 C 
BRANCH  30  31
ATOM     31  C   UNL     1       1.775  -1.083  -0.675  0.00  0.00    +0.011 C 
BRANCH  31  33
ATOM     32  C   UNL     1       1.141   0.537  -2.468  0.00  0.00    +0.004 C 
ATOM     33  C   UNL     1       1.013  -0.911  -1.991  0.00  0.00    -0.003 C 
ENDBRANCH  31  33
ENDBRANCH  30  31
ENDBRANCH  29  30
ENDBRANCH   1  29
TORSDOF 7
