REMARK  Name = ZINC60039788
REMARK  16 active torsions:
REMARK  status: ('A' for Active; 'I' for Inactive)
REMARK    1  A    between atoms: C_1  and  C_2
REMARK    2  A    between atoms: C_2  and  C_3
REMARK    3  A    between atoms: C_3  and  N_4
REMARK    4  A    between atoms: N_4  and  C_5
REMARK    5  A    between atoms: N_4  and  C_27
REMARK    6  A    between atoms: C_5  and  C_6
REMARK    7  A    between atoms: N_8  and  C_9
REMARK    8  A    between atoms: N_8  and  C_13
REMARK    9  A    between atoms: C_9  and  C_10
REMARK   10  A    between atoms: C_10  and  C_11
REMARK   11  A    between atoms: C_10  and  C_12
REMARK   12  A    between atoms: C_14  and  N_26
REMARK   13  A    between atoms: N_15  and  C_22
REMARK   14  A    between atoms: C_22  and  C_23
REMARK   15  A    between atoms: C_23  and  C_24
REMARK   16  A    between atoms: C_23  and  C_25
REMARK                            x       y       z     vdW  Elec       q    Type
REMARK                         _______ _______ _______ _____ _____    ______ ____
ROOT
ATOM      1  C   UNL     1       0.671  -1.873   1.929  0.00  0.00    +0.203 C 
ATOM      2  O   UNL     1       1.089  -0.829   1.475  0.00  0.00    -0.277 OA
ATOM      3  N   UNL     1       1.382  -2.534   2.867  0.00  0.00    -0.266 N 
ENDROOT
BRANCH   3   4
ATOM      4  C   UNL     1       2.556  -1.959   3.397  0.00  0.00    +0.140 A 
ATOM      5  C   UNL     1       3.635  -1.687   2.580  0.00  0.00    +0.127 A 
ATOM      6  N   UNL     1       4.766  -1.126   3.126  0.00  0.00    -0.280 N 
ATOM      7  C   UNL     1       4.820  -0.845   4.441  0.00  0.00    +0.331 A 
ATOM      8  O   UNL     1       5.829  -0.349   4.904  0.00  0.00    -0.246 OA
ATOM      9  N   UNL     1       3.779  -1.102   5.252  0.00  0.00    -0.273 N 
ATOM     10  H   UNL     1       3.842  -0.890   6.196  0.00  0.00    +0.173 HD
ATOM     11  C   UNL     1       2.646  -1.647   4.767  0.00  0.00    +0.277 A 
ATOM     12  O   UNL     1       1.706  -1.872   5.510  0.00  0.00    -0.266 OA
BRANCH   5  13
ATOM     13  N   UNL     1       3.580  -1.974   1.238  0.00  0.00    -0.343 N 
ATOM     14  H   UNL     1       2.771  -2.348   0.854  0.00  0.00    +0.144 HD
ATOM     15  H   UNL     1       4.351  -1.804   0.673  0.00  0.00    +0.144 HD
ENDBRANCH   5  13
BRANCH   6  16
ATOM     16  C   UNL     1       5.919  -0.833   2.271  0.00  0.00    +0.131 C 
BRANCH  16  17
ATOM     17  C   UNL     1       5.792   0.586   1.713  0.00  0.00    +0.003 C 
ATOM     18  C   UNL     1       5.873   1.595   2.861  0.00  0.00    +0.009 C 
ATOM     19  C   UNL     1       6.929   0.848   0.723  0.00  0.00    +0.009 C 
ENDBRANCH  16  17
ENDBRANCH   6  16
ENDBRANCH   3   4
BRANCH   1  20
ATOM     20  C   UNL     1      -0.642  -2.433   1.446  0.00  0.00    +0.019 C 
BRANCH  20  21
ATOM     21  N   UNL     1      -1.259  -1.490   0.503  0.00  0.00    +0.388 N 
ATOM     22  H   UNL     1      -0.603  -1.272  -0.232  0.00  0.00    -0.081 HD
BRANCH  21  23
ATOM     23  C   UNL     1      -2.464  -2.097  -0.078  0.00  0.00    -0.063 C 
ATOM     24  C   UNL     1      -3.095  -1.128  -1.085  0.00  0.00    -0.010 C 
ATOM     25  C   UNL     1      -4.461  -1.677  -1.491  0.00  0.00    +0.034 C 
ATOM     26  C   UNL     1      -4.347  -3.116  -1.922  0.00  0.00    -0.044 A 
ATOM     27  C   UNL     1      -5.389  -3.652  -2.668  0.00  0.00    +0.004 A 
ATOM     28  C   UNL     1      -5.346  -4.965  -3.088  0.00  0.00    +0.000 A 
ATOM     29  C   UNL     1      -4.259  -5.755  -2.764  0.00  0.00    +0.000 A 
ATOM     30  C   UNL     1      -3.223  -5.224  -2.025  0.00  0.00    +0.004 A 
ATOM     31  C   UNL     1      -3.262  -3.901  -1.604  0.00  0.00    -0.046 A 
ATOM     32  C   UNL     1      -2.089  -3.382  -0.813  0.00  0.00    +0.020 C 
ENDBRANCH  21  23
BRANCH  21  33
ATOM     33  C   UNL     1      -1.625  -0.257   1.213  0.00  0.00    -0.078 C 
BRANCH  33  35
ATOM     34  C   UNL     1      -3.118   0.725   2.959  0.00  0.00    +0.002 C 
ATOM     35  C   UNL     1      -2.736  -0.559   2.220  0.00  0.00    -0.022 C 
ENDBRANCH  33  35
ENDBRANCH  21  33
ENDBRANCH  20  21
ENDBRANCH   1  20
BRANCH   3  36
ATOM     36  C   UNL     1       0.934  -3.848   3.335  0.00  0.00    +0.117 C 
BRANCH  36  37
ATOM     37  C   UNL     1       1.474  -4.933   2.401  0.00  0.00    +0.001 C 
ATOM     38  C   UNL     1       2.999  -4.987   2.510  0.00  0.00    +0.009 C 
ATOM     39  C   UNL     1       0.885  -6.287   2.800  0.00  0.00    +0.009 C 
ENDBRANCH  36  37
ENDBRANCH   3  36
TORSDOF 11
