REMARK  Name = ZINC45893813
REMARK  2 active torsions:
REMARK  status: ('A' for Active; 'I' for Inactive)
REMARK    1  A    between atoms: C_8  and  C_11
REMARK    2  A    between atoms: C_13  and  C_16
REMARK                            x       y       z     vdW  Elec       q    Type
REMARK                         _______ _______ _______ _____ _____    ______ ____
ROOT
ATOM      1  C   UNL     1       3.713  -3.385  -0.052  0.00  0.00    +0.275 A 
ATOM      2  N   UNL     1       5.025  -3.474  -0.059  0.00  0.00    -0.186 NA
ATOM      3  C   UNL     1       5.395  -4.763  -0.072  0.00  0.00    +0.203 A 
ATOM      4  N   UNL     1       4.320  -5.513  -0.073  0.00  0.00    -0.056 NA
ATOM      5  O   UNL     1       3.207  -4.632  -0.054  0.00  0.00    -0.331 OA
ENDROOT
BRANCH   1  13
ATOM      6  C   UNL     1      -0.016   1.361   0.009  0.00  0.00    +0.001 A 
ATOM      7  C   UNL     1       1.169   2.084   0.002  0.00  0.00    +0.002 A 
ATOM      8  C   UNL     1       2.386   1.438  -0.013  0.00  0.00    +0.026 A 
ATOM      9  C   UNL     1       2.430   0.047  -0.021  0.00  0.00    +0.047 A 
ATOM     10  C   UNL     1       1.226  -0.684  -0.013  0.00  0.00    +0.000 A 
ATOM     11  C   UNL     1       0.002  -0.004   0.002  0.00  0.00    +0.010 A 
ATOM     12  C   UNL     1       1.577  -2.057  -0.024  0.00  0.00    +0.041 A 
ATOM     13  C   UNL     1       2.933  -2.137  -0.037  0.00  0.00    +0.106 A 
ATOM     14  N   UNL     1       3.463  -0.863  -0.035  0.00  0.00    -0.350 N 
ATOM     15  H   UNL     1       4.408  -0.644  -0.044  0.00  0.00    +0.166 HD
ENDBRANCH   1  13
BRANCH   3  16
ATOM     16  C   UNL     1       6.795  -5.260  -0.085  0.00  0.00    +0.025 A 
ATOM     17  C   UNL     1       7.872  -4.370  -0.078  0.00  0.00    +0.031 A 
ATOM     18  C   UNL     1       9.157  -4.874  -0.090  0.00  0.00    +0.111 A 
ATOM     19  N   UNL     1       9.373  -6.175  -0.108  0.00  0.00    -0.263 NA
ATOM     20  C   UNL     1       8.385  -7.048  -0.115  0.00  0.00    +0.111 A 
ATOM     21  C   UNL     1       7.070  -6.630  -0.097  0.00  0.00    +0.031 A 
ENDBRANCH   3  16
TORSDOF 2
