REMARK  Name = ZINC39205122
REMARK  9 active torsions:
REMARK  status: ('A' for Active; 'I' for Inactive)
REMARK    1  A    between atoms: C_1  and  C_2
REMARK    2  A    between atoms: C_2  and  C_3
REMARK    3  A    between atoms: C_3  and  C_4
REMARK    4  A    between atoms: C_7  and  O_10
REMARK    5  A    between atoms: O_10  and  C_11
REMARK    6  A    between atoms: C_11  and  C_12
REMARK    7  A    between atoms: N_14  and  N_15
REMARK    8  A    between atoms: C_16  and  C_17
REMARK    9  A    between atoms: C_25  and  C_27
REMARK                            x       y       z     vdW  Elec       q    Type
REMARK                         _______ _______ _______ _____ _____    ______ ____
ROOT
ATOM      1  N   UNL     1      -0.848 -10.499  -2.287  0.00  0.00    -0.188 NA
ATOM      2  C   UNL     1      -1.738 -11.306  -2.807  0.00  0.00    +0.137 C 
ENDROOT
BRANCH   2   3
ATOM      3  C   UNL     1      -1.559 -12.694  -2.724  0.00  0.00    +0.008 C 
ATOM      4  C   UNL     1      -0.502 -13.373  -2.123  0.00  0.00    +0.005 A 
ATOM      5  C   UNL     1       0.657 -12.929  -1.448  0.00  0.00    +0.010 A 
ATOM      6  C   UNL     1       1.537 -13.835  -0.954  0.00  0.00    +0.001 A 
ATOM      7  C   UNL     1       1.329 -15.210  -1.094  0.00  0.00    +0.002 A 
ATOM      8  C   UNL     1       0.241 -15.708  -1.730  0.00  0.00    +0.026 A 
ATOM      9  C   UNL     1      -0.726 -14.821  -2.274  0.00  0.00    +0.044 A 
ATOM     10  N   UNL     1      -1.847 -15.048  -2.925  0.00  0.00    -0.373 N 
ATOM     11  C   UNL     1      -2.478 -13.769  -3.263  0.00  0.00    +0.142 C 
ATOM     12  H   UNL     1      -2.202 -15.924  -3.144  0.00  0.00    +0.161 HD
BRANCH  11  13
ATOM     13  C   UNL     1      -3.833 -13.667  -2.612  0.00  0.00    -0.021 A 
ATOM     14  C   UNL     1      -4.032 -14.185  -1.346  0.00  0.00    +0.006 A 
ATOM     15  C   UNL     1      -5.276 -14.092  -0.749  0.00  0.00    +0.000 A 
ATOM     16  C   UNL     1      -6.319 -13.480  -1.417  0.00  0.00    +0.000 A 
ATOM     17  C   UNL     1      -6.120 -12.961  -2.683  0.00  0.00    +0.000 A 
ATOM     18  C   UNL     1      -4.876 -13.051  -3.279  0.00  0.00    +0.006 A 
ENDBRANCH  11  13
ENDBRANCH   2   3
BRANCH   1  21
ATOM     19  C   UNL     1      -0.109  -8.281  -1.835  0.00  0.00    +0.270 C 
ATOM     20  O   UNL     1       0.870  -8.735  -1.283  0.00  0.00    -0.270 OA
ATOM     21  N   UNL     1      -1.026  -9.112  -2.370  0.00  0.00    -0.204 N 
ATOM     22  H   UNL     1      -1.810  -8.749  -2.812  0.00  0.00    +0.177 HD
BRANCH  19  23
ATOM     23  C   UNL     1      -0.301  -6.790  -1.924  0.00  0.00    +0.326 C 
BRANCH  23  24
ATOM     24  O   UNL     1       0.795  -6.129  -1.289  0.00  0.00    -0.483 OA
BRANCH  24  28
ATOM     25  C   UNL     1       0.739  -2.004  -1.265  0.00  0.00    -0.047 A 
ATOM     26  C   UNL     1       1.788  -2.684  -0.675  0.00  0.00    +0.007 A 
ATOM     27  C   UNL     1       1.810  -4.065  -0.681  0.00  0.00    +0.046 A 
ATOM     28  C   UNL     1       0.776  -4.770  -1.281  0.00  0.00    +0.121 A 
ATOM     29  C   UNL     1      -0.276  -4.087  -1.872  0.00  0.00    +0.046 A 
ATOM     30  C   UNL     1      -0.295  -2.705  -1.858  0.00  0.00    +0.007 A 
BRANCH  25  31
ATOM     31  C   UNL     1       0.718  -0.497  -1.257  0.00  0.00    +0.035 C 
BRANCH  31  33
ATOM     32  C   UNL     1      -0.019   1.526   0.010  0.00  0.00    +0.004 C 
ATOM     33  C   UNL     1       0.002  -0.004   0.002  0.00  0.00    +0.001 C 
ENDBRANCH  31  33
ENDBRANCH  25  31
ENDBRANCH  24  28
ENDBRANCH  23  24
ENDBRANCH  19  23
ENDBRANCH   1  21
TORSDOF 8
