REMARK  Name = ZINC64668377
REMARK  9 active torsions:
REMARK  status: ('A' for Active; 'I' for Inactive)
REMARK    1  A    between atoms: C_1  and  C_2
REMARK    2  A    between atoms: C_5  and  C_7
REMARK    3  A    between atoms: C_7  and  N_8
REMARK    4  A    between atoms: N_8  and  S_9
REMARK    5  A    between atoms: S_9  and  C_12
REMARK    6  A    between atoms: C_13  and  C_31
REMARK    7  A    between atoms: C_14  and  C_30
REMARK    8  A    between atoms: C_19  and  C_22
REMARK    9  A    between atoms: C_20  and  C_21
REMARK                            x       y       z     vdW  Elec       q    Type
REMARK                         _______ _______ _______ _____ _____    ______ ____
ROOT
ATOM      1  C   UNL     1       2.977  -6.220  -1.399  0.00  0.00    +0.151 A 
ATOM      2  C   UNL     1       3.603  -6.427  -0.189  0.00  0.00    -0.018 A 
ATOM      3  C   UNL     1       3.336  -7.562   0.563  0.00  0.00    -0.045 A 
ATOM      4  C   UNL     1       2.443  -8.495   0.116  0.00  0.00    +0.015 A 
ATOM      5  C   UNL     1       1.796  -8.304  -1.107  0.00  0.00    +0.026 A 
ATOM      6  C   UNL     1       2.060  -7.152  -1.872  0.00  0.00    +0.163 A 
ATOM      7  O   UNL     1       1.305  -7.221  -2.985  0.00  0.00    -0.448 OA
ATOM      8  C   UNL     1       0.559  -8.345  -2.991  0.00  0.00    +0.194 A 
ATOM      9  C   UNL     1       0.813  -9.071  -1.872  0.00  0.00    +0.008 A 
ATOM     10  C   UNL     1       0.195 -10.390  -1.487  0.00  0.00    +0.048 C 
ATOM     11  C   UNL     1       4.034  -7.768   1.883  0.00  0.00    +0.044 C 
ATOM     12  C   UNL     1       4.591  -5.410   0.322  0.00  0.00    +0.046 C 
ENDROOT
BRANCH   8  13
ATOM     13  C   UNL     1      -0.377  -8.734  -4.056  0.00  0.00    +0.282 C 
ATOM     14  O   UNL     1      -0.891  -9.836  -4.042  0.00  0.00    -0.267 OA
ATOM     15  N   UNL     1      -0.666  -7.868  -5.048  0.00  0.00    -0.295 N 
ATOM     16  C   UNL     1      -1.496  -8.285  -6.187  0.00  0.00    +0.108 C 
ATOM     17  C   UNL     1      -2.659  -7.299  -6.336  0.00  0.00    +0.019 C 
ATOM     18  C   UNL     1      -2.105  -5.877  -6.449  0.00  0.00    +0.003 C 
ATOM     19  C   UNL     1      -1.334  -5.525  -5.174  0.00  0.00    +0.019 C 
ATOM     20  C   UNL     1      -0.161  -6.489  -5.009  0.00  0.00    +0.108 C 
ENDBRANCH   8  13
BRANCH   1  21
ATOM     21  S   UNL     1       3.330  -4.773  -2.340  0.00  0.00    +0.063 S 
ATOM     22  O   UNL     1       3.318  -3.683  -1.429  0.00  0.00    -0.153 OA
ATOM     23  O   UNL     1       2.490  -4.818  -3.486  0.00  0.00    -0.153 OA
BRANCH  21  24
ATOM     24  N   UNL     1       4.886  -4.914  -2.889  0.00  0.00    -0.183 NA
ATOM     25  H   UNL     1       5.567  -4.294  -2.583  0.00  0.00    +0.148 HD
BRANCH  24  26
ATOM     26  C   UNL     1       5.236  -5.976  -3.836  0.00  0.00    +0.180 C 
BRANCH  26  31
ATOM     27  C   UNL     1       8.743  -4.200  -6.996  0.00  0.00    +0.086 C 
ATOM     28  C   UNL     1       8.102  -4.904  -5.828  0.00  0.00    +0.102 A 
ATOM     29  C   UNL     1       8.753  -5.575  -4.861  0.00  0.00    +0.044 A 
ATOM     30  C   UNL     1       7.770  -6.073  -3.975  0.00  0.00    +0.046 A 
ATOM     31  C   UNL     1       6.577  -5.676  -4.454  0.00  0.00    +0.121 A 
ATOM     32  O   UNL     1       6.785  -4.964  -5.574  0.00  0.00    -0.464 OA
ENDBRANCH  26  31
ENDBRANCH  24  26
ENDBRANCH  21  24
ENDBRANCH   1  21
TORSDOF 5
