REMARK  Name = ZINC39458368
REMARK  8 active torsions:
REMARK  status: ('A' for Active; 'I' for Inactive)
REMARK    1  A    between atoms: C_1  and  C_2
REMARK    2  A    between atoms: C_3  and  O_25
REMARK    3  A    between atoms: N_6  and  S_7
REMARK    4  A    between atoms: S_7  and  C_10
REMARK    5  A    between atoms: C_10  and  C_11
REMARK    6  A    between atoms: C_10  and  C_12
REMARK    7  A    between atoms: C_15  and  S_19
REMARK    8  A    between atoms: S_19  and  C_20
REMARK                            x       y       z     vdW  Elec       q    Type
REMARK                         _______ _______ _______ _____ _____    ______ ____
ROOT
ATOM      1  C   UNL     1      -0.018   1.503   0.010  0.00  0.00    +0.069 C 
ATOM      2  C   UNL     1       0.002  -0.004   0.002  0.00  0.00    +0.081 A 
ATOM      3  C   UNL     1       0.008  -0.791  -1.103  0.00  0.00    +0.143 A 
ATOM      4  C   UNL     1       0.026  -2.121  -0.673  0.00  0.00    +0.023 A 
ATOM      5  C   UNL     1       0.026  -2.123   0.698  0.00  0.00    +0.098 A 
ATOM      6  N   UNL     1       0.023  -0.806   1.103  0.00  0.00    -0.214 N 
ATOM      7  C   UNL     1       0.025  -3.282   1.603  0.00  0.00    +0.101 A 
ATOM      8  C   UNL     1       0.646  -4.506   1.321  0.00  0.00    +0.058 A 
ATOM      9  C   UNL     1       0.679  -5.486   2.356  0.00  0.00    +0.022 A 
ATOM     10  C   UNL     1       0.007  -5.234   3.546  0.00  0.00    +0.035 A 
ATOM     11  C   UNL     1      -0.652  -4.033   3.705  0.00  0.00    +0.112 A 
ATOM     12  N   UNL     1      -0.621  -3.116   2.765  0.00  0.00    -0.253 NA
ATOM     13  C   UNL     1       1.209  -4.902   0.096  0.00  0.00    +0.167 C 
ATOM     14  O   UNL     1       1.718  -6.004   0.092  0.00  0.00    -0.292 OA
ATOM     15  C   UNL     1       1.272  -4.180  -1.177  0.00  0.00    +0.084 C 
ATOM     16  C   UNL     1       0.048  -3.359  -1.516  0.00  0.00    +0.049 C 
ENDROOT
BRANCH   6  17
ATOM     17  S   UNL     1       0.040  -0.283   2.675  0.00  0.00    +0.058 S 
ATOM     18  O   UNL     1       0.661  -1.335   3.400  0.00  0.00    -0.153 OA
ATOM     19  O   UNL     1       0.630   1.008   2.621  0.00  0.00    -0.153 OA
BRANCH  17  20
ATOM     20  C   UNL     1      -1.709  -0.152   3.140  0.00  0.00    +0.148 C 
ATOM     21  C   UNL     1      -1.819   0.446   4.544  0.00  0.00    +0.033 C 
ATOM     22  C   UNL     1      -2.436   0.751   2.142  0.00  0.00    +0.033 C 
ENDBRANCH  17  20
ENDBRANCH   6  17
BRANCH   9  23
ATOM     23  S   UNL     1       1.558  -6.996   2.129  0.00  0.00    -0.128 S 
ATOM     24  C   UNL     1       1.308  -7.889   3.688  0.00  0.00    +0.090 C 
ENDBRANCH   9  23
BRANCH   3  25
ATOM     25  O   UNL     1      -0.002  -0.363  -2.396  0.00  0.00    -0.505 OA
ATOM     26  H   UNL     1       0.879  -0.228  -2.773  0.00  0.00    +0.292 HD
ENDBRANCH   3  25
TORSDOF 4
