REMARK  Name = ZINC39984692
REMARK  9 active torsions:
REMARK  status: ('A' for Active; 'I' for Inactive)
REMARK    1  A    between atoms: C_1  and  C_2
REMARK    2  A    between atoms: C_3  and  O_26
REMARK    3  A    between atoms: C_6  and  C_9
REMARK    4  A    between atoms: C_7  and  O_8
REMARK    5  A    between atoms: C_11  and  C_19
REMARK    6  A    between atoms: C_12  and  C_15
REMARK    7  A    between atoms: C_22  and  C_25
REMARK    8  A    between atoms: O_26  and  C_27
REMARK    9  A    between atoms: C_27  and  C_28
REMARK                            x       y       z     vdW  Elec       q    Type
REMARK                         _______ _______ _______ _____ _____    ______ ____
ROOT
ATOM      1  C   UNL     1       1.661   0.606  -1.265  0.00  0.00    +0.051 C 
ATOM      2  C   UNL     1       1.444  -0.843  -0.912  0.00  0.00    +0.033 A 
ATOM      3  C   UNL     1       1.691  -1.831  -1.852  0.00  0.00    +0.127 A 
ATOM      4  C   UNL     1       1.491  -3.165  -1.525  0.00  0.00    +0.046 A 
ATOM      5  C   UNL     1       1.044  -3.508  -0.263  0.00  0.00    +0.013 A 
ATOM      6  C   UNL     1       0.797  -2.525   0.676  0.00  0.00    +0.023 A 
ATOM      7  C   UNL     1       1.002  -1.190   0.355  0.00  0.00    +0.129 A 
ENDROOT
BRANCH   6   8
ATOM      8  C   UNL     1       0.309  -2.902   2.051  0.00  0.00    +0.166 C 
ATOM      9  C   UNL     1       1.464  -2.947   3.037  0.00  0.00    +0.034 C 
ATOM     10  C   UNL     1       1.480  -4.235   3.454  0.00  0.00    +0.170 C 
ATOM     11  N   UNL     1       0.500  -4.938   2.850  0.00  0.00    -0.173 NA
ATOM     12  N   UNL     1      -0.196  -4.286   2.063  0.00  0.00    -0.296 N 
ATOM     13  H   UNL     1      -0.942  -4.624   1.544  0.00  0.00    +0.183 HD
BRANCH   9  14
ATOM     14  C   UNL     1       2.353  -1.854   3.441  0.00  0.00    +0.055 C 
ATOM     15  C   UNL     1       2.063  -1.037   4.692  0.00  0.00    +0.126 C 
ATOM     16  S   UNL     1       3.688  -0.183   4.901  0.00  0.00    -0.128 S 
ATOM     17  C   UNL     1       4.271  -0.460   3.171  0.00  0.00    +0.160 C 
ATOM     18  N   UNL     1       3.388  -1.568   2.756  0.00  0.00    -0.273 NA
ATOM     19  C   UNL     1       5.739  -0.888   3.146  0.00  0.00    +0.044 C 
ENDBRANCH   9  14
BRANCH  10  20
ATOM     20  C   UNL     1       2.455  -4.804   4.452  0.00  0.00    +0.436 C 
ATOM     21  F   UNL     1       3.254  -3.774   4.962  0.00  0.00    -0.164 F 
ATOM     22  F   UNL     1       1.752  -5.410   5.498  0.00  0.00    -0.164 F 
ATOM     23  F   UNL     1       3.266  -5.754   3.823  0.00  0.00    -0.164 F 
ENDBRANCH  10  20
ENDBRANCH   6   8
BRANCH   7  24
ATOM     24  O   UNL     1       0.765  -0.224   1.281  0.00  0.00    -0.506 OA
ATOM     25  H   UNL     1      -0.141   0.114   1.274  0.00  0.00    +0.292 HD
ENDBRANCH   7  24
BRANCH   3  26
ATOM     26  O   UNL     1       2.129  -1.495  -3.094  0.00  0.00    -0.487 OA
BRANCH  26  27
ATOM     27  C   UNL     1       2.363  -2.564  -4.011  0.00  0.00    +0.267 C 
BRANCH  27  28
ATOM     28  C   UNL     1       2.841  -2.003  -5.326  0.00  0.00    +0.025 A 
ATOM     29  C   UNL     1       2.992  -0.638  -5.481  0.00  0.00    +0.010 A 
ATOM     30  C   UNL     1       3.430  -0.123  -6.687  0.00  0.00    +0.001 A 
ATOM     31  C   UNL     1       3.718  -0.973  -7.739  0.00  0.00    +0.003 A 
ATOM     32  C   UNL     1       3.568  -2.338  -7.586  0.00  0.00    +0.039 A 
ATOM     33  C   UNL     1       3.135  -2.855  -6.377  0.00  0.00    +0.130 A 
ATOM     34  F   UNL     1       2.993  -4.190  -6.225  0.00  0.00    -0.205 F 
ENDBRANCH  27  28
ENDBRANCH  26  27
ENDBRANCH   3  26
TORSDOF 7
