REMARK  Name = ZINC14335379
REMARK  8 active torsions:
REMARK  status: ('A' for Active; 'I' for Inactive)
REMARK    1  A    between atoms: C_1  and  C_2
REMARK    2  A    between atoms: C_2  and  C_4
REMARK    3  A    between atoms: C_2  and  S_19
REMARK    4  A    between atoms: N_6  and  C_7
REMARK    5  A    between atoms: C_8  and  C_17
REMARK    6  A    between atoms: S_19  and  C_20
REMARK    7  A    between atoms: C_22  and  C_25
REMARK    8  A    between atoms: C_26  and  C_27
REMARK                            x       y       z     vdW  Elec       q    Type
REMARK                         _______ _______ _______ _____ _____    ______ ____
ROOT
ATOM      1  C   UNL     1      -0.019   1.526   0.010  0.00  0.00    +0.029 C 
ATOM      2  C   UNL     1       0.002  -0.004   0.002  0.00  0.00    +0.137 C 
ENDROOT
BRANCH   2   3
ATOM      3  C   UNL     1      -1.412  -0.526   0.013  0.00  0.00    +0.231 C 
ATOM      4  O   UNL     1      -1.939  -0.827   1.063  0.00  0.00    -0.274 OA
ATOM      5  N   UNL     1      -2.090  -0.657  -1.144  0.00  0.00    -0.278 N 
ATOM      6  H   UNL     1      -1.669  -0.416  -1.984  0.00  0.00    +0.155 HD
BRANCH   5   7
ATOM      7  C   UNL     1      -3.392  -1.138  -1.135  0.00  0.00    +0.090 A 
ATOM      8  C   UNL     1      -4.232  -1.342  -2.215  0.00  0.00    +0.084 A 
ATOM      9  C   UNL     1      -5.565  -1.859  -1.940  0.00  0.00    -0.018 A 
ATOM     10  C   UNL     1      -5.810  -2.070  -0.629  0.00  0.00    -0.004 A 
ATOM     11  S   UNL     1      -4.308  -1.611   0.190  0.00  0.00    -0.077 S 
ATOM     12  C   UNL     1      -7.074  -2.573  -0.004  0.00  0.00    +0.043 C 
ATOM     13  C   UNL     1      -7.542  -3.827  -0.755  0.00  0.00    +0.005 C 
ATOM     14  C   UNL     1      -8.450  -3.396  -1.903  0.00  0.00    +0.001 C 
ATOM     15  C   UNL     1      -7.996  -2.046  -2.456  0.00  0.00    +0.005 C 
ATOM     16  C   UNL     1      -6.586  -2.151  -3.029  0.00  0.00    +0.037 C 
BRANCH   8  17
ATOM     17  C   UNL     1      -3.807  -1.056  -3.552  0.00  0.00    +0.102 C 
ATOM     18  N   UNL     1      -3.469  -0.830  -4.613  0.00  0.00    -0.191 NA
ENDBRANCH   8  17
ENDBRANCH   5   7
ENDBRANCH   2   3
BRANCH   2  19
ATOM     19  S   UNL     1       0.879  -0.605   1.472  0.00  0.00    -0.072 S 
BRANCH  19  20
ATOM     20  C   UNL     1       2.533  -0.042   1.241  0.00  0.00    +0.210 A 
ATOM     21  N   UNL     1       3.546  -0.258   2.081  0.00  0.00    -0.202 NA
ATOM     22  C   UNL     1       4.647   0.300   1.604  0.00  0.00    +0.150 A 
ATOM     23  N   UNL     1       4.331   0.894   0.420  0.00  0.00    -0.258 N 
ATOM     24  N   UNL     1       2.963   0.651   0.211  0.00  0.00    -0.145 NA
ATOM     25  H   UNL     1       4.931   1.384  -0.164  0.00  0.00    +0.191 HD
BRANCH  22  26
ATOM     26  C   UNL     1       5.968   0.283   2.236  0.00  0.00    +0.049 C 
ATOM     27  C   UNL     1       6.143  -0.346   3.419  0.00  0.00    +0.018 C 
BRANCH  27  28
ATOM     28  C   UNL     1       7.463  -0.363   4.051  0.00  0.00    +0.012 A 
ATOM     29  C   UNL     1       7.853  -0.950   5.245  0.00  0.00    +0.015 A 
ATOM     30  C   UNL     1       9.165  -0.828   5.633  0.00  0.00    +0.008 A 
ATOM     31  C   UNL     1      10.033  -0.142   4.842  0.00  0.00    +0.046 A 
ATOM     32  S   UNL     1       8.993   0.360   3.481  0.00  0.00    -0.097 S 
ENDBRANCH  27  28
ENDBRANCH  22  26
ENDBRANCH  19  20
ENDBRANCH   2  19
TORSDOF 7
