REMARK  Name = ZINC39962688
REMARK  6 active torsions:
REMARK  status: ('A' for Active; 'I' for Inactive)
REMARK    1  A    between atoms: C_1  and  O_2
REMARK    2  A    between atoms: O_2  and  C_3
REMARK    3  A    between atoms: C_6  and  C_9
REMARK    4  A    between atoms: C_11  and  C_15
REMARK    5  A    between atoms: C_19  and  S_32
REMARK    6  A    between atoms: N_21  and  C_22
REMARK                            x       y       z     vdW  Elec       q    Type
REMARK                         _______ _______ _______ _____ _____    ______ ____
ROOT
ATOM      1  C   UNL     1      -7.083  -4.879   1.310  0.00  0.00    +0.188 C 
ATOM      2  N   UNL     1      -6.875  -4.030   2.512  0.00  0.00    -0.232 NA
ATOM      3  N   UNL     1      -7.838  -4.584   3.477  0.00  0.00    -0.226 NA
ATOM      4  C   UNL     1      -9.023  -4.930   2.659  0.00  0.00    +0.214 C 
ATOM      5  N   UNL     1      -8.540  -5.120   1.278  0.00  0.00    -0.285 N 
ATOM      6  H   UNL     1      -5.930  -4.114   2.856  0.00  0.00    +0.143 HD
ATOM      7  H   UNL     1      -7.463  -5.402   3.933  0.00  0.00    +0.143 HD
ENDROOT
BRANCH   5   8
ATOM      8  C   UNL     1      -9.305  -5.458   0.164  0.00  0.00    +0.041 A 
ATOM      9  C   UNL     1      -9.506  -6.782  -0.167  0.00  0.00    +0.024 A 
ATOM     10  C   UNL     1     -10.268  -7.130  -1.277  0.00  0.00    +0.002 A 
ATOM     11  C   UNL     1     -10.837  -6.177  -2.067  0.00  0.00    +0.008 A 
ATOM     12  C   UNL     1     -10.656  -4.816  -1.765  0.00  0.00    -0.016 A 
ATOM     13  C   UNL     1      -9.887  -4.449  -0.634  0.00  0.00    +0.003 A 
ATOM     14  C   UNL     1      -9.712  -3.090  -0.331  0.00  0.00    +0.010 A 
ATOM     15  C   UNL     1     -10.287  -2.143  -1.122  0.00  0.00    +0.001 A 
ATOM     16  C   UNL     1     -11.050  -2.503  -2.232  0.00  0.00    +0.001 A 
ATOM     17  C   UNL     1     -11.231  -3.811  -2.562  0.00  0.00    +0.008 A 
ENDBRANCH   5   8
BRANCH   1  20
ATOM     18  C   UNL     1      -4.963  -2.620   0.035  0.00  0.00    +0.091 C 
ATOM     19  C   UNL     1      -5.128  -3.957   0.039  0.00  0.00    +0.034 C 
ATOM     20  C   UNL     1      -6.635  -4.138   0.048  0.00  0.00    +0.189 C 
ATOM     21  N   UNL     1      -7.139  -2.755   0.047  0.00  0.00    -0.176 NA
ATOM     22  N   UNL     1      -6.170  -1.994   0.045  0.00  0.00    -0.154 NA
BRANCH  18  26
ATOM     23  C   UNL     1      -1.200  -0.637   0.010  0.00  0.00    +0.120 A 
ATOM     24  C   UNL     1      -2.374   0.104   0.019  0.00  0.00    +0.046 A 
ATOM     25  C   UNL     1      -3.595  -0.536   0.027  0.00  0.00    +0.013 A 
ATOM     26  C   UNL     1      -3.651  -1.928   0.026  0.00  0.00    +0.002 A 
ATOM     27  C   UNL     1      -2.471  -2.670   0.016  0.00  0.00    +0.013 A 
ATOM     28  C   UNL     1      -1.252  -2.025   0.003  0.00  0.00    +0.046 A 
BRANCH  23  30
ATOM     29  C   UNL     1      -0.017   1.425   0.010  0.00  0.00    +0.277 C 
ATOM     30  O   UNL     1       0.002  -0.004   0.002  0.00  0.00    -0.495 OA
ENDBRANCH  23  30
ENDBRANCH  18  26
ENDBRANCH   1  20
BRANCH   4  31
ATOM     31  S   UNL     1      -9.775  -6.463   3.269  0.00  0.00    -0.139 S 
ATOM     32  H   UNL     1     -10.139  -6.168   4.530  0.00  0.00    +0.105 HD
ENDBRANCH   4  31
TORSDOF 5
