REMARK  Name = ZINC03353200
REMARK  12 active torsions:
REMARK  status: ('A' for Active; 'I' for Inactive)
REMARK    1  A    between atoms: C_1  and  C_2
REMARK    2  A    between atoms: C_2  and  N_3
REMARK    3  A    between atoms: N_3  and  C_4
REMARK    4  A    between atoms: N_3  and  C_6
REMARK    5  A    between atoms: C_4  and  C_5
REMARK    6  A    between atoms: C_6  and  C_7
REMARK    7  A    between atoms: C_7  and  N_8
REMARK    8  A    between atoms: C_12  and  C_13
REMARK    9  A    between atoms: C_17  and  N_19
REMARK   10  A    between atoms: N_25  and  C_26
REMARK   11  A    between atoms: C_29  and  O_32
REMARK   12  A    between atoms: O_32  and  C_33
REMARK                            x       y       z     vdW  Elec       q    Type
REMARK                         _______ _______ _______ _____ _____    ______ ____
ROOT
ATOM      1  N   UNL     1      -0.270  -3.521   1.020  0.00  0.00    -0.248 N 
ATOM      2  C   UNL     1      -0.837  -4.061  -0.048  0.00  0.00    +0.259 C 
ATOM      3  O   UNL     1      -1.240  -3.390  -0.980  0.00  0.00    -0.269 OA
ATOM      4  C   UNL     1      -0.941  -5.539  -0.034  0.00  0.00    +0.078 C 
ATOM      5  C   UNL     1      -1.474  -6.400  -0.993  0.00  0.00    +0.028 C 
ATOM      6  S   UNL     1      -0.204  -5.919   1.548  0.00  0.00    -0.049 S 
ATOM      7  C   UNL     1       0.168  -4.302   2.051  0.00  0.00    +0.168 C 
ATOM      8  N   UNL     1       0.749  -3.911   3.186  0.00  0.00    -0.225 NA
ENDROOT
BRANCH   5   9
ATOM      9  C   UNL     1      -1.339  -7.799  -0.840  0.00  0.00    -0.022 A 
ATOM     10  C   UNL     1      -2.162  -8.675  -1.574  0.00  0.00    +0.009 A 
ATOM     11  C   UNL     1      -2.023 -10.024  -1.420  0.00  0.00    +0.023 A 
ATOM     12  C   UNL     1      -1.074 -10.534  -0.543  0.00  0.00    +0.071 A 
ATOM     13  C   UNL     1      -0.258  -9.679   0.186  0.00  0.00    +0.145 A 
ATOM     14  C   UNL     1      -0.377  -8.326   0.042  0.00  0.00    +0.042 A 
ATOM     15 CL   UNL     1      -0.907 -12.252  -0.357  0.00  0.00    -0.081 Cl
BRANCH  13  16
ATOM     16  N   UNL     1       0.749 -10.236   1.117  0.00  0.00    +0.058 N 
ATOM     17  O   UNL     1       1.525  -9.427   1.809  0.00  0.00    -0.126 OA
ATOM     18  O   UNL     1       0.870 -11.541   1.253  0.00  0.00    -0.126 OA
ENDBRANCH  13  16
ENDBRANCH   5   9
BRANCH   8  19
ATOM     19  C   UNL     1       1.116  -4.814   4.091  0.00  0.00    +0.067 A 
ATOM     20  C   UNL     1       0.214  -5.907   4.468  0.00  0.00    +0.031 A 
ATOM     21  C   UNL     1       0.625  -6.814   5.391  0.00  0.00    +0.048 A 
ATOM     22  C   UNL     1       1.886  -6.707   5.990  0.00  0.00    +0.120 A 
ATOM     23  C   UNL     1       2.771  -5.673   5.658  0.00  0.00    +0.048 A 
ATOM     24  C   UNL     1       2.429  -4.734   4.739  0.00  0.00    +0.031 A 
BRANCH  22  25
ATOM     25  O   UNL     1       2.259  -7.624   6.909  0.00  0.00    -0.495 OA
ATOM     26  C   UNL     1       1.321  -8.658   7.212  0.00  0.00    +0.277 C 
ENDBRANCH  22  25
ENDBRANCH   8  19
BRANCH   1  27
ATOM     27  C   UNL     1      -0.117  -2.066   1.099  0.00  0.00    +0.097 C 
BRANCH  27  28
ATOM     28  C   UNL     1       1.231  -1.662   0.499  0.00  0.00    -0.059 C 
BRANCH  28  29
ATOM     29  N   UNL     1       1.385  -0.203   0.579  0.00  0.00    +0.380 N 
ATOM     30  H   UNL     1       1.194   0.101   1.618  0.00  0.00    -0.082 HD
BRANCH  29  32
ATOM     31  C   UNL     1       0.316   1.952   0.120  0.00  0.00    -0.017 C 
ATOM     32  C   UNL     1       0.404   0.477  -0.277  0.00  0.00    -0.082 C 
ENDBRANCH  29  32
BRANCH  29  33
ATOM     33  C   UNL     1       2.754   0.202   0.234  0.00  0.00    -0.082 C 
ATOM     34  C   UNL     1       3.704  -0.197   1.365  0.00  0.00    -0.017 C 
ENDBRANCH  29  33
ENDBRANCH  28  29
ENDBRANCH  27  28
ENDBRANCH   1  27
TORSDOF 9
