REMARK  Name = ZINC39678404
REMARK  6 active torsions:
REMARK  status: ('A' for Active; 'I' for Inactive)
REMARK    1  A    between atoms: C_3  and  C_11
REMARK    2  A    between atoms: C_5  and  O_7
REMARK    3  A    between atoms: O_7  and  C_8
REMARK    4  A    between atoms: C_11  and  N_12
REMARK    5  A    between atoms: C_13  and  C_15
REMARK    6  A    between atoms: C_26  and  C_28
REMARK                            x       y       z     vdW  Elec       q    Type
REMARK                         _______ _______ _______ _____ _____    ______ ____
ROOT
ATOM      1  C   UNL     1       5.679   3.363   3.016  0.00  0.00    +0.100 C 
ATOM      2  C   UNL     1       4.714   4.346   3.715  0.00  0.00    +0.121 C 
ATOM      3  N   UNL     1       5.587   5.184   4.570  0.00  0.00    -0.296 N 
ATOM      4  C   UNL     1       6.798   5.415   3.745  0.00  0.00    +0.115 C 
ATOM      5  C   UNL     1       7.045   4.069   3.037  0.00  0.00    -0.004 C 
ATOM      6  C   UNL     1       7.540   4.305   1.613  0.00  0.00    -0.010 C 
ATOM      7  C   UNL     1       8.926   4.955   1.660  0.00  0.00    -0.082 C 
ATOM      8  N   UNL     1       9.855   4.078   2.383  0.00  0.00    +0.379 N 
ATOM      9  C   UNL     1       9.422   3.930   3.778  0.00  0.00    -0.082 C 
ATOM     10  C   UNL     1       8.057   3.238   3.820  0.00  0.00    -0.010 C 
ATOM     11  C   UNL     1       5.338   5.635   5.815  0.00  0.00    +0.248 C 
ATOM     12  O   UNL     1       4.335   5.277   6.401  0.00  0.00    -0.270 OA
ATOM     13  H   UNL     1       9.873   3.171   1.940  0.00  0.00    -0.086 HD
ATOM     14  H   UNL     1      10.781   4.479   2.360  0.00  0.00    -0.086 HD
ENDROOT
BRANCH  11  15
ATOM     15  C   UNL     1       6.284   6.562   6.468  0.00  0.00    +0.055 A 
ATOM     16  C   UNL     1       6.962   7.520   5.711  0.00  0.00    +0.016 A 
ATOM     17  C   UNL     1       7.844   8.383   6.326  0.00  0.00    +0.021 A 
ATOM     18  C   UNL     1       8.059   8.302   7.693  0.00  0.00    +0.042 A 
ATOM     19  C   UNL     1       7.391   7.355   8.450  0.00  0.00    +0.040 A 
ATOM     20  C   UNL     1       6.500   6.489   7.847  0.00  0.00    +0.054 A 
ATOM     21 CL   UNL     1       5.657   5.306   8.798  0.00  0.00    -0.083 Cl
ATOM     22 CL   UNL     1       9.171   9.392   8.459  0.00  0.00    -0.083 Cl
ENDBRANCH  11  15
BRANCH   1  24
ATOM     23  N   UNL     1       5.657   2.013   0.943  0.00  0.00    -0.311 N 
ATOM     24  C   UNL     1       5.238   3.115   1.596  0.00  0.00    +0.218 C 
ATOM     25  O   UNL     1       4.506   3.907   1.042  0.00  0.00    -0.275 OA
ATOM     26  H   UNL     1       6.243   1.380   1.387  0.00  0.00    +0.149 HD
BRANCH  23  27
ATOM     27  C   UNL     1       5.229   1.773  -0.437  0.00  0.00    +0.139 C 
BRANCH  27  30
ATOM     28  C   UNL     1       5.704  -1.893  -1.212  0.00  0.00    +0.004 A 
ATOM     29  C   UNL     1       5.154  -0.708  -0.759  0.00  0.00    +0.005 A 
ATOM     30  C   UNL     1       5.832   0.484  -0.933  0.00  0.00    -0.027 A 
ATOM     31  C   UNL     1       7.062   0.494  -1.561  0.00  0.00    +0.051 A 
ATOM     32  C   UNL     1       7.617  -0.693  -2.017  0.00  0.00    +0.127 A 
ATOM     33  C   UNL     1       6.934  -1.888  -1.841  0.00  0.00    +0.046 A 
BRANCH  32  34
ATOM     34  O   UNL     1       8.827  -0.685  -2.636  0.00  0.00    -0.434 OA
BRANCH  34  35
ATOM     35  C   UNL     1       9.337  -1.944  -3.080  0.00  0.00    +0.541 C 
ATOM     36  F   UNL     1       9.480  -2.801  -1.983  0.00  0.00    -0.166 F 
ATOM     37  F   UNL     1       8.448  -2.509  -4.000  0.00  0.00    -0.166 F 
ENDBRANCH  34  35
ENDBRANCH  32  34
ENDBRANCH  27  30
ENDBRANCH  23  27
ENDBRANCH   1  24
TORSDOF 6
