REMARK  Name = ZINC02294448
REMARK  6 active torsions:
REMARK  status: ('A' for Active; 'I' for Inactive)
REMARK    1  A    between atoms: C_9  and  C_22
REMARK    2  A    between atoms: C_10  and  N_21
REMARK    3  A    between atoms: N_11  and  C_14
REMARK    4  A    between atoms: N_24  and  C_25
REMARK    5  A    between atoms: C_25  and  C_26
REMARK    6  A    between atoms: C_26  and  C_27
REMARK                            x       y       z     vdW  Elec       q    Type
REMARK                         _______ _______ _______ _____ _____    ______ ____
ROOT
ATOM      1  C   UNL     1      -0.551   2.785 -11.336  0.00  0.00    +0.002 A 
ATOM      2  C   UNL     1      -0.855   3.875 -12.151  0.00  0.00    +0.002 A 
ATOM      3  C   UNL     1      -0.888   5.138 -11.646  0.00  0.00    +0.030 A 
ATOM      4  C   UNL     1      -0.613   5.355 -10.283  0.00  0.00    +0.092 A 
ATOM      5  C   UNL     1      -0.305   4.246  -9.455  0.00  0.00    +0.090 A 
ATOM      6  C   UNL     1      -0.280   2.955 -10.014  0.00  0.00    +0.030 A 
ATOM      7  N   UNL     1      -0.039   4.425  -8.156  0.00  0.00    -0.241 NA
ATOM      8  C   UNL     1      -0.066   5.641  -7.648  0.00  0.00    +0.123 A 
ATOM      9  C   UNL     1       0.165   6.204  -6.308  0.00  0.00    +0.104 A 
ATOM     10  C   UNL     1      -0.023   7.577  -6.418  0.00  0.00    +0.117 A 
ATOM     11  N   UNL     1      -0.337   7.913  -7.701  0.00  0.00    -0.280 N 
ATOM     12  C   UNL     1      -0.385   6.789  -8.502  0.00  0.00    +0.166 A 
ATOM     13  N   UNL     1      -0.643   6.594  -9.778  0.00  0.00    -0.225 NA
ENDROOT
BRANCH  11  14
ATOM     14  C   UNL     1      -0.583   9.220  -8.145  0.00  0.00    +0.050 A 
ATOM     15  C   UNL     1       0.272   9.815  -9.063  0.00  0.00    +0.027 A 
ATOM     16  C   UNL     1       0.025  11.100  -9.502  0.00  0.00    +0.017 A 
ATOM     17  C   UNL     1      -1.069  11.799  -9.021  0.00  0.00    +0.018 A 
ATOM     18  C   UNL     1      -1.920  11.210  -8.103  0.00  0.00    +0.017 A 
ATOM     19  C   UNL     1      -1.679   9.923  -7.664  0.00  0.00    +0.027 A 
ATOM     20 BR   UNL     1      -1.401  13.562  -9.620  0.00  0.00    -0.050 Br
ENDBRANCH  11  14
BRANCH   9  21
ATOM     21  C   UNL     1       0.515   5.464  -5.098  0.00  0.00    +0.250 C 
ATOM     22  O   UNL     1       1.685   5.272  -4.819  0.00  0.00    -0.270 OA
ATOM     23  N   UNL     1      -0.456   4.993  -4.290  0.00  0.00    -0.311 N 
ATOM     24  H   UNL     1      -1.388   5.146  -4.513  0.00  0.00    +0.149 HD
BRANCH  23  25
ATOM     25  C   UNL     1      -0.104   4.251  -3.077  0.00  0.00    +0.109 C 
BRANCH  25  26
ATOM     26  C   UNL     1      -1.382   3.833  -2.347  0.00  0.00    +0.049 C 
BRANCH  26  27
ATOM     27  C   UNL     1      -1.020   3.070  -1.099  0.00  0.00    -0.072 C 
ATOM     28  C   UNL     1      -0.952   3.725   0.015  0.00  0.00    -0.028 C 
ATOM     29  C   UNL     1      -0.595   3.106   1.335  0.00  0.00    +0.027 C 
ATOM     30  C   UNL     1      -0.739   1.585   1.264  0.00  0.00    +0.004 C 
ATOM     31  C   UNL     1      -0.013   1.086   0.008  0.00  0.00    +0.005 C 
ATOM     32  C   UNL     1      -0.761   1.597  -1.225  0.00  0.00    +0.030 C 
ENDBRANCH  26  27
ENDBRANCH  25  26
ENDBRANCH  23  25
ENDBRANCH   9  21
BRANCH  10  33
ATOM     33  N   UNL     1       0.096   8.468  -5.383  0.00  0.00    -0.343 N 
ATOM     34  H   UNL     1       0.327   8.152  -4.495  0.00  0.00    +0.144 HD
ATOM     35  H   UNL     1      -0.050   9.415  -5.538  0.00  0.00    +0.144 HD
ENDBRANCH  10  33
TORSDOF 6
