REMARK  Name = ZINC63694856
REMARK  12 active torsions:
REMARK  status: ('A' for Active; 'I' for Inactive)
REMARK    1  A    between atoms: C_1  and  C_2
REMARK    2  A    between atoms: C_2  and  C_3
REMARK    3  A    between atoms: C_3  and  C_5
REMARK    4  A    between atoms: C_3  and  N_6
REMARK    5  A    between atoms: N_6  and  C_7
REMARK    6  A    between atoms: N_6  and  C_29
REMARK    7  A    between atoms: C_7  and  C_8
REMARK    8  A    between atoms: C_8  and  N_9
REMARK    9  A    between atoms: C_10  and  C_12
REMARK   10  A    between atoms: N_15  and  C_18
REMARK   11  A    between atoms: C_24  and  C_28
REMARK   12  A    between atoms: C_29  and  C_30
REMARK                            x       y       z     vdW  Elec       q    Type
REMARK                         _______ _______ _______ _____ _____    ______ ____
ROOT
ATOM      1  N   UNL     1      -1.998   3.213  -1.128  0.00  0.00    -0.317 N 
ATOM      2  C   UNL     1      -2.650   3.700  -0.054  0.00  0.00    +0.216 C 
ATOM      3  O   UNL     1      -3.106   2.941   0.776  0.00  0.00    -0.276 OA
ATOM      4  H   UNL     1      -1.634   3.820  -1.791  0.00  0.00    +0.149 HD
ENDROOT
BRANCH   2   5
ATOM      5  C   UNL     1      -2.814   5.189   0.117  0.00  0.00    +0.077 C 
ATOM      6  C   UNL     1      -1.435   5.849   0.199  0.00  0.00    +0.028 C 
ATOM      7  C   UNL     1      -1.607   7.351   0.433  0.00  0.00    +0.089 C 
ATOM      8  N   UNL     1      -2.350   7.572   1.680  0.00  0.00    -0.266 NA
ATOM      9  C   UNL     1      -3.695   6.987   1.607  0.00  0.00    +0.089 C 
ATOM     10  C   UNL     1      -3.585   5.474   1.408  0.00  0.00    +0.028 C 
BRANCH   8  11
ATOM     11  C   UNL     1      -2.415   9.002   2.009  0.00  0.00    +0.252 C 
ATOM     12  N   UNL     1      -3.103   9.194   3.292  0.00  0.00    -0.351 N 
ATOM     13  C   UNL     1      -4.158   9.921   3.064  0.00  0.00    +0.061 A 
ATOM     14  C   UNL     1      -5.223  10.437   3.935  0.00  0.00    +0.028 A 
ATOM     15  C   UNL     1      -6.213  11.182   3.405  0.00  0.00    +0.005 A 
ATOM     16  C   UNL     1      -6.277  11.494   2.036  0.00  0.00    -0.048 A 
ATOM     17  C   UNL     1      -5.353  11.072   1.150  0.00  0.00    +0.030 A 
ATOM     18  C   UNL     1      -4.226  10.251   1.614  0.00  0.00    +0.061 A 
ATOM     19  N   UNL     1      -3.209   9.716   1.001  0.00  0.00    -0.351 N 
ATOM     20  C   UNL     1      -7.425  12.335   1.538  0.00  0.00    +0.044 C 
ATOM     21  H   UNL     1      -2.822   8.843   4.151  0.00  0.00    +0.163 HD
ATOM     22  H   UNL     1      -3.012   9.777   0.053  0.00  0.00    +0.163 HD
ENDBRANCH   8  11
ENDBRANCH   2   5
BRANCH   1  23
ATOM     23  C   UNL     1      -1.839   1.766  -1.293  0.00  0.00    +0.085 C 
BRANCH  23  24
ATOM     24  C   UNL     1      -1.068   1.482  -2.584  0.00  0.00    -0.059 C 
BRANCH  24  25
ATOM     25  N   UNL     1      -1.028   0.033  -2.822  0.00  0.00    +0.385 N 
ATOM     26  H   UNL     1      -1.965  -0.339  -2.790  0.00  0.00    -0.081 HD
BRANCH  25  27
ATOM     27  C   UNL     1      -0.210  -0.611  -1.785  0.00  0.00    -0.071 C 
ATOM     28  C   UNL     1       1.272  -0.390  -2.095  0.00  0.00    -0.013 C 
BRANCH  27  30
ATOM     29  C   UNL     1      -1.971  -2.334  -1.372  0.00  0.00    +0.002 C 
ATOM     30  C   UNL     1      -0.508  -2.111  -1.759  0.00  0.00    -0.019 C 
ENDBRANCH  27  30
ENDBRANCH  25  27
BRANCH  25  31
ATOM     31  C   UNL     1      -0.441  -0.231  -4.142  0.00  0.00    -0.035 C 
BRANCH  31  32
ATOM     32  C   UNL     1      -0.565  -1.698  -4.463  0.00  0.00    -0.027 A 
ATOM     33  C   UNL     1      -1.675  -2.414  -4.767  0.00  0.00    +0.009 A 
ATOM     34  C   UNL     1      -1.549  -3.766  -5.030  0.00  0.00    +0.008 A 
ATOM     35  C   UNL     1      -0.319  -4.334  -4.977  0.00  0.00    +0.045 A 
ATOM     36  S   UNL     1       0.713  -2.941  -4.551  0.00  0.00    -0.103 S 
ENDBRANCH  31  32
ENDBRANCH  25  31
ENDBRANCH  24  25
ENDBRANCH  23  24
ENDBRANCH   1  23
TORSDOF 9
