REMARK  Name = ZINC13500575
REMARK  16 active torsions:
REMARK  status: ('A' for Active; 'I' for Inactive)
REMARK    1  A    between atoms: C_1  and  C_2
REMARK    2  A    between atoms: C_4  and  C_37
REMARK    3  A    between atoms: C_9  and  C_14
REMARK    4  A    between atoms: C_14  and  N_72
REMARK    5  A    between atoms: C_15  and  C_16
REMARK    6  A    between atoms: C_15  and  N_72
REMARK    7  A    between atoms: C_16  and  C_17
REMARK    8  A    between atoms: C_17  and  O_18
REMARK    9  A    between atoms: C_19  and  C_21
REMARK   10  A    between atoms: C_19  and  C_34
REMARK   11  A    between atoms: C_19  and  N_72
REMARK   12  A    between atoms: N_25  and  C_26
REMARK   13  A    between atoms: C_26  and  C_27
REMARK   14  A    between atoms: C_27  and  C_28
REMARK   15  A    between atoms: C_34  and  C_35
REMARK   16  A    between atoms: C_34  and  C_36
REMARK                            x       y       z     vdW  Elec       q    Type
REMARK                         _______ _______ _______ _____ _____    ______ ____
ROOT
ATOM      1  N   UNL     1      -1.494   7.901  -1.676  0.00  0.00    +0.389 N 
ATOM      2  H   UNL     1      -0.826   7.912  -2.455  0.00  0.00    -0.080 HD
ENDROOT
BRANCH   1   3
ATOM      3  C   UNL     1      -0.959   7.046  -0.595  0.00  0.00    -0.037 C 
BRANCH   3  12
ATOM      4  C   UNL     1       3.461   1.870  -3.642  0.00  0.00    +0.044 C 
ATOM      5  C   UNL     1       2.120   2.305  -3.109  0.00  0.00    -0.050 A 
ATOM      6  C   UNL     1       1.056   1.413  -3.113  0.00  0.00    +0.008 A 
ATOM      7  C   UNL     1      -0.180   1.790  -2.636  0.00  0.00    -0.026 A 
ATOM      8  C   UNL     1      -0.363   3.075  -2.135  0.00  0.00    +0.052 A 
ATOM      9  C   UNL     1       0.718   3.977  -2.133  0.00  0.00    -0.001 A 
ATOM     10  C   UNL     1       1.962   3.573  -2.627  0.00  0.00    +0.013 A 
ATOM     11  C   UNL     1       0.513   5.328  -1.608  0.00  0.00    +0.017 A 
ATOM     12  C   UNL     1      -0.715   5.663  -1.142  0.00  0.00    +0.001 A 
ATOM     13  C   UNL     1      -1.766   4.721  -1.166  0.00  0.00    +0.251 A 
ATOM     14  O   UNL     1      -2.862   5.043  -0.741  0.00  0.00    -0.268 OA
ATOM     15  N   UNL     1      -1.587   3.478  -1.645  0.00  0.00    -0.322 N 
ATOM     16  H   UNL     1      -2.331   2.855  -1.647  0.00  0.00    +0.169 HD
ATOM     17  C   UNL     1      -1.327   0.814  -2.651  0.00  0.00    +0.046 C 
ENDBRANCH   3  12
ENDBRANCH   1   3
BRANCH   1  18
ATOM     18  C   UNL     1      -2.783   7.359  -2.157  0.00  0.00    -0.075 C 
BRANCH  18  19
ATOM     19  C   UNL     1      -3.104   7.989  -3.513  0.00  0.00    +0.009 C 
BRANCH  19  20
ATOM     20  C   UNL     1      -4.339   7.311  -4.111  0.00  0.00    +0.154 C 
BRANCH  20  21
ATOM     21  O   UNL     1      -4.639   7.900  -5.378  0.00  0.00    -0.395 OA
ATOM     22  H   UNL     1      -5.413   7.518  -5.815  0.00  0.00    +0.209 HD
ENDBRANCH  20  21
ENDBRANCH  19  20
ENDBRANCH  18  19
ENDBRANCH   1  18
BRANCH   1  23
ATOM     23  C   UNL     1      -1.680   9.282  -1.183  0.00  0.00    +0.006 C 
BRANCH  23  24
ATOM     24  C   UNL     1      -1.994  10.177  -2.353  0.00  0.00    +0.138 A 
ATOM     25  N   UNL     1      -1.433  10.145  -3.537  0.00  0.00    -0.115 NA
ATOM     26  N   UNL     1      -1.972  11.065  -4.259  0.00  0.00    -0.023 NA
ATOM     27  N   UNL     1      -2.864  11.684  -3.567  0.00  0.00    -0.044 NA
ATOM     28  N   UNL     1      -2.911  11.162  -2.388  0.00  0.00    -0.231 N 
BRANCH  28  29
ATOM     29  C   UNL     1      -3.794  11.568  -1.291  0.00  0.00    +0.152 C 
BRANCH  29  30
ATOM     30  C   UNL     1      -3.107  12.651  -0.457  0.00  0.00    +0.058 C 
BRANCH  30  31
ATOM     31  C   UNL     1      -4.015  13.069   0.671  0.00  0.00    -0.046 A 
ATOM     32  C   UNL     1      -4.908  14.108   0.490  0.00  0.00    +0.004 A 
ATOM     33  C   UNL     1      -5.745  14.487   1.523  0.00  0.00    +0.000 A 
ATOM     34  C   UNL     1      -5.681  13.835   2.740  0.00  0.00    +0.000 A 
ATOM     35  C   UNL     1      -4.784  12.799   2.922  0.00  0.00    +0.000 A 
ATOM     36  C   UNL     1      -3.951  12.416   1.888  0.00  0.00    +0.004 A 
ENDBRANCH  30  31
ENDBRANCH  29  30
ENDBRANCH  28  29
ENDBRANCH  23  24
BRANCH  23  37
ATOM     37  C   UNL     1      -0.387   9.752  -0.514  0.00  0.00    -0.024 C 
ATOM     38  C   UNL     1      -0.353   9.260   0.934  0.00  0.00    +0.006 C 
ATOM     39  C   UNL     1       0.815   9.186  -1.273  0.00  0.00    +0.006 C 
ENDBRANCH  23  37
ENDBRANCH   1  23
TORSDOF 12
