REMARK  Name = ZINC01933842
REMARK  6 active torsions:
REMARK  status: ('A' for Active; 'I' for Inactive)
REMARK    1  A    between atoms: C_1  and  C_2
REMARK    2  A    between atoms: C_9  and  N_23
REMARK    3  A    between atoms: C_10  and  C_11
REMARK    4  A    between atoms: C_15  and  C_22
REMARK    5  A    between atoms: C_18  and  C_21
REMARK    6  A    between atoms: C_24  and  C_26
REMARK                            x       y       z     vdW  Elec       q    Type
REMARK                         _______ _______ _______ _____ _____    ______ ____
ROOT
ATOM      1  C   UNL     1      -0.019   1.526   0.010  0.00  0.00    +0.008 C 
ATOM      2  C   UNL     1       0.002  -0.004   0.002  0.00  0.00    -0.009 C 
ATOM      3  C   UNL     1      -1.434  -0.537   0.019  0.00  0.00    +0.008 C 
ATOM      4  C   UNL     1      -1.433  -2.045  -0.237  0.00  0.00    +0.037 C 
ATOM      5  C   UNL     1      -0.464  -2.704   0.734  0.00  0.00    -0.023 A 
ATOM      6  C   UNL     1       0.485  -1.986   1.374  0.00  0.00    -0.004 A 
ATOM      7  S   UNL     1       1.343  -3.167   2.373  0.00  0.00    -0.077 S 
ATOM      8  C   UNL     1       0.492  -4.557   1.968  0.00  0.00    +0.084 A 
ATOM      9  C   UNL     1      -0.459  -4.119   1.061  0.00  0.00    +0.069 A 
ATOM     10  C   UNL     1       0.739  -0.515   1.248  0.00  0.00    +0.046 C 
ENDROOT
BRANCH   9  11
ATOM     11  C   UNL     1      -1.421  -5.045   0.456  0.00  0.00    +0.249 C 
ATOM     12  O   UNL     1      -1.149  -5.611  -0.587  0.00  0.00    -0.270 OA
ATOM     13  N   UNL     1      -2.608  -5.271   1.055  0.00  0.00    -0.293 N 
ATOM     14  C   UNL     1      -2.962  -4.595   2.313  0.00  0.00    +0.139 C 
ATOM     15  C   UNL     1      -3.439  -5.654   3.313  0.00  0.00    +0.133 C 
ATOM     16  O   UNL     1      -4.464  -6.446   2.708  0.00  0.00    -0.371 OA
ATOM     17  C   UNL     1      -4.034  -7.182   1.560  0.00  0.00    +0.133 C 
ATOM     18  C   UNL     1      -3.589  -6.197   0.467  0.00  0.00    +0.139 C 
ATOM     19  C   UNL     1      -5.191  -8.036   1.037  0.00  0.00    +0.039 C 
ATOM     20  C   UNL     1      -3.995  -4.965   4.561  0.00  0.00    +0.039 C 
ENDBRANCH   9  11
BRANCH   8  21
ATOM     21  N   UNL     1       0.696  -5.847   2.434  0.00  0.00    -0.280 N 
ATOM     22  C   UNL     1       1.677  -6.096   3.324  0.00  0.00    +0.214 C 
ATOM     23  O   UNL     1       2.383  -5.191   3.716  0.00  0.00    -0.276 OA
ATOM     24  C   UNL     1       1.898  -7.498   3.830  0.00  0.00    +0.109 C 
ATOM     25  H   UNL     1       0.131  -6.571   2.120  0.00  0.00    +0.155 HD
ENDBRANCH   8  21
TORSDOF 2
