REMARK  Name = ZINC14480437
REMARK  9 active torsions:
REMARK  status: ('A' for Active; 'I' for Inactive)
REMARK    1  A    between atoms: C_1  and  C_2
REMARK    2  A    between atoms: C_2  and  O_3
REMARK    3  A    between atoms: O_3  and  C_4
REMARK    4  A    between atoms: C_7  and  C_10
REMARK    5  A    between atoms: C_21  and  S_26
REMARK    6  A    between atoms: S_26  and  N_29
REMARK    7  A    between atoms: N_29  and  C_30
REMARK    8  A    between atoms: C_33  and  C_37
REMARK    9  A    between atoms: C_34  and  C_36
REMARK                            x       y       z     vdW  Elec       q    Type
REMARK                         _______ _______ _______ _____ _____    ______ ____
ROOT
ATOM      1  C   UNL     1       0.686   2.888  -2.683  0.00  0.00    +0.105 C 
ATOM      2  C   UNL     1      -0.267   2.603  -1.550  0.00  0.00    +0.029 C 
ATOM      3  C   UNL     1      -0.668   3.915  -0.837  0.00  0.00    +0.033 C 
ATOM      4  C   UNL     1      -0.990   3.450   0.572  0.00  0.00    -0.030 C 
ATOM      5  C   UNL     1      -0.387   2.303   0.833  0.00  0.00    -0.023 C 
ATOM      6  C   UNL     1       0.400   1.845  -0.388  0.00  0.00    +0.049 C 
ATOM      7  C   UNL     1       1.832   2.259  -0.181  0.00  0.00    -0.018 A 
ATOM      8  C   UNL     1       2.501   1.763   0.930  0.00  0.00    +0.034 A 
ATOM      9  C   UNL     1       3.814   2.113   1.171  0.00  0.00    +0.109 A 
ATOM     10  C   UNL     1       4.479   2.962   0.305  0.00  0.00    +0.030 A 
ATOM     11  C   UNL     1       3.825   3.459  -0.804  0.00  0.00    +0.025 A 
ATOM     12  C   UNL     1       2.502   3.106  -1.046  0.00  0.00    +0.031 A 
ATOM     13  N   UNL     1       1.858   3.614  -2.180  0.00  0.00    -0.336 N 
ATOM     14  H   UNL     1       2.175   4.418  -2.619  0.00  0.00    +0.147 HD
ENDROOT
BRANCH   1  18
ATOM     15  C   UNL     1       1.938  -0.820  -4.401  0.00  0.00    +0.121 A 
ATOM     16  C   UNL     1       0.941  -0.073  -5.011  0.00  0.00    +0.046 A 
ATOM     17  C   UNL     1       0.537   1.125  -4.454  0.00  0.00    +0.009 A 
ATOM     18  C   UNL     1       1.127   1.580  -3.289  0.00  0.00    -0.027 A 
ATOM     19  C   UNL     1       2.125   0.840  -2.682  0.00  0.00    +0.009 A 
ATOM     20  C   UNL     1       2.528  -0.361  -3.232  0.00  0.00    +0.046 A 
BRANCH  15  21
ATOM     21  O   UNL     1       2.336  -1.998  -4.948  0.00  0.00    -0.492 OA
BRANCH  21  23
ATOM     22  C   UNL     1       3.680  -4.005  -5.024  0.00  0.00    +0.048 C 
ATOM     23  C   UNL     1       3.368  -2.714  -4.266  0.00  0.00    +0.225 C 
ENDBRANCH  21  23
ENDBRANCH  15  21
ENDBRANCH   1  18
BRANCH   9  24
ATOM     24  S   UNL     1       4.647   1.474   2.586  0.00  0.00    +0.072 S 
ATOM     25  O   UNL     1       5.772   2.313   2.808  0.00  0.00    -0.150 OA
ATOM     26  O   UNL     1       3.652   1.254   3.577  0.00  0.00    -0.150 OA
BRANCH  24  27
ATOM     27  N   UNL     1       5.241  -0.016   2.174  0.00  0.00    -0.216 N 
ATOM     28  H   UNL     1       4.920  -0.809   2.630  0.00  0.00    +0.174 HD
BRANCH  27  29
ATOM     29  C   UNL     1       6.205  -0.129   1.169  0.00  0.00    +0.048 A 
ATOM     30  C   UNL     1       5.855  -0.632  -0.078  0.00  0.00    +0.025 A 
ATOM     31  C   UNL     1       6.810  -0.739  -1.070  0.00  0.00    +0.005 A 
ATOM     32  C   UNL     1       8.115  -0.356  -0.820  0.00  0.00    -0.047 A 
ATOM     33  C   UNL     1       8.467   0.141   0.421  0.00  0.00    -0.046 A 
ATOM     34  C   UNL     1       7.517   0.255   1.417  0.00  0.00    +0.028 A 
ATOM     35  C   UNL     1       9.891   0.557   0.689  0.00  0.00    +0.044 C 
ATOM     36  C   UNL     1       9.155  -0.480  -1.903  0.00  0.00    +0.044 C 
ENDBRANCH  27  29
ENDBRANCH  24  27
ENDBRANCH   9  24
TORSDOF 6
