REMARK  Name = ZINC16732822
REMARK  4 active torsions:
REMARK  status: ('A' for Active; 'I' for Inactive)
REMARK    1  A    between atoms: C_3  and  C_8
REMARK    2  A    between atoms: C_9  and  C_10
REMARK    3  A    between atoms: C_9  and  C_12
REMARK    4  A    between atoms: N_14  and  C_15
REMARK                            x       y       z     vdW  Elec       q    Type
REMARK                         _______ _______ _______ _____ _____    ______ ____
ROOT
ATOM      1  C   UNL     1      -0.733   1.454  -3.604  0.00  0.00    +0.254 C 
ATOM      2  O   UNL     1      -1.147   2.595  -3.684  0.00  0.00    -0.269 OA
ATOM      3  N   UNL     1      -0.550   0.887  -2.395  0.00  0.00    -0.306 N 
ATOM      4  H   UNL     1      -0.219  -0.023  -2.332  0.00  0.00    +0.149 HD
ENDROOT
BRANCH   3   5
ATOM      5  C   UNL     1      -0.851   1.643  -1.178  0.00  0.00    +0.096 C 
ATOM      6  C   UNL     1      -2.340   1.490  -0.825  0.00  0.00    +0.046 C 
ATOM      7  C   UNL     1      -2.599   2.009   0.610  0.00  0.00    +0.168 C 
ATOM      8  S   UNL     1      -0.979   1.731   1.438  0.00  0.00    -0.029 S 
ATOM      9  O   UNL     1      -1.123   0.698   2.403  0.00  0.00    -0.174 OA
ATOM     10  O   UNL     1      -0.440   2.986   1.832  0.00  0.00    -0.174 OA
ATOM     11  C   UNL     1      -0.013   1.086   0.008  0.00  0.00    +0.188 C 
ENDBRANCH   3   5
BRANCH   1  13
ATOM     12  C   UNL     1      -0.612   1.258  -6.040  0.00  0.00    +0.001 C 
ATOM     13  C   UNL     1      -0.429   0.691  -4.832  0.00  0.00    +0.110 C 
BRANCH  12  16
ATOM     14  C   UNL     1       1.194   0.319  -9.271  0.00  0.00    +0.027 C 
ATOM     15  C   UNL     1       0.773   1.214  -8.104  0.00  0.00    +0.012 C 
ATOM     16  C   UNL     1      -0.302   0.480  -7.293  0.00  0.00    +0.017 C 
ATOM     17  C   UNL     1      -1.565   0.361  -8.149  0.00  0.00    +0.034 C 
ATOM     18  C   UNL     1      -1.216  -0.169  -9.510  0.00  0.00    -0.030 C 
ATOM     19  C   UNL     1      -0.018  -0.185  -9.999  0.00  0.00    -0.031 C 
ENDBRANCH  12  16
BRANCH  13  20
ATOM     20  C   UNL     1       0.059  -0.652  -4.738  0.00  0.00    +0.104 C 
ATOM     21  N   UNL     1       0.446  -1.717  -4.664  0.00  0.00    -0.191 NA
ENDBRANCH  13  20
ENDBRANCH   1  13
TORSDOF 4
