REMARK  Name = ZINC36497587
REMARK  10 active torsions:
REMARK  status: ('A' for Active; 'I' for Inactive)
REMARK    1  A    between atoms: C_4  and  O_39
REMARK    2  A    between atoms: C_5  and  C_7
REMARK    3  A    between atoms: C_7  and  C_9
REMARK    4  A    between atoms: C_7  and  N_18
REMARK    5  A    between atoms: N_11  and  C_12
REMARK    6  A    between atoms: N_18  and  C_19
REMARK    7  A    between atoms: C_19  and  C_20
REMARK    8  A    between atoms: C_25  and  C_27
REMARK    9  A    between atoms: C_29  and  N_36
REMARK   10  A    between atoms: C_31  and  N_33
REMARK                            x       y       z     vdW  Elec       q    Type
REMARK                         _______ _______ _______ _____ _____    ______ ____
ROOT
ATOM      1  N   UNL     1       2.136  -2.945   1.874  0.00  0.00    -0.274 N 
ATOM      2  C   UNL     1       1.358  -3.264   2.927  0.00  0.00    +0.248 C 
ATOM      3  O   UNL     1       0.201  -2.893   2.962  0.00  0.00    -0.270 OA
ENDROOT
BRANCH   2   4
ATOM      4  C   UNL     1       1.911  -4.066   4.039  0.00  0.00    +0.041 A 
ATOM      5  C   UNL     1       3.243  -3.904   4.425  0.00  0.00    +0.046 A 
ATOM      6  C   UNL     1       3.753  -4.655   5.464  0.00  0.00    +0.129 A 
ATOM      7  C   UNL     1       2.947  -5.567   6.123  0.00  0.00    +0.065 A 
ATOM      8  C   UNL     1       1.627  -5.732   5.745  0.00  0.00    +0.129 A 
ATOM      9  C   UNL     1       1.103  -4.983   4.712  0.00  0.00    +0.046 A 
BRANCH   8  10
ATOM     10  N   UNL     1       0.772  -6.710   6.456  0.00  0.00    +0.057 N 
ATOM     11  O   UNL     1       1.229  -7.364   7.365  0.00  0.00    -0.126 OA
ATOM     12  O   UNL     1      -0.382  -6.856   6.127  0.00  0.00    -0.126 OA
ENDBRANCH   8  10
BRANCH   6  13
ATOM     13  N   UNL     1       5.165  -4.485   5.875  0.00  0.00    +0.057 N 
ATOM     14  O   UNL     1       5.870  -3.688   5.300  0.00  0.00    -0.126 OA
ATOM     15  O   UNL     1       5.613  -5.142   6.785  0.00  0.00    -0.126 OA
ENDBRANCH   6  13
ENDBRANCH   2   4
BRANCH   1  16
ATOM     16  C   UNL     1       3.484  -3.509   1.762  0.00  0.00    +0.196 C 
BRANCH  16  21
ATOM     17  C   UNL     1       4.284  -4.097  -1.881  0.00  0.00    +0.001 A 
ATOM     18  C   UNL     1       3.914  -5.420  -2.038  0.00  0.00    +0.004 A 
ATOM     19  C   UNL     1       3.405  -6.128  -0.968  0.00  0.00    +0.046 A 
ATOM     20  C   UNL     1       3.264  -5.511   0.267  0.00  0.00    +0.122 A 
ATOM     21  C   UNL     1       3.636  -4.183   0.422  0.00  0.00    +0.023 A 
ATOM     22  C   UNL     1       4.144  -3.479  -0.652  0.00  0.00    +0.009 A 
BRANCH  20  23
ATOM     23  O   UNL     1       2.763  -6.205   1.322  0.00  0.00    -0.506 OA
ATOM     24  H   UNL     1       3.424  -6.722   1.803  0.00  0.00    +0.292 HD
ENDBRANCH  20  23
ENDBRANCH  16  21
BRANCH  16  25
ATOM     25  C   UNL     1       4.503  -2.406   1.887  0.00  0.00    +0.238 C 
ATOM     26  O   UNL     1       4.143  -1.274   2.131  0.00  0.00    -0.273 OA
ATOM     27  N   UNL     1       5.813  -2.677   1.728  0.00  0.00    -0.311 N 
ATOM     28  H   UNL     1       6.096  -3.570   1.474  0.00  0.00    +0.149 HD
BRANCH  27  29
ATOM     29  C   UNL     1       6.810  -1.625   1.940  0.00  0.00    +0.073 C 
ATOM     30  C   UNL     1       6.973  -0.811   0.654  0.00  0.00    +0.022 C 
ATOM     31  C   UNL     1       8.014   0.288   0.875  0.00  0.00    +0.002 C 
ATOM     32  C   UNL     1       9.355  -0.347   1.250  0.00  0.00    +0.000 C 
ATOM     33  C   UNL     1       9.192  -1.161   2.535  0.00  0.00    +0.002 C 
ATOM     34  C   UNL     1       8.150  -2.260   2.314  0.00  0.00    +0.022 C 
ENDBRANCH  27  29
ENDBRANCH  16  25
ENDBRANCH   1  16
BRANCH   1  35
ATOM     35  C   UNL     1       1.635  -2.034   0.842  0.00  0.00    +0.183 C 
BRANCH  35  36
ATOM     36  C   UNL     1       1.815  -0.609   1.300  0.00  0.00    +0.122 A 
ATOM     37  C   UNL     1       2.796   0.224   0.909  0.00  0.00    +0.046 A 
ATOM     38  C   UNL     1       2.583   1.451   1.580  0.00  0.00    +0.041 A 
ATOM     39  C   UNL     1       1.484   1.293   2.340  0.00  0.00    +0.195 A 
ATOM     40  O   UNL     1       1.020   0.045   2.161  0.00  0.00    -0.466 OA
ENDBRANCH  35  36
ENDBRANCH   1  35
TORSDOF 10
