REMARK  Name = ZINC35993385
REMARK  11 active torsions:
REMARK  status: ('A' for Active; 'I' for Inactive)
REMARK    1  A    between atoms: C_1  and  C_2
REMARK    2  A    between atoms: C_2  and  O_3
REMARK    3  A    between atoms: O_3  and  C_4
REMARK    4  A    between atoms: C_4  and  C_6
REMARK    5  A    between atoms: C_7  and  C_22
REMARK    6  A    between atoms: N_8  and  C_21
REMARK    7  A    between atoms: C_12  and  C_14
REMARK    8  A    between atoms: C_19  and  C_20
REMARK    9  A    between atoms: C_22  and  N_23
REMARK   10  A    between atoms: C_27  and  C_30
REMARK   11  A    between atoms: C_31  and  C_33
REMARK                            x       y       z     vdW  Elec       q    Type
REMARK                         _______ _______ _______ _____ _____    ______ ____
ROOT
ATOM      1  C   UNL     1      -0.211  -2.469  -1.680  0.00  0.00    +0.080 C 
ATOM      2  C   UNL     1      -0.931  -3.607  -1.592  0.00  0.00    +0.041 C 
ATOM      3  N   UNL     1      -2.295  -3.585  -1.652  0.00  0.00    -0.260 N 
ATOM      4  C   UNL     1      -3.014  -2.465  -1.800  0.00  0.00    +0.307 C 
ATOM      5  O   UNL     1      -4.226  -2.545  -1.843  0.00  0.00    -0.252 OA
ATOM      6  N   UNL     1      -2.437  -1.251  -1.902  0.00  0.00    -0.288 N 
ATOM      7  C   UNL     1      -0.968  -1.166  -1.843  0.00  0.00    +0.144 C 
ATOM      8  C   UNL     1      -3.013  -4.858  -1.549  0.00  0.00    +0.139 C 
ATOM      9  H   UNL     1      -2.977  -0.452  -2.010  0.00  0.00    +0.151 HD
ENDROOT
BRANCH   7  10
ATOM     10  C   UNL     1      -0.493  -0.508  -3.113  0.00  0.00    -0.020 A 
ATOM     11  C   UNL     1      -1.165  -0.733  -4.300  0.00  0.00    +0.006 A 
ATOM     12  C   UNL     1      -0.730  -0.129  -5.465  0.00  0.00    +0.000 A 
ATOM     13  C   UNL     1       0.377   0.699  -5.443  0.00  0.00    +0.000 A 
ATOM     14  C   UNL     1       1.048   0.924  -4.256  0.00  0.00    +0.004 A 
ATOM     15  C   UNL     1       0.610   0.324  -3.090  0.00  0.00    -0.045 A 
ATOM     16  C   UNL     1       1.339   0.573  -1.794  0.00  0.00    +0.044 C 
ENDBRANCH   7  10
BRANCH   1  17
ATOM     17  C   UNL     1       1.202  -2.490  -1.618  0.00  0.00    +0.339 C 
ATOM     18  O   UNL     1       1.768  -2.255  -0.567  0.00  0.00    -0.245 OA
BRANCH  17  19
ATOM     19  O   UNL     1       1.922  -2.773  -2.724  0.00  0.00    -0.462 OA
BRANCH  19  21
ATOM     20  C   UNL     1       3.971  -3.301  -3.891  0.00  0.00    +0.048 C 
ATOM     21  C   UNL     1       3.341  -2.854  -2.571  0.00  0.00    +0.229 C 
ENDBRANCH  19  21
ENDBRANCH  17  19
ENDBRANCH   1  17
BRANCH   2  22
ATOM     22  C   UNL     1      -0.218  -4.925  -1.424  0.00  0.00    +0.136 C 
BRANCH  22  23
ATOM     23  N   UNL     1      -0.557  -5.502  -0.117  0.00  0.00    -0.294 NA
ATOM     24  C   UNL     1      -0.035  -4.672   0.977  0.00  0.00    +0.104 C 
ATOM     25  C   UNL     1      -0.560  -5.205   2.314  0.00  0.00    +0.124 C 
ATOM     26  N   UNL     1      -0.232  -6.636   2.408  0.00  0.00    -0.292 N 
ATOM     27  C   UNL     1      -0.603  -7.510   1.285  0.00  0.00    +0.087 C 
ATOM     28  C   UNL     1      -0.076  -6.886  -0.012  0.00  0.00    +0.107 C 
ATOM     29  C   UNL     1       0.018  -8.894   1.484  0.00  0.00    +0.029 C 
ATOM     30  C   UNL     1       0.391  -7.133   3.495  0.00  0.00    +0.250 C 
ATOM     31  O   UNL     1       0.723  -8.302   3.524  0.00  0.00    -0.270 OA
BRANCH  30  32
ATOM     32  C   UNL     1       0.671  -6.257   4.651  0.00  0.00    +0.072 A 
ATOM     33  C   UNL     1      -0.171  -5.179   4.935  0.00  0.00    +0.016 A 
ATOM     34  C   UNL     1       0.096  -4.366   6.015  0.00  0.00    +0.001 A 
ATOM     35  C   UNL     1       1.195  -4.614   6.819  0.00  0.00    +0.003 A 
ATOM     36  C   UNL     1       2.035  -5.677   6.546  0.00  0.00    +0.039 A 
ATOM     37  C   UNL     1       1.777  -6.506   5.469  0.00  0.00    +0.135 A 
ATOM     38  F   UNL     1       2.594  -7.549   5.206  0.00  0.00    -0.205 F 
ENDBRANCH  30  32
ENDBRANCH  22  23
ENDBRANCH   2  22
TORSDOF 7
