REMARK  Name = ZINC59746928
REMARK  8 active torsions:
REMARK  status: ('A' for Active; 'I' for Inactive)
REMARK    1  A    between atoms: C_1  and  N_2
REMARK    2  A    between atoms: N_2  and  C_3
REMARK    3  A    between atoms: N_2  and  C_4
REMARK    4  A    between atoms: C_4  and  C_6
REMARK    5  A    between atoms: C_4  and  C_23
REMARK    6  A    between atoms: C_6  and  N_7
REMARK    7  A    between atoms: N_7  and  S_8
REMARK    8  A    between atoms: S_8  and  C_11
REMARK                            x       y       z     vdW  Elec       q    Type
REMARK                         _______ _______ _______ _____ _____    ______ ____
ROOT
ATOM      1  S   UNL     1       0.326  -3.412   1.797  0.00  0.00    +0.060 S 
ATOM      2  O   UNL     1       1.272  -3.292   2.850  0.00  0.00    -0.153 OA
ATOM      3  O   UNL     1      -0.976  -3.945   2.000  0.00  0.00    -0.153 OA
ENDROOT
BRANCH   1   4
ATOM      4  C   UNL     1       1.084  -4.397   0.549  0.00  0.00    +0.127 A 
ATOM      5  C   UNL     1       2.357  -4.901   0.747  0.00  0.00    +0.077 A 
ATOM      6  C   UNL     1       2.953  -5.674  -0.233  0.00  0.00    +0.144 A 
ATOM      7  C   UNL     1       2.269  -5.943  -1.418  0.00  0.00    +0.077 A 
ATOM      8  C   UNL     1       0.995  -5.437  -1.611  0.00  0.00    +0.049 A 
ATOM      9  C   UNL     1       0.402  -4.668  -0.624  0.00  0.00    +0.069 A 
ATOM     10 CL   UNL     1      -1.198  -4.039  -0.860  0.00  0.00    -0.081 Cl
ATOM     11  N   UNL     1       2.885  -6.727  -2.403  0.00  0.00    -0.280 N 
ATOM     12  C   UNL     1       3.972  -7.458  -2.072  0.00  0.00    +0.255 C 
ATOM     13  O   UNL     1       4.540  -8.120  -2.915  0.00  0.00    -0.272 OA
ATOM     14  C   UNL     1       4.476  -7.448  -0.651  0.00  0.00    +0.325 C 
ATOM     15  O   UNL     1       4.204  -6.178  -0.054  0.00  0.00    -0.481 OA
ATOM     16  H   UNL     1       2.537  -6.745  -3.308  0.00  0.00    +0.155 HD
ENDBRANCH   1   4
BRANCH   1  17
ATOM     17  N   UNL     1       0.123  -1.894   1.167  0.00  0.00    -0.191 NA
ATOM     18  H   UNL     1       0.604  -1.142   1.548  0.00  0.00    +0.148 HD
BRANCH  17  19
ATOM     19  C   UNL     1      -0.783  -1.685   0.035  0.00  0.00    +0.095 C 
BRANCH  19  20
ATOM     20  C   UNL     1      -1.086  -0.192  -0.108  0.00  0.00    -0.023 C 
BRANCH  20  21
ATOM     21  C   UNL     1      -1.827   0.289   1.112  0.00  0.00    -0.060 A 
ATOM     22  C   UNL     1      -3.185   0.056   1.232  0.00  0.00    +0.005 A 
ATOM     23  C   UNL     1      -3.866   0.496   2.351  0.00  0.00    +0.038 A 
ATOM     24  C   UNL     1      -3.189   1.172   3.352  0.00  0.00    +0.123 A 
ATOM     25  C   UNL     1      -1.829   1.406   3.230  0.00  0.00    +0.038 A 
ATOM     26  C   UNL     1      -1.149   0.960   2.113  0.00  0.00    +0.005 A 
ATOM     27  F   UNL     1      -3.854   1.604   4.445  0.00  0.00    -0.205 F 
ENDBRANCH  20  21
BRANCH  20  29
ATOM     28  C   UNL     1      -2.242   1.455  -1.413  0.00  0.00    -0.096 C 
ATOM     29  N   UNL     1      -1.912   0.027  -1.302  0.00  0.00    +0.381 N 
ATOM     30  C   UNL     1      -1.170  -0.398  -2.497  0.00  0.00    -0.096 C 
ATOM     31  H   UNL     1      -2.763  -0.510  -1.226  0.00  0.00    -0.082 HD
ENDBRANCH  20  29
ENDBRANCH  19  20
ENDBRANCH  17  19
ENDBRANCH   1  17
TORSDOF 6
