REMARK  Name = ZINC67208832
REMARK  6 active torsions:
REMARK  status: ('A' for Active; 'I' for Inactive)
REMARK    1  A    between atoms: C_1  and  C_2
REMARK    2  A    between atoms: C_2  and  C_3
REMARK    3  A    between atoms: C_6  and  C_9
REMARK    4  A    between atoms: N_14  and  C_19
REMARK    5  A    between atoms: C_19  and  C_20
REMARK    6  A    between atoms: N_22  and  C_23
REMARK                            x       y       z     vdW  Elec       q    Type
REMARK                         _______ _______ _______ _____ _____    ______ ____
ROOT
ATOM      1  C   UNL     1       2.667  -1.860  -4.769  0.00  0.00    +0.094 A 
ATOM      2  C   UNL     1       4.043  -2.120  -4.886  0.00  0.00    +0.063 A 
ATOM      3  C   UNL     1       4.220  -2.543  -6.185  0.00  0.00    +0.135 A 
ATOM      4  C   UNL     1       5.386  -2.970  -6.964  0.00  0.00    +0.293 A 
ATOM      5  O   UNL     1       6.497  -3.002  -6.465  0.00  0.00    -0.264 OA
ATOM      6  N   UNL     1       5.190  -3.330  -8.254  0.00  0.00    -0.217 N 
ATOM      7  N   UNL     1       3.901  -3.283  -8.796  0.00  0.00    -0.156 NA
ATOM      8  C   UNL     1       2.877  -2.907  -8.108  0.00  0.00    +0.245 A 
ATOM      9  N   UNL     1       2.985  -2.524  -6.787  0.00  0.00    -0.214 N 
ATOM     10  N   UNL     1       2.108  -2.127  -5.933  0.00  0.00    -0.165 NA
ENDROOT
BRANCH   1  14
ATOM     11  C   UNL     1       0.662  -0.478  -1.282  0.00  0.00    -0.048 A 
ATOM     12  C   UNL     1      -0.055  -0.717  -2.440  0.00  0.00    +0.004 A 
ATOM     13  C   UNL     1       0.590  -1.165  -3.575  0.00  0.00    +0.010 A 
ATOM     14  C   UNL     1       1.967  -1.377  -3.552  0.00  0.00    +0.002 A 
ATOM     15  C   UNL     1       2.685  -1.135  -2.383  0.00  0.00    +0.010 A 
ATOM     16  C   UNL     1       2.030  -0.682  -1.256  0.00  0.00    +0.004 A 
BRANCH  11  18
ATOM     17  C   UNL     1      -0.077   1.541  -0.047  0.00  0.00    +0.009 C 
ATOM     18  C   UNL     1      -0.048   0.011  -0.046  0.00  0.00    +0.032 C 
ENDBRANCH  11  18
ENDBRANCH   1  14
BRANCH   6  19
ATOM     19  C   UNL     1       6.320  -3.764  -9.078  0.00  0.00    +0.243 C 
BRANCH  19  20
ATOM     20  C   UNL     1       6.489  -5.257  -8.953  0.00  0.00    +0.239 C 
ATOM     21  O   UNL     1       5.738  -5.894  -8.245  0.00  0.00    -0.273 OA
ATOM     22  N   UNL     1       7.473  -5.883  -9.628  0.00  0.00    -0.282 N 
ATOM     23  H   UNL     1       8.032  -5.384 -10.243  0.00  0.00    +0.155 HD
BRANCH  22  24
ATOM     24  C   UNL     1       7.689  -7.254  -9.440  0.00  0.00    +0.069 A 
ATOM     25  C   UNL     1       6.614  -8.101  -9.206  0.00  0.00    +0.027 A 
ATOM     26  C   UNL     1       6.829  -9.454  -9.022  0.00  0.00    +0.022 A 
ATOM     27  C   UNL     1       8.114  -9.965  -9.069  0.00  0.00    +0.044 A 
ATOM     28  C   UNL     1       9.188  -9.124  -9.302  0.00  0.00    +0.060 A 
ATOM     29  C   UNL     1       8.979  -7.770  -9.493  0.00  0.00    +0.146 A 
ATOM     30  F   UNL     1      10.027  -6.950  -9.726  0.00  0.00    -0.203 F 
ATOM     31 CL   UNL     1       8.379 -11.664  -8.836  0.00  0.00    -0.083 Cl
ENDBRANCH  22  24
ENDBRANCH  19  20
ENDBRANCH   6  19
TORSDOF 5
