REMARK  Name = ZINC15080898
REMARK  2 active torsions:
REMARK  status: ('A' for Active; 'I' for Inactive)
REMARK    1  A    between atoms: C_4  and  N_7
REMARK    2  A    between atoms: N_17  and  C_22
REMARK                            x       y       z     vdW  Elec       q    Type
REMARK                         _______ _______ _______ _____ _____    ______ ____
ROOT
ATOM      1  N   UNL     1       3.283  -1.158   4.055  0.00  0.00    -0.268 NA
ATOM      2  C   UNL     1       2.219  -1.934   4.719  0.00  0.00    +0.200 C 
ATOM      3  N   UNL     1       0.919  -1.426   4.269  0.00  0.00    -0.250 N 
ATOM      4  C   UNL     1       0.578   0.013   4.471  0.00  0.00    +0.210 C 
ATOM      5  C   UNL     1      -0.599   0.239   3.494  0.00  0.00    +0.205 C 
ATOM      6  N   UNL     1      -0.894  -1.116   3.003  0.00  0.00    -0.277 N 
ATOM      7  C   UNL     1      -0.070  -1.999   3.598  0.00  0.00    +0.306 C 
ATOM      8  O   UNL     1      -0.218  -3.204   3.526  0.00  0.00    -0.253 OA
ATOM      9  N   UNL     1      -0.020   1.094   2.454  0.00  0.00    -0.260 N 
ATOM     10  C   UNL     1       1.261   1.369   2.760  0.00  0.00    +0.309 C 
ATOM     11  O   UNL     1       1.921   2.209   2.180  0.00  0.00    -0.252 OA
ATOM     12  N   UNL     1       1.733   0.634   3.757  0.00  0.00    -0.250 N 
ATOM     13  C   UNL     1       3.102   0.300   4.164  0.00  0.00    +0.200 C 
ATOM     14  H   UNL     1      -1.691  -1.270   2.261  0.00  0.00    +0.152 HD
ENDROOT
BRANCH   1  18
ATOM     15  C   UNL     1       7.221  -2.808   4.080  0.00  0.00    +0.000 C 
ATOM     16  C   UNL     1       6.141  -3.500   4.914  0.00  0.00    +0.002 C 
ATOM     17  C   UNL     1       4.759  -3.079   4.410  0.00  0.00    +0.019 C 
ATOM     18  C   UNL     1       4.609  -1.562   4.539  0.00  0.00    +0.060 C 
ATOM     19  C   UNL     1       5.689  -0.870   3.705  0.00  0.00    +0.019 C 
ATOM     20  C   UNL     1       7.071  -1.291   4.210  0.00  0.00    +0.002 C 
ENDBRANCH   1  18
BRANCH   9  21
ATOM     21  C   UNL     1      -0.729   1.579   1.267  0.00  0.00    +0.079 C 
ATOM     22  C   UNL     1      -0.013   1.086   0.008  0.00  0.00    +0.022 C 
ATOM     23  C   UNL     1      -0.753   1.593  -1.232  0.00  0.00    +0.002 C 
ATOM     24  C   UNL     1      -0.773   3.123  -1.223  0.00  0.00    +0.000 C 
ATOM     25  C   UNL     1      -1.490   3.616   0.036  0.00  0.00    +0.002 C 
ATOM     26  C   UNL     1      -0.750   3.109   1.275  0.00  0.00    +0.022 C 
ENDBRANCH   9  21
TORSDOF 2
