REMARK  Name = ZINC38577209
REMARK  2 active torsions:
REMARK  status: ('A' for Active; 'I' for Inactive)
REMARK    1  A    between atoms: C_1  and  C_2
REMARK    2  A    between atoms: C_4  and  C_25
REMARK                            x       y       z     vdW  Elec       q    Type
REMARK                         _______ _______ _______ _____ _____    ______ ____
ROOT
ATOM      1  C   UNL     1      -0.210   1.746   0.523  0.00  0.00    +0.062 C 
ATOM      2  C   UNL     1      -0.033   0.251   0.484  0.00  0.00    +0.023 C 
ATOM      3  C   UNL     1      -1.015  -0.605   0.360  0.00  0.00    +0.005 C 
ATOM      4  C   UNL     1      -2.506  -0.309   0.291  0.00  0.00    +0.109 C 
ATOM      5  S   UNL     1      -3.285  -1.668  -0.642  0.00  0.00    -0.139 S 
ATOM      6  C   UNL     1      -3.361  -3.046   0.521  0.00  0.00    +0.165 C 
ATOM      7  C   UNL     1      -2.269  -3.152   1.488  0.00  0.00    +0.225 C 
ATOM      8  O   UNL     1      -2.568  -3.710   2.522  0.00  0.00    -0.275 OA
ATOM      9  N   UNL     1      -1.019  -2.749   1.432  0.00  0.00    -0.291 N 
ATOM     10  C   UNL     1      -0.429  -1.995   0.334  0.00  0.00    +0.210 C 
ATOM     11  N   UNL     1       1.010  -1.785   0.554  0.00  0.00    -0.213 N 
ATOM     12  N   UNL     1       1.191  -0.392   0.568  0.00  0.00    -0.265 N 
ATOM     13  C   UNL     1       1.959  -2.732   0.705  0.00  0.00    +0.150 C 
ATOM     14  N   UNL     1       1.658  -4.017   0.661  0.00  0.00    -0.221 NA
ATOM     15  C   UNL     1       2.538  -4.991   0.868  0.00  0.00    +0.225 C 
ATOM     16  N   UNL     1       3.715  -4.776   1.445  0.00  0.00    -0.218 NA
ATOM     17  C   UNL     1       3.995  -3.512   1.745  0.00  0.00    +0.164 C 
ATOM     18  N   UNL     1       4.678  -2.931   2.686  0.00  0.00    -0.219 NA
ATOM     19  C   UNL     1       4.372  -1.630   2.777  0.00  0.00    +0.218 C 
ATOM     20  N   UNL     1       3.600  -1.216   1.811  0.00  0.00    -0.253 NA
ATOM     21  C   UNL     1       3.402  -2.364   0.925  0.00  0.00    +0.239 C 
ATOM     22  H   UNL     1      -0.445  -2.971   2.181  0.00  0.00    +0.151 HD
ATOM     23  H   UNL     1       2.049   0.055   0.630  0.00  0.00    +0.170 HD
ENDROOT
BRANCH   4  24
ATOM     24  C   UNL     1      -2.737   1.000  -0.418  0.00  0.00    -0.016 A 
ATOM     25  C   UNL     1      -2.648   1.065  -1.796  0.00  0.00    +0.006 A 
ATOM     26  C   UNL     1      -2.860   2.266  -2.446  0.00  0.00    +0.000 A 
ATOM     27  C   UNL     1      -3.161   3.403  -1.719  0.00  0.00    +0.001 A 
ATOM     28  C   UNL     1      -3.250   3.339  -0.341  0.00  0.00    +0.015 A 
ATOM     29  C   UNL     1      -3.043   2.136   0.310  0.00  0.00    +0.022 A 
ATOM     30 BR   UNL     1      -3.171   2.046   2.194  0.00  0.00    -0.050 Br
ENDBRANCH   4  24
TORSDOF 1
