REMARK  Name = ZINC09703445
REMARK  6 active torsions:
REMARK  status: ('A' for Active; 'I' for Inactive)
REMARK    1  A    between atoms: C_12  and  C_14
REMARK    2  A    between atoms: C_14  and  O_16
REMARK    3  A    between atoms: O_16  and  C_17
REMARK    4  A    between atoms: C_17  and  C_18
REMARK    5  A    between atoms: N_20  and  C_21
REMARK    6  A    between atoms: C_22  and  C_30
REMARK                            x       y       z     vdW  Elec       q    Type
REMARK                         _______ _______ _______ _____ _____    ______ ____
ROOT
ATOM      1  C   UNL     1      -4.268  -1.504  -3.588  0.00  0.00    +0.255 C 
ATOM      2  O   UNL     1      -3.721  -0.839  -4.443  0.00  0.00    -0.272 OA
ATOM      3  N   UNL     1      -5.002  -2.579  -3.937  0.00  0.00    -0.277 N 
ATOM      4  H   UNL     1      -5.439  -3.110  -3.253  0.00  0.00    +0.155 HD
ENDROOT
BRANCH   3   5
ATOM      5  C   UNL     1      -5.132  -2.925  -5.273  0.00  0.00    +0.084 A 
ATOM      6  C   UNL     1      -5.834  -3.988  -5.824  0.00  0.00    +0.068 A 
ATOM      7  C   UNL     1      -5.814  -4.129  -7.270  0.00  0.00    -0.023 A 
ATOM      8  C   UNL     1      -5.093  -3.196  -7.929  0.00  0.00    -0.004 A 
ATOM      9  S   UNL     1      -4.453  -2.140  -6.660  0.00  0.00    -0.077 S 
ATOM     10  C   UNL     1      -4.887  -3.092  -9.409  0.00  0.00    +0.043 C 
ATOM     11  C   UNL     1      -5.310  -4.422 -10.050  0.00  0.00    +0.005 C 
ATOM     12  C   UNL     1      -6.677  -4.827  -9.491  0.00  0.00    +0.005 C 
ATOM     13  C   UNL     1      -6.538  -5.238  -8.024  0.00  0.00    +0.037 C 
BRANCH   6  14
ATOM     14  C   UNL     1      -6.570  -4.933  -4.978  0.00  0.00    +0.244 C 
ATOM     15  O   UNL     1      -7.736  -4.720  -4.701  0.00  0.00    -0.270 OA
ATOM     16  N   UNL     1      -5.956  -6.037  -4.508  0.00  0.00    -0.325 N 
ATOM     17  H   UNL     1      -5.027  -6.206  -4.729  0.00  0.00    +0.145 HD
ATOM     18  H   UNL     1      -6.444  -6.662  -3.949  0.00  0.00    +0.145 HD
ENDBRANCH   6  14
ENDBRANCH   3   5
BRANCH   1  19
ATOM     19  C   UNL     1      -4.126  -1.127  -2.136  0.00  0.00    +0.328 C 
BRANCH  19  20
ATOM     20  O   UNL     1      -3.294   0.057  -2.022  0.00  0.00    -0.453 OA
BRANCH  20  21
ATOM     21  C   UNL     1      -3.068   0.526  -0.784  0.00  0.00    +0.343 C 
ATOM     22  O   UNL     1      -3.549  -0.034   0.171  0.00  0.00    -0.247 OA
BRANCH  21  34
ATOM     23  C   UNL     1      -4.199   4.059   3.122  0.00  0.00    +0.002 A 
ATOM     24  C   UNL     1      -4.763   4.941   2.216  0.00  0.00    +0.001 A 
ATOM     25  C   UNL     1      -4.457   4.815   0.871  0.00  0.00    +0.016 A 
ATOM     26  C   UNL     1      -3.600   3.824   0.457  0.00  0.00    +0.032 A 
ATOM     27  C   UNL     1      -2.972   2.954   1.360  0.00  0.00    +0.052 A 
ATOM     28  C   UNL     1      -3.321   3.082   2.709  0.00  0.00    +0.025 A 
ATOM     29  N   UNL     1      -1.967   2.115   0.831  0.00  0.00    -0.245 N 
ATOM     30  C   UNL     1      -0.770   1.598   1.212  0.00  0.00    +0.221 C 
ATOM     31  O   UNL     1      -0.365   1.552   2.355  0.00  0.00    -0.275 OA
ATOM     32  C   UNL     1      -0.013   1.086   0.008  0.00  0.00    +0.100 C 
ATOM     33  C   UNL     1      -0.812   1.624  -1.206  0.00  0.00    +0.059 C 
ATOM     34  C   UNL     1      -2.213   1.752  -0.588  0.00  0.00    +0.190 C 
ATOM     35  S   UNL     1      -3.019   3.307  -1.146  0.00  0.00    -0.086 S 
ENDBRANCH  21  34
ENDBRANCH  20  21
ENDBRANCH  19  20
ENDBRANCH   1  19
TORSDOF 6
