REMARK  Name = ZINC67409079
REMARK  6 active torsions:
REMARK  status: ('A' for Active; 'I' for Inactive)
REMARK    1  A    between atoms: C_1  and  C_2
REMARK    2  A    between atoms: C_2  and  C_4
REMARK    3  A    between atoms: C_2  and  N_12
REMARK    4  A    between atoms: C_4  and  C_5
REMARK    5  A    between atoms: C_8  and  O_11
REMARK    6  A    between atoms: C_19  and  C_22
REMARK                            x       y       z     vdW  Elec       q    Type
REMARK                         _______ _______ _______ _____ _____    ______ ____
ROOT
ATOM      1  N   UNL     1       0.709  -0.494   1.188  0.00  0.00    -0.296 N 
ATOM      2  C   UNL     1       0.051  -0.633   2.355  0.00  0.00    +0.303 C 
ATOM      3  O   UNL     1      -1.106  -0.272   2.449  0.00  0.00    -0.253 OA
ATOM      4  N   UNL     1       0.676  -1.174   3.420  0.00  0.00    -0.281 N 
ATOM      5  C   UNL     1      -0.054  -1.448   4.668  0.00  0.00    +0.137 C 
ATOM      6  C   UNL     1       0.735  -0.839   5.833  0.00  0.00    +0.179 C 
ATOM      7  O   UNL     1       2.088  -1.298   5.776  0.00  0.00    -0.369 OA
ATOM      8  C   UNL     1       2.792  -0.897   4.597  0.00  0.00    +0.168 C 
ATOM      9  C   UNL     1       2.107  -1.514   3.367  0.00  0.00    +0.145 C 
ATOM     10  H   UNL     1       1.652  -0.715   1.132  0.00  0.00    +0.151 HD
ENDROOT
BRANCH   8  11
ATOM     11  C   UNL     1       4.217  -1.381   4.674  0.00  0.00    +0.018 A 
ATOM     12  C   UNL     1       4.533  -2.483   5.446  0.00  0.00    +0.009 A 
ATOM     13  C   UNL     1       5.840  -2.926   5.516  0.00  0.00    +0.001 A 
ATOM     14  C   UNL     1       6.833  -2.268   4.815  0.00  0.00    +0.003 A 
ATOM     15  C   UNL     1       6.520  -1.166   4.042  0.00  0.00    +0.039 A 
ATOM     16  C   UNL     1       5.210  -0.724   3.967  0.00  0.00    +0.129 A 
ATOM     17  F   UNL     1       4.901   0.350   3.208  0.00  0.00    -0.205 F 
ENDBRANCH   8  11
BRANCH   1  19
ATOM     18  C   UNL     1      -0.014   1.522   0.007  0.00  0.00    +0.028 C 
ATOM     19  C   UNL     1       0.000  -0.008   0.001  0.00  0.00    +0.076 C 
BRANCH  19  20
ATOM     20  C   UNL     1       0.712  -0.506  -1.258  0.00  0.00    +0.057 C 
BRANCH  20  21
ATOM     21  C   UNL     1       0.620  -2.009  -1.326  0.00  0.00    -0.045 A 
ATOM     22  C   UNL     1       1.598  -2.788  -0.738  0.00  0.00    +0.007 A 
ATOM     23  C   UNL     1       1.516  -4.166  -0.799  0.00  0.00    +0.045 A 
ATOM     24  C   UNL     1       0.450  -4.767  -1.451  0.00  0.00    +0.117 A 
ATOM     25  C   UNL     1      -0.531  -3.983  -2.041  0.00  0.00    +0.045 A 
ATOM     26  C   UNL     1      -0.447  -2.606  -1.972  0.00  0.00    +0.007 A 
BRANCH  24  27
ATOM     27  O   UNL     1       0.367  -6.122  -1.514  0.00  0.00    -0.507 OA
ATOM     28  H   UNL     1      -0.116  -6.521  -0.776  0.00  0.00    +0.292 HD
ENDBRANCH  24  27
ENDBRANCH  20  21
ENDBRANCH  19  20
ENDBRANCH   1  19
TORSDOF 5
