REMARK  Name = ZINC04356472
REMARK  6 active torsions:
REMARK  status: ('A' for Active; 'I' for Inactive)
REMARK    1  A    between atoms: C_1  and  C_2
REMARK    2  A    between atoms: C_2  and  C_3
REMARK    3  A    between atoms: C_2  and  S_4
REMARK    4  A    between atoms: S_4  and  C_5
REMARK    5  A    between atoms: C_12  and  O_18
REMARK    6  A    between atoms: O_18  and  C_19
REMARK                            x       y       z     vdW  Elec       q    Type
REMARK                         _______ _______ _______ _____ _____    ______ ____
ROOT
ATOM      1  C   UNL     1      -2.365  -0.093  -1.525  0.00  0.00    +0.211 A 
ATOM      2  N   UNL     1      -3.621  -0.390  -1.831  0.00  0.00    -0.201 NA
ATOM      3  C   UNL     1      -4.121   0.017  -2.994  0.00  0.00    +0.162 A 
ATOM      4  N   UNL     1      -5.350  -0.124  -3.589  0.00  0.00    -0.338 N 
ATOM      5  C   UNL     1      -5.360   0.499  -4.829  0.00  0.00    +0.050 A 
ATOM      6  C   UNL     1      -6.349   0.634  -5.798  0.00  0.00    +0.030 A 
ATOM      7  C   UNL     1      -6.085   1.319  -6.964  0.00  0.00    +0.047 A 
ATOM      8  C   UNL     1      -4.832   1.881  -7.185  0.00  0.00    +0.121 A 
ATOM      9  C   UNL     1      -3.838   1.756  -6.233  0.00  0.00    +0.057 A 
ATOM     10  C   UNL     1      -4.096   1.065  -5.051  0.00  0.00    +0.032 A 
ATOM     11  C   UNL     1      -3.287   0.755  -3.860  0.00  0.00    +0.138 A 
ATOM     12  N   UNL     1      -2.041   1.019  -3.495  0.00  0.00    -0.143 NA
ATOM     13  N   UNL     1      -1.599   0.607  -2.356  0.00  0.00    -0.122 NA
ATOM     14  H   UNL     1      -6.104  -0.592  -3.198  0.00  0.00    +0.167 HD
ENDROOT
BRANCH   8  15
ATOM     15  O   UNL     1      -4.584   2.555  -8.341  0.00  0.00    -0.495 OA
ATOM     16  C   UNL     1      -5.656   2.646  -9.281  0.00  0.00    +0.277 C 
ENDBRANCH   8  15
BRANCH   1  17
ATOM     17  S   UNL     1      -1.700  -0.632   0.015  0.00  0.00    -0.081 S 
BRANCH  17  19
ATOM     18  C   UNL     1      -0.019   1.526   0.010  0.00  0.00    +0.019 C 
ATOM     19  C   UNL     1       0.002  -0.004   0.002  0.00  0.00    +0.048 C 
ATOM     20  C   UNL     1       0.742  -0.511   1.242  0.00  0.00    +0.019 C 
ENDBRANCH  17  19
ENDBRANCH   1  17
TORSDOF 3
