REMARK  Name = ZINC36601084
REMARK  11 active torsions:
REMARK  status: ('A' for Active; 'I' for Inactive)
REMARK    1  A    between atoms: C_1  and  C_2
REMARK    2  A    between atoms: C_2  and  C_3
REMARK    3  A    between atoms: C_3  and  C_4
REMARK    4  A    between atoms: C_4  and  N_5
REMARK    5  A    between atoms: C_6  and  C_8
REMARK    6  A    between atoms: C_8  and  C_10
REMARK    7  A    between atoms: C_8  and  N_24
REMARK    8  A    between atoms: N_24  and  C_25
REMARK    9  A    between atoms: C_25  and  C_26
REMARK   10  A    between atoms: C_29  and  C_31
REMARK   11  A    between atoms: C_32  and  C_34
REMARK                            x       y       z     vdW  Elec       q    Type
REMARK                         _______ _______ _______ _____ _____    ______ ____
ROOT
ATOM      1  C   UNL     1       2.579  -4.954   4.032  0.00  0.00    +0.193 C 
ENDROOT
BRANCH   1   2
ATOM      2  C   UNL     1       1.749  -4.617   5.244  0.00  0.00    -0.010 A 
ATOM      3  C   UNL     1       0.919  -3.555   5.201  0.00  0.00    +0.015 A 
ATOM      4  C   UNL     1       0.120  -3.199   6.311  0.00  0.00    -0.017 A 
ATOM      5  C   UNL     1      -0.740  -2.092   6.257  0.00  0.00    +0.008 A 
ATOM      6  C   UNL     1      -1.500  -1.772   7.343  0.00  0.00    +0.001 A 
ATOM      7  C   UNL     1      -1.436  -2.527   8.508  0.00  0.00    +0.001 A 
ATOM      8  C   UNL     1      -0.609  -3.611   8.593  0.00  0.00    +0.009 A 
ATOM      9  C   UNL     1       0.182  -3.964   7.498  0.00  0.00    -0.010 A 
ATOM     10  C   UNL     1       1.083  -5.119   7.544  0.00  0.00    -0.010 A 
ATOM     11  C   UNL     1       1.852  -5.427   6.399  0.00  0.00    -0.012 A 
ATOM     12  C   UNL     1       2.713  -6.533   6.431  0.00  0.00    +0.009 A 
ATOM     13  C   UNL     1       2.793  -7.296   7.559  0.00  0.00    +0.001 A 
ATOM     14  C   UNL     1       2.031  -6.993   8.681  0.00  0.00    +0.001 A 
ATOM     15  C   UNL     1       1.192  -5.916   8.685  0.00  0.00    +0.009 A 
ENDBRANCH   1   2
BRANCH   1  17
ATOM     16  N   UNL     1       3.202  -2.625   3.475  0.00  0.00    -0.313 N 
ATOM     17  C   UNL     1       2.604  -3.772   3.096  0.00  0.00    +0.238 C 
ATOM     18  O   UNL     1       2.085  -3.854   2.003  0.00  0.00    -0.273 OA
ATOM     19  H   UNL     1       3.550  -2.534   4.375  0.00  0.00    +0.149 HD
BRANCH  16  20
ATOM     20  C   UNL     1       3.326  -1.516   2.526  0.00  0.00    +0.104 C 
BRANCH  20  21
ATOM     21  C   UNL     1       4.038  -0.343   3.203  0.00  0.00    +0.018 C 
BRANCH  21  23
ATOM     22  C   UNL     1       4.879   1.988   2.889  0.00  0.00    +0.004 C 
ATOM     23  C   UNL     1       4.167   0.815   2.212  0.00  0.00    -0.002 C 
ENDBRANCH  21  23
ENDBRANCH  20  21
ENDBRANCH  16  20
ENDBRANCH   1  17
BRANCH   1  24
ATOM     24  N   UNL     1       1.995  -6.108   3.345  0.00  0.00    -0.277 N 
ATOM     25  C   UNL     1       2.766  -7.172   3.041  0.00  0.00    +0.237 C 
ATOM     26  O   UNL     1       2.293  -8.109   2.433  0.00  0.00    -0.274 OA
BRANCH  25  27
ATOM     27  C   UNL     1       4.214  -7.196   3.456  0.00  0.00    +0.159 C 
ATOM     28  C   UNL     1       5.082  -6.456   2.414  0.00  0.00    +0.041 C 
ATOM     29  C   UNL     1       5.531  -7.616   1.496  0.00  0.00    +0.098 C 
ATOM     30  C   UNL     1       5.452  -8.841   2.381  0.00  0.00    +0.214 C 
ATOM     31  O   UNL     1       5.979  -9.906   2.141  0.00  0.00    -0.276 OA
ATOM     32  N   UNL     1       4.714  -8.576   3.475  0.00  0.00    -0.304 N 
ATOM     33  H   UNL     1       4.535  -9.213   4.184  0.00  0.00    +0.149 HD
ENDBRANCH  25  27
BRANCH  24  34
ATOM     34  C   UNL     1       0.575  -6.107   2.988  0.00  0.00    +0.183 C 
BRANCH  34  35
ATOM     35  C   UNL     1       0.417  -5.667   1.555  0.00  0.00    +0.122 A 
ATOM     36  C   UNL     1       0.571  -6.448   0.471  0.00  0.00    +0.046 A 
ATOM     37  C   UNL     1       0.331  -5.632  -0.659  0.00  0.00    +0.045 A 
ATOM     38  C   UNL     1       0.045  -4.401  -0.197  0.00  0.00    +0.102 A 
ATOM     39  O   UNL     1       0.093  -4.430   1.145  0.00  0.00    -0.463 OA
ATOM     40  C   UNL     1      -0.279  -3.196  -1.042  0.00  0.00    +0.086 C 
ENDBRANCH  34  35
ENDBRANCH  24  34
ENDBRANCH   1  24
TORSDOF 9
