REMARK  Name = ZINC12504434
REMARK  7 active torsions:
REMARK  status: ('A' for Active; 'I' for Inactive)
REMARK    1  A    between atoms: C_4  and  N_29
REMARK    2  A    between atoms: C_5  and  C_7
REMARK    3  A    between atoms: C_7  and  C_8
REMARK    4  A    between atoms: C_16  and  N_17
REMARK    5  A    between atoms: N_17  and  C_18
REMARK    6  A    between atoms: C_18  and  C_19
REMARK    7  A    between atoms: C_19  and  C_20
REMARK                            x       y       z     vdW  Elec       q    Type
REMARK                         _______ _______ _______ _____ _____    ______ ____
ROOT
ATOM      1  C   UNL     1      -2.839  11.157   2.392  0.00  0.00    +0.201 A 
ATOM      2  N   UNL     1      -2.533  10.018   1.846  0.00  0.00    -0.210 NA
ATOM      3  C   UNL     1      -2.954   9.016   2.660  0.00  0.00    +0.149 A 
ATOM      4  C   UNL     1      -3.555   9.629   3.771  0.00  0.00    +0.160 A 
ATOM      5  O   UNL     1      -3.463  10.957   3.566  0.00  0.00    -0.439 OA
ATOM      6  C   UNL     1      -4.080   8.821   4.774  0.00  0.00    +0.068 A 
ATOM      7  C   UNL     1      -3.992   7.452   4.644  0.00  0.00    +0.116 A 
ATOM      8  N   UNL     1      -3.426   6.896   3.586  0.00  0.00    -0.238 NA
ATOM      9  C   UNL     1      -2.906   7.616   2.605  0.00  0.00    +0.148 A 
ENDROOT
BRANCH   9  10
ATOM     10  N   UNL     1      -2.317   6.984   1.518  0.00  0.00    -0.322 N 
ATOM     11  H   UNL     1      -1.889   7.582   0.700  0.00  0.00    +0.148 HD
BRANCH  10  12
ATOM     12  C   UNL     1      -2.267   5.521   1.460  0.00  0.00    +0.176 C 
BRANCH  12  13
ATOM     13  C   UNL     1      -1.571   5.086   0.168  0.00  0.00    +0.252 C 
ATOM     14  F   UNL     1      -0.270   5.599   0.143  0.00  0.00    -0.206 F 
ATOM     15  F   UNL     1      -2.286   5.572  -0.932  0.00  0.00    -0.206 F 
BRANCH  13  16
ATOM     16  C   UNL     1      -1.519   3.558   0.108  0.00  0.00    +0.000 C 
ATOM     17  C   UNL     1      -0.823   3.123  -1.184  0.00  0.00    -0.010 C 
ATOM     18  C   UNL     1      -0.755   1.594  -1.231  0.00  0.00    -0.003 C 
ATOM     19  C   UNL     1      -0.013   1.086   0.008  0.00  0.00    -0.019 C 
ATOM     20  C   UNL     1      -0.731   1.580   1.266  0.00  0.00    -0.082 C 
ATOM     21  N   UNL     1      -0.770   3.048   1.264  0.00  0.00    +0.385 N 
ATOM     22  H   UNL     1       0.262   3.427   1.228  0.00  0.00    -0.085 HD
ATOM     23  H   UNL     1      -1.253   3.387   2.192  0.00  0.00    -0.085 HD
ENDBRANCH  13  16
ENDBRANCH  12  13
ENDBRANCH  10  12
ENDBRANCH   9  10
BRANCH   1  24
ATOM     24  C   UNL     1      -2.539  12.508   1.795  0.00  0.00    +0.133 C 
BRANCH  24  29
ATOM     25  C   UNL     1      -4.722  13.098  -1.228  0.00  0.00    +0.000 A 
ATOM     26  C   UNL     1      -5.812  13.737  -0.666  0.00  0.00    +0.002 A 
ATOM     27  C   UNL     1      -5.846  13.981   0.693  0.00  0.00    +0.028 A 
ATOM     28  C   UNL     1      -4.785  13.583   1.495  0.00  0.00    +0.071 A 
ATOM     29  C   UNL     1      -3.692  12.941   0.928  0.00  0.00    -0.013 A 
ATOM     30  C   UNL     1      -3.661  12.706  -0.433  0.00  0.00    +0.006 A 
BRANCH  28  31
ATOM     31  N   UNL     1      -4.818  13.828   2.875  0.00  0.00    -0.220 N 
ATOM     32  C   UNL     1      -5.800  14.441   3.564  0.00  0.00    +0.225 A 
ATOM     33  N   UNL     1      -5.453  14.470   4.825  0.00  0.00    -0.222 NA
ATOM     34  C   UNL     1      -4.259  13.898   4.979  0.00  0.00    +0.245 A 
ATOM     35  N   UNL     1      -3.829  13.490   3.814  0.00  0.00    -0.154 NA
ENDBRANCH  28  31
ENDBRANCH  24  29
ENDBRANCH   1  24
TORSDOF 7
