REMARK  Name = ZINC39280120
REMARK  9 active torsions:
REMARK  status: ('A' for Active; 'I' for Inactive)
REMARK    1  A    between atoms: C_1  and  C_2
REMARK    2  A    between atoms: C_4  and  C_16
REMARK    3  A    between atoms: C_6  and  C_14
REMARK    4  A    between atoms: C_7  and  N_13
REMARK    5  A    between atoms: C_19  and  O_32
REMARK    6  A    between atoms: C_20  and  C_22
REMARK    7  A    between atoms: C_22  and  O_23
REMARK    8  A    between atoms: O_23  and  C_24
REMARK    9  A    between atoms: O_32  and  C_33
REMARK                            x       y       z     vdW  Elec       q    Type
REMARK                         _______ _______ _______ _____ _____    ______ ____
ROOT
ATOM      1  C   UNL     1      -2.755   0.867   0.756  0.00  0.00    -0.034 A 
ATOM      2  C   UNL     1      -2.246   1.150   2.010  0.00  0.00    +0.008 A 
ATOM      3  C   UNL     1      -2.446   2.396   2.573  0.00  0.00    +0.046 A 
ATOM      4  C   UNL     1      -3.159   3.363   1.879  0.00  0.00    +0.126 A 
ATOM      5  C   UNL     1      -3.668   3.076   0.621  0.00  0.00    +0.032 A 
ATOM      6  C   UNL     1      -3.461   1.831   0.060  0.00  0.00    +0.015 A 
ENDROOT
BRANCH   1  10
ATOM      7  C   UNL     1      -0.018   1.503   0.010  0.00  0.00    +0.067 C 
ATOM      8  C   UNL     1       0.002  -0.004   0.002  0.00  0.00    +0.066 C 
ATOM      9  C   UNL     1      -1.064  -0.768   0.003  0.00  0.00    +0.030 C 
ATOM     10  C   UNL     1      -2.536  -0.493   0.145  0.00  0.00    +0.098 C 
ATOM     11  C   UNL     1      -3.065  -1.577   1.066  0.00  0.00    +0.097 C 
ATOM     12  C   UNL     1      -2.303  -2.628   1.436  0.00  0.00    +0.195 C 
ATOM     13  O   UNL     1      -1.023  -2.853   1.091  0.00  0.00    -0.448 OA
ATOM     14  C   UNL     1      -0.529  -2.198  -0.081  0.00  0.00    +0.343 C 
ATOM     15  N   UNL     1       0.921  -1.985  -0.028  0.00  0.00    -0.138 NA
ATOM     16  N   UNL     1       1.127  -0.765  -0.013  0.00  0.00    -0.155 NA
BRANCH  12  17
ATOM     17  N   UNL     1      -2.896  -3.562   2.247  0.00  0.00    -0.329 N 
ATOM     18  H   UNL     1      -3.818  -3.448   2.526  0.00  0.00    +0.145 HD
ATOM     19  H   UNL     1      -2.393  -4.337   2.542  0.00  0.00    +0.145 HD
ENDBRANCH  12  17
BRANCH  11  20
ATOM     20  C   UNL     1      -4.407  -1.482   1.556  0.00  0.00    +0.101 C 
ATOM     21  N   UNL     1      -5.472  -1.407   1.944  0.00  0.00    -0.191 NA
ENDBRANCH  11  20
ENDBRANCH   1  10
BRANCH   4  22
ATOM     22  O   UNL     1      -3.357   4.589   2.430  0.00  0.00    -0.495 OA
ATOM     23  C   UNL     1      -2.805   4.814   3.729  0.00  0.00    +0.277 C 
ENDBRANCH   4  22
BRANCH   5  24
ATOM     24  C   UNL     1      -4.443   4.124  -0.136  0.00  0.00    +0.268 C 
BRANCH  24  25
ATOM     25  O   UNL     1      -4.859   3.592  -1.395  0.00  0.00    -0.486 OA
BRANCH  25  26
ATOM     26  C   UNL     1      -5.574   4.415  -2.207  0.00  0.00    +0.139 A 
ATOM     27  C   UNL     1      -5.864   5.710  -1.802  0.00  0.00    +0.048 A 
ATOM     28  C   UNL     1      -6.591   6.545  -2.628  0.00  0.00    +0.019 A 
ATOM     29  C   UNL     1      -7.029   6.092  -3.860  0.00  0.00    +0.019 A 
ATOM     30  C   UNL     1      -6.742   4.801  -4.266  0.00  0.00    +0.039 A 
ATOM     31  C   UNL     1      -6.011   3.963  -3.445  0.00  0.00    +0.084 A 
ATOM     32 CL   UNL     1      -5.644   2.346  -3.958  0.00  0.00    -0.080 Cl
ATOM     33 BR   UNL     1      -8.024   7.238  -4.988  0.00  0.00    -0.050 Br
ENDBRANCH  25  26
ENDBRANCH  24  25
ENDBRANCH   5  24
TORSDOF 7
