REMARK  Name = ZINC57207939
REMARK  6 active torsions:
REMARK  status: ('A' for Active; 'I' for Inactive)
REMARK    1  A    between atoms: C_1  and  C_2
REMARK    2  A    between atoms: C_2  and  C_3
REMARK    3  A    between atoms: C_2  and  O_4
REMARK    4  A    between atoms: O_4  and  C_5
REMARK    5  A    between atoms: C_10  and  C_11
REMARK    6  A    between atoms: N_13  and  C_14
REMARK                            x       y       z     vdW  Elec       q    Type
REMARK                         _______ _______ _______ _____ _____    ______ ____
ROOT
ATOM      1  C   UNL     1      -4.010  -1.401  -0.179  0.00  0.00    +0.248 C 
ATOM      2  O   UNL     1      -3.801  -0.379   0.447  0.00  0.00    -0.270 OA
ATOM      3  N   UNL     1      -5.267  -1.872  -0.299  0.00  0.00    -0.300 N 
ATOM      4  H   UNL     1      -5.434  -2.686  -0.798  0.00  0.00    +0.150 HD
ENDROOT
BRANCH   3   5
ATOM      5  C   UNL     1      -6.381  -1.153   0.325  0.00  0.00    +0.159 C 
ATOM      6  C   UNL     1      -7.681  -1.479  -0.414  0.00  0.00    +0.032 C 
ATOM      7  C   UNL     1      -8.697  -0.366  -0.231  0.00  0.00    +0.004 C 
ATOM      8  C   UNL     1      -9.197  -0.222   1.195  0.00  0.00    +0.019 C 
ATOM      9  C   UNL     1      -8.076   0.253   2.120  0.00  0.00    +0.104 C 
ATOM     10  N   UNL     1      -7.328  -0.922   2.595  0.00  0.00    -0.314 N 
ATOM     11  C   UNL     1      -6.522  -1.588   1.768  0.00  0.00    +0.233 C 
ATOM     12  O   UNL     1      -5.904  -2.550   2.173  0.00  0.00    -0.274 OA
ATOM     13  H   UNL     1      -7.418  -1.211   3.517  0.00  0.00    +0.149 HD
ENDBRANCH   3   5
BRANCH   1  19
ATOM     14  C   UNL     1      -1.580  -1.637  -0.685  0.00  0.00    +0.134 A 
ATOM     15  C   UNL     1      -0.532  -2.328  -1.275  0.00  0.00    +0.061 A 
ATOM     16  C   UNL     1      -0.779  -3.487  -1.985  0.00  0.00    +0.021 A 
ATOM     17  C   UNL     1      -2.074  -3.968  -2.112  0.00  0.00    +0.016 A 
ATOM     18  C   UNL     1      -3.126  -3.294  -1.533  0.00  0.00    +0.018 A 
ATOM     19  C   UNL     1      -2.889  -2.124  -0.807  0.00  0.00    +0.078 A 
ATOM     20 BR   UNL     1       0.655  -4.423  -2.786  0.00  0.00    -0.050 Br
BRANCH  14  21
ATOM     21  O   UNL     1      -1.339  -0.499   0.012  0.00  0.00    -0.489 OA
BRANCH  21  23
ATOM     22  C   UNL     1      -0.011   1.505   0.263  0.00  0.00    +0.051 C 
ATOM     23  C   UNL     1       0.001  -0.002  -0.000  0.00  0.00    +0.167 C 
ATOM     24  C   UNL     1       0.815  -0.703   1.089  0.00  0.00    +0.051 C 
ENDBRANCH  21  23
ENDBRANCH  14  21
ENDBRANCH   1  19
TORSDOF 4
