REMARK  Name = ZINC63295446
REMARK  6 active torsions:
REMARK  status: ('A' for Active; 'I' for Inactive)
REMARK    1  A    between atoms: C_3  and  C_7
REMARK    2  A    between atoms: C_7  and  N_8
REMARK    3  A    between atoms: C_9  and  C_11
REMARK    4  A    between atoms: C_11  and  C_12
REMARK    5  A    between atoms: C_12  and  C_13
REMARK    6  A    between atoms: C_13  and  N_14
REMARK                            x       y       z     vdW  Elec       q    Type
REMARK                         _______ _______ _______ _____ _____    ______ ____
ROOT
ATOM      1  N   UNL     1       8.884   4.749   4.432  0.00  0.00    -0.299 N 
ATOM      2  C   UNL     1       9.489   5.064   5.594  0.00  0.00    +0.302 C 
ATOM      3  O   UNL     1       8.920   4.861   6.650  0.00  0.00    -0.253 OA
ATOM      4  N   UNL     1      10.724   5.604   5.587  0.00  0.00    -0.283 N 
ATOM      5  C   UNL     1      11.353   5.958   4.311  0.00  0.00    +0.114 C 
ATOM      6  C   UNL     1      11.712   7.455   4.315  0.00  0.00    +0.052 C 
ATOM      7  C   UNL     1      12.363   7.740   5.646  0.00  0.00    -0.035 C 
ATOM      8  C   UNL     1      13.513   8.327   5.953  0.00  0.00    +0.001 A 
ATOM      9  C   UNL     1      14.518   9.008   5.121  0.00  0.00    +0.030 A 
ATOM     10  C   UNL     1      15.611   9.487   5.774  0.00  0.00    +0.042 A 
ATOM     11  C   UNL     1      15.802   9.357   7.154  0.00  0.00    +0.022 A 
ATOM     12  C   UNL     1      14.926   8.754   7.995  0.00  0.00    +0.027 A 
ATOM     13  C   UNL     1      13.733   8.218   7.428  0.00  0.00    +0.043 A 
ATOM     14  N   UNL     1      12.728   7.618   7.994  0.00  0.00    -0.376 N 
ATOM     15  C   UNL     1      11.725   7.330   6.968  0.00  0.00    +0.124 C 
ATOM     16  C   UNL     1      11.424   5.837   6.861  0.00  0.00    +0.138 C 
ATOM     17 CL   UNL     1      16.833  10.300   4.846  0.00  0.00    -0.084 Cl
ATOM     18  H   UNL     1       9.306   4.977   3.588  0.00  0.00    +0.150 HD
ATOM     19  H   UNL     1      12.655   7.399   8.936  0.00  0.00    +0.160 HD
ENDROOT
BRANCH   1  20
ATOM     20  C   UNL     1       7.590   4.062   4.441  0.00  0.00    +0.106 C 
BRANCH  20  21
ATOM     21  C   UNL     1       7.128   3.825   3.002  0.00  0.00    +0.028 C 
BRANCH  21  22
ATOM     22  C   UNL     1       5.777   3.108   3.012  0.00  0.00    +0.097 C 
BRANCH  22  24
ATOM     23  N   UNL     1       4.149   2.253   1.357  0.00  0.00    -0.311 N 
ATOM     24  C   UNL     1       5.322   2.874   1.595  0.00  0.00    +0.213 C 
ATOM     25  O   UNL     1       6.010   3.244   0.668  0.00  0.00    -0.276 OA
ATOM     26  H   UNL     1       3.598   1.957   2.099  0.00  0.00    +0.149 HD
BRANCH  23  27
ATOM     27  C   UNL     1       3.707   2.025  -0.021  0.00  0.00    +0.141 C 
BRANCH  27  30
ATOM     28  C   UNL     1      -0.006   1.354   0.008  0.00  0.00    +0.020 A 
ATOM     29  C   UNL     1       1.195   2.046  -0.001  0.00  0.00    +0.008 A 
ATOM     30  C   UNL     1       2.375   1.319  -0.011  0.00  0.00    -0.012 A 
ATOM     31  C   UNL     1       2.316  -0.062  -0.012  0.00  0.00    +0.115 A 
ATOM     32  N   UNL     1       1.154  -0.686  -0.004  0.00  0.00    -0.263 NA
ATOM     33  C   UNL     1       0.012  -0.027   0.006  0.00  0.00    +0.111 A 
ENDBRANCH  27  30
ENDBRANCH  23  27
ENDBRANCH  22  24
ENDBRANCH  21  22
ENDBRANCH  20  21
ENDBRANCH   1  20
TORSDOF 6
