REMARK  Name = ZINC40139232
REMARK  9 active torsions:
REMARK  status: ('A' for Active; 'I' for Inactive)
REMARK    1  A    between atoms: C_1  and  C_2
REMARK    2  A    between atoms: N_11  and  C_15
REMARK    3  A    between atoms: C_15  and  N_16
REMARK    4  A    between atoms: N_19  and  C_22
REMARK    5  A    between atoms: C_22  and  C_23
REMARK    6  A    between atoms: C_26  and  C_28
REMARK    7  A    between atoms: C_28  and  C_29
REMARK    8  A    between atoms: C_28  and  C_30
REMARK    9  A    between atoms: C_28  and  C_31
REMARK                            x       y       z     vdW  Elec       q    Type
REMARK                         _______ _______ _______ _____ _____    ______ ____
ROOT
ATOM      1  N   UNL     1       1.145   0.549   5.505  0.00  0.00    -0.290 NA
ATOM      2  C   UNL     1       0.059  -0.395   5.806  0.00  0.00    +0.067 C 
ATOM      3  C   UNL     1       0.504  -1.339   6.925  0.00  0.00    -0.063 C 
ATOM      4  N   UNL     1       0.840  -0.556   8.121  0.00  0.00    +0.385 N 
ATOM      5  C   UNL     1       1.942   0.365   7.812  0.00  0.00    -0.063 C 
ATOM      6  C   UNL     1       1.509   1.323   6.700  0.00  0.00    +0.067 C 
ATOM      7  H   UNL     1       0.033  -0.027   8.415  0.00  0.00    -0.081 HD
ENDROOT
BRANCH   1   8
ATOM      8  C   UNL     1       0.777   1.438   4.394  0.00  0.00    +0.204 C 
BRANCH   8  18
ATOM      9  C   UNL     1      -0.019   1.526   0.010  0.00  0.00    +0.010 C 
ATOM     10  C   UNL     1       0.002  -0.004   0.002  0.00  0.00    +0.018 C 
ATOM     11  C   UNL     1       0.718  -0.498  -1.258  0.00  0.00    +0.006 C 
ATOM     12  C   UNL     1       0.756  -2.027  -1.255  0.00  0.00    +0.000 C 
ATOM     13  C   UNL     1       1.516  -2.519  -0.021  0.00  0.00    +0.003 C 
ATOM     14  C   UNL     1       0.803  -2.032   1.243  0.00  0.00    +0.035 C 
ATOM     15  C   UNL     1       0.739  -0.509   1.238  0.00  0.00    +0.115 C 
ATOM     16  C   UNL     1       0.069  -0.004   2.495  0.00  0.00    +0.248 C 
ATOM     17  O   UNL     1      -1.064  -0.228   2.863  0.00  0.00    -0.273 OA
ATOM     18  N   UNL     1       0.998   0.746   3.122  0.00  0.00    -0.211 N 
ATOM     19  C   UNL     1       2.148   0.781   2.437  0.00  0.00    +0.310 C 
ATOM     20  O   UNL     1       3.133   1.393   2.801  0.00  0.00    -0.252 OA
ATOM     21  N   UNL     1       2.091   0.063   1.300  0.00  0.00    -0.285 N 
ATOM     22  H   UNL     1       2.801  -0.054   0.650  0.00  0.00    +0.151 HD
ENDBRANCH   8  18
ENDBRANCH   1   8
BRANCH   4  23
ATOM     23  C   UNL     1       1.250  -1.463   9.201  0.00  0.00    -0.022 C 
BRANCH  23  24
ATOM     24  C   UNL     1       1.476  -0.672  10.464  0.00  0.00    +0.032 A 
ATOM     25  C   UNL     1       0.505  -0.539  11.402  0.00  0.00    +0.068 A 
ATOM     26  S   UNL     1       1.350   0.469  12.611  0.00  0.00    -0.080 S 
ATOM     27  C   UNL     1       2.821   0.609  11.805  0.00  0.00    +0.084 A 
ATOM     28  N   UNL     1       2.629  -0.082  10.710  0.00  0.00    -0.250 NA
BRANCH  27  29
ATOM     29  C   UNL     1       4.061   1.346  12.242  0.00  0.00    +0.011 C 
ATOM     30  C   UNL     1       4.403   2.425  11.212  0.00  0.00    +0.017 C 
ATOM     31  C   UNL     1       3.812   2.001  13.603  0.00  0.00    +0.017 C 
ATOM     32  C   UNL     1       5.226   0.362  12.356  0.00  0.00    +0.017 C 
ENDBRANCH  27  29
ENDBRANCH  23  24
ENDBRANCH   4  23
TORSDOF 5
