REMARK  Name = ZINC04182362
REMARK  5 active torsions:
REMARK  status: ('A' for Active; 'I' for Inactive)
REMARK    1  A    between atoms: C_4  and  N_29
REMARK    2  A    between atoms: C_5  and  N_7
REMARK    3  A    between atoms: C_10  and  C_17
REMARK    4  A    between atoms: C_12  and  C_15
REMARK    5  A    between atoms: C_13  and  N_14
REMARK                            x       y       z     vdW  Elec       q    Type
REMARK                         _______ _______ _______ _____ _____    ______ ____
ROOT
ATOM      1  N   UNL     1      -1.476  -0.422  -0.040  0.00  0.00    -0.258 N 
ATOM      2  C   UNL     1      -2.081  -0.795   1.131  0.00  0.00    +0.025 C 
ATOM      3  C   UNL     1      -3.142  -1.627   1.124  0.00  0.00    +0.025 C 
ATOM      4  C   UNL     1      -3.676  -2.189  -0.169  0.00  0.00    +0.097 C 
ATOM      5  C   UNL     1      -3.202  -1.388  -1.345  0.00  0.00    +0.077 C 
ATOM      6  C   UNL     1      -2.136  -0.552  -1.241  0.00  0.00    +0.107 C 
ATOM      7  C   UNL     1      -3.781  -1.997   2.320  0.00  0.00    +0.162 C 
ATOM      8  O   UNL     1      -4.728  -2.758   2.280  0.00  0.00    -0.292 OA
ATOM      9  C   UNL     1      -3.315  -1.470   3.650  0.00  0.00    +0.080 C 
ATOM     10  C   UNL     1      -2.669  -0.096   3.443  0.00  0.00    +0.014 C 
ATOM     11  C   UNL     1      -1.535  -0.242   2.426  0.00  0.00    +0.052 C 
ENDROOT
BRANCH   4  12
ATOM     12  C   UNL     1      -3.205  -3.613  -0.319  0.00  0.00    -0.035 A 
ATOM     13  C   UNL     1      -1.853  -3.899  -0.298  0.00  0.00    +0.007 A 
ATOM     14  C   UNL     1      -1.420  -5.205  -0.429  0.00  0.00    +0.038 A 
ATOM     15  C   UNL     1      -2.341  -6.225  -0.595  0.00  0.00    +0.123 A 
ATOM     16  C   UNL     1      -3.695  -5.937  -0.621  0.00  0.00    +0.038 A 
ATOM     17  C   UNL     1      -4.126  -4.631  -0.483  0.00  0.00    +0.007 A 
ATOM     18  F   UNL     1      -1.919  -7.502  -0.730  0.00  0.00    -0.205 F 
ENDBRANCH   4  12
BRANCH   1  23
ATOM     19  C   UNL     1       2.198  -0.263  -0.011  0.00  0.00    +0.002 A 
ATOM     20  C   UNL     1       2.401   1.104   0.030  0.00  0.00    +0.002 A 
ATOM     21  C   UNL     1       1.320   1.966   0.047  0.00  0.00    +0.034 A 
ATOM     22  C   UNL     1       0.033   1.464   0.024  0.00  0.00    +0.148 A 
ATOM     23  C   UNL     1      -0.173   0.091  -0.017  0.00  0.00    +0.070 A 
ATOM     24  C   UNL     1       0.915  -0.772  -0.034  0.00  0.00    +0.026 A 
BRANCH  22  25
ATOM     25  N   UNL     1      -1.123   2.387   0.043  0.00  0.00    +0.058 N 
ATOM     26  O   UNL     1      -0.944   3.590  -0.025  0.00  0.00    -0.126 OA
ATOM     27  O   UNL     1      -2.255   1.944   0.127  0.00  0.00    -0.126 OA
ENDBRANCH  22  25
ENDBRANCH   1  23
BRANCH   6  28
ATOM     28  N   UNL     1      -1.718   0.166  -2.336  0.00  0.00    -0.345 N 
ATOM     29  H   UNL     1      -0.957   0.763  -2.262  0.00  0.00    +0.144 HD
ATOM     30  H   UNL     1      -2.183   0.075  -3.182  0.00  0.00    +0.144 HD
ENDBRANCH   6  28
BRANCH   5  31
ATOM     31  C   UNL     1      -3.884  -1.506  -2.599  0.00  0.00    +0.099 C 
ATOM     32  N   UNL     1      -4.425  -1.600  -3.593  0.00  0.00    -0.191 NA
ENDBRANCH   5  31
TORSDOF 5
