REMARK  Name = ZINC14474625
REMARK  7 active torsions:
REMARK  status: ('A' for Active; 'I' for Inactive)
REMARK    1  A    between atoms: C_1  and  C_2
REMARK    2  A    between atoms: C_2  and  C_3
REMARK    3  A    between atoms: C_3  and  C_5
REMARK    4  A    between atoms: C_3  and  N_6
REMARK    5  A    between atoms: C_7  and  C_9
REMARK    6  A    between atoms: C_16  and  C_25
REMARK    7  A    between atoms: C_30  and  O_31
REMARK                            x       y       z     vdW  Elec       q    Type
REMARK                         _______ _______ _______ _____ _____    ______ ____
ROOT
ATOM      1  C   UNL     1      -3.773   2.595   3.819  0.00  0.00    +0.058 A 
ATOM      2  C   UNL     1      -4.962   3.158   3.359  0.00  0.00    +0.015 A 
ATOM      3  C   UNL     1      -5.254   3.151   2.013  0.00  0.00    +0.001 A 
ATOM      4  C   UNL     1      -4.366   2.577   1.118  0.00  0.00    +0.006 A 
ATOM      5  C   UNL     1      -3.175   2.024   1.559  0.00  0.00    -0.019 A 
ATOM      6  C   UNL     1      -2.860   2.015   2.915  0.00  0.00    +0.044 A 
ATOM      7  N   UNL     1      -1.690   1.488   3.435  0.00  0.00    -0.336 N 
ATOM      8  C   UNL     1      -0.785   0.816   2.490  0.00  0.00    +0.108 C 
ATOM      9  C   UNL     1      -0.807   1.619   1.205  0.00  0.00    +0.029 C 
ATOM     10  C   UNL     1      -2.234   1.379   0.617  0.00  0.00    +0.049 C 
ATOM     11  C   UNL     1      -2.092   1.812  -0.795  0.00  0.00    -0.023 C 
ATOM     12  C   UNL     1      -0.829   1.631  -1.167  0.00  0.00    -0.030 C 
ATOM     13  C   UNL     1      -0.013   1.086   0.008  0.00  0.00    +0.033 C 
ATOM     14  H   UNL     1      -1.195   2.177   3.982  0.00  0.00    +0.147 HD
ENDROOT
BRANCH   8  15
ATOM     15  C   UNL     1      -1.264  -0.588   2.226  0.00  0.00    +0.014 A 
ATOM     16  C   UNL     1      -2.589  -0.918   2.438  0.00  0.00    +0.009 A 
ATOM     17  C   UNL     1      -3.030  -2.205   2.196  0.00  0.00    +0.001 A 
ATOM     18  C   UNL     1      -2.146  -3.167   1.742  0.00  0.00    +0.004 A 
ATOM     19  C   UNL     1      -0.820  -2.843   1.530  0.00  0.00    +0.046 A 
ATOM     20  C   UNL     1      -0.377  -1.550   1.766  0.00  0.00    +0.122 A 
BRANCH  20  21
ATOM     21  O   UNL     1       0.926  -1.227   1.552  0.00  0.00    -0.506 OA
ATOM     22  H   UNL     1       1.495  -1.355   2.324  0.00  0.00    +0.292 HD
ENDBRANCH  20  21
ENDBRANCH   8  15
BRANCH   1  24
ATOM     23  N   UNL     1      -4.337   3.161   6.130  0.00  0.00    -0.309 N 
ATOM     24  C   UNL     1      -3.467   2.607   5.262  0.00  0.00    +0.246 C 
ATOM     25  O   UNL     1      -2.431   2.118   5.667  0.00  0.00    -0.270 OA
ATOM     26  H   UNL     1      -5.163   3.551   5.806  0.00  0.00    +0.149 HD
BRANCH  23  27
ATOM     27  C   UNL     1      -4.033   3.173   7.563  0.00  0.00    +0.070 C 
ATOM     28  C   UNL     1      -4.476   1.850   8.190  0.00  0.00    +0.028 C 
BRANCH  27  30
ATOM     29  C   UNL     1      -4.245   5.659   7.695  0.00  0.00    +0.005 C 
ATOM     30  C   UNL     1      -4.778   4.330   8.233  0.00  0.00    +0.018 C 
ENDBRANCH  27  30
ENDBRANCH  23  27
ENDBRANCH   1  24
TORSDOF 5
