REMARK  Name = ZINC02256839
REMARK  6 active torsions:
REMARK  status: ('A' for Active; 'I' for Inactive)
REMARK    1  A    between atoms: C_1  and  O_2
REMARK    2  A    between atoms: O_2  and  C_3
REMARK    3  A    between atoms: C_6  and  C_9
REMARK    4  A    between atoms: C_24  and  S_36
REMARK    5  A    between atoms: C_27  and  C_29
REMARK    6  A    between atoms: S_36  and  C_37
REMARK                            x       y       z     vdW  Elec       q    Type
REMARK                         _______ _______ _______ _____ _____    ______ ____
ROOT
ATOM      1  C   UNL     1       1.952  -2.880   4.132  0.00  0.00    +0.234 C 
ATOM      2  C   UNL     1       1.191  -3.021   5.418  0.00  0.00    +0.025 C 
ATOM      3  C   UNL     1       0.450  -4.121   5.661  0.00  0.00    +0.058 C 
ATOM      4  C   UNL     1       0.429  -5.177   4.617  0.00  0.00    +0.042 A 
ATOM      5  C   UNL     1      -0.534  -6.176   4.615  0.00  0.00    +0.033 A 
ATOM      6  C   UNL     1      -0.516  -7.139   3.623  0.00  0.00    +0.042 A 
ATOM      7  C   UNL     1       0.456  -7.106   2.637  0.00  0.00    +0.023 A 
ATOM      8  C   UNL     1       1.419  -6.114   2.634  0.00  0.00    +0.048 A 
ATOM      9  C   UNL     1       1.414  -5.145   3.622  0.00  0.00    +0.131 A 
ATOM     10  O   UNL     1       2.347  -4.165   3.647  0.00  0.00    -0.479 OA
ATOM     11 CL   UNL     1      -1.717  -8.393   3.613  0.00  0.00    -0.084 Cl
ATOM     12  N   UNL     1      -0.250  -4.264   6.813  0.00  0.00    -0.326 N 
ATOM     13  C   UNL     1      -0.270  -3.376   7.784  0.00  0.00    +0.216 C 
ATOM     14  N   UNL     1      -0.899  -3.365   8.973  0.00  0.00    -0.192 NA
ATOM     15  C   UNL     1      -0.623  -2.256   9.628  0.00  0.00    +0.174 C 
ATOM     16  N   UNL     1       0.218  -1.485   8.869  0.00  0.00    -0.239 N 
ATOM     17  N   UNL     1       0.444  -2.197   7.688  0.00  0.00    -0.209 N 
ATOM     18  C   UNL     1       1.232  -1.941   6.476  0.00  0.00    +0.162 C 
ATOM     19  H   UNL     1      -0.770  -5.074   6.929  0.00  0.00    +0.169 HD
ATOM     20  H   UNL     1       0.583  -0.618   9.104  0.00  0.00    +0.172 HD
ENDROOT
BRANCH  18  21
ATOM     21  C   UNL     1       0.739  -0.658   5.857  0.00  0.00    +0.014 A 
ATOM     22  C   UNL     1      -0.609  -0.352   5.880  0.00  0.00    +0.008 A 
ATOM     23  C   UNL     1      -1.061   0.824   5.313  0.00  0.00    +0.001 A 
ATOM     24  C   UNL     1      -0.166   1.697   4.722  0.00  0.00    +0.003 A 
ATOM     25  C   UNL     1       1.182   1.394   4.699  0.00  0.00    +0.039 A 
ATOM     26  C   UNL     1       1.637   0.218   5.271  0.00  0.00    +0.129 A 
ATOM     27  F   UNL     1       2.955  -0.078   5.253  0.00  0.00    -0.205 F 
ENDBRANCH  18  21
BRANCH   1  31
ATOM     28  C   UNL     1      -0.533  -0.976   1.222  0.00  0.00    +0.120 A 
ATOM     29  C   UNL     1      -0.849  -2.247   1.681  0.00  0.00    +0.046 A 
ATOM     30  C   UNL     1      -0.044  -2.860   2.621  0.00  0.00    +0.011 A 
ATOM     31  C   UNL     1       1.075  -2.209   3.106  0.00  0.00    -0.003 A 
ATOM     32  C   UNL     1       1.392  -0.942   2.650  0.00  0.00    +0.011 A 
ATOM     33  C   UNL     1       0.594  -0.327   1.706  0.00  0.00    +0.046 A 
BRANCH  28  35
ATOM     34  C   UNL     1      -2.467  -1.098  -0.155  0.00  0.00    +0.277 C 
ATOM     35  O   UNL     1      -1.323  -0.371   0.297  0.00  0.00    -0.495 OA
ENDBRANCH  28  35
ENDBRANCH   1  31
BRANCH  15  36
ATOM     36  S   UNL     1      -1.235  -1.831  11.225  0.00  0.00    -0.092 S 
ATOM     37  C   UNL     1      -2.277  -3.243  11.685  0.00  0.00    +0.093 C 
ENDBRANCH  15  36
TORSDOF 4
