REMARK  Name = ZINC34953396
REMARK  6 active torsions:
REMARK  status: ('A' for Active; 'I' for Inactive)
REMARK    1  A    between atoms: C_1  and  C_2
REMARK    2  A    between atoms: C_7  and  C_8
REMARK    3  A    between atoms: C_7  and  C_9
REMARK    4  A    between atoms: C_11  and  N_12
REMARK    5  A    between atoms: C_13  and  C_15
REMARK    6  A    between atoms: C_18  and  N_21
REMARK                            x       y       z     vdW  Elec       q    Type
REMARK                         _______ _______ _______ _____ _____    ______ ____
ROOT
ATOM      1  N   UNL     1       1.036  -0.070  -2.389  0.00  0.00    -0.285 N 
ATOM      2  C   UNL     1       1.693  -0.766  -3.338  0.00  0.00    +0.248 C 
ATOM      3  O   UNL     1       2.026  -1.916  -3.127  0.00  0.00    -0.270 OA
ATOM      4  H   UNL     1       0.770   0.848  -2.557  0.00  0.00    +0.155 HD
ENDROOT
BRANCH   1  14
ATOM      5  C   UNL     1      -0.019   1.526   0.010  0.00  0.00    +0.018 C 
ATOM      6  C   UNL     1       0.002  -0.004   0.002  0.00  0.00    +0.011 C 
ATOM      7  C   UNL     1      -1.388  -0.715   0.055  0.00  0.00    +0.013 C 
ATOM      8  C   UNL     1      -1.043  -2.165   0.473  0.00  0.00    +0.009 C 
ATOM      9  C   UNL     1       0.512  -2.148   0.621  0.00  0.00    +0.020 C 
ATOM     10  C   UNL     1       0.726  -0.706   1.209  0.00  0.00    -0.018 C 
ATOM     11  C   UNL     1       2.200  -0.311   1.317  0.00  0.00    +0.012 C 
ATOM     12  C   UNL     1      -0.021  -0.515   2.531  0.00  0.00    +0.012 C 
ATOM     13  C   UNL     1       1.021  -1.950  -0.812  0.00  0.00    -0.004 C 
ATOM     14  C   UNL     1       0.740  -0.667  -1.168  0.00  0.00    +0.014 C 
ENDBRANCH   1  14
BRANCH   2  15
ATOM     15  C   UNL     1       2.007  -0.131  -4.635  0.00  0.00    +0.037 A 
ATOM     16  C   UNL     1       1.632   1.191  -4.878  0.00  0.00    +0.015 A 
ATOM     17  C   UNL     1       1.929   1.778  -6.090  0.00  0.00    +0.033 A 
ATOM     18  C   UNL     1       2.598   1.058  -7.065  0.00  0.00    +0.126 A 
ATOM     19  C   UNL     1       2.973  -0.253  -6.831  0.00  0.00    +0.033 A 
ATOM     20  C   UNL     1       2.687  -0.849  -5.620  0.00  0.00    +0.015 A 
BRANCH  18  21
ATOM     21  N   UNL     1       2.913   1.694  -8.364  0.00  0.00    +0.056 N 
ATOM     22  O   UNL     1       2.585   2.839  -8.572  0.00  0.00    -0.126 OA
ATOM     23  O   UNL     1       3.497   1.068  -9.217  0.00  0.00    -0.126 OA
ENDBRANCH  18  21
ENDBRANCH   2  15
TORSDOF 3
