REMARK  Name = ZINC41021823
REMARK  8 active torsions:
REMARK  status: ('A' for Active; 'I' for Inactive)
REMARK    1  A    between atoms: C_6  and  C_7
REMARK    2  A    between atoms: C_10  and  C_12
REMARK    3  A    between atoms: C_12  and  C_13
REMARK    4  A    between atoms: C_13  and  C_14
REMARK    5  A    between atoms: N_16  and  C_17
REMARK    6  A    between atoms: C_17  and  C_18
REMARK    7  A    between atoms: C_18  and  C_20
REMARK    8  A    between atoms: C_18  and  N_27
REMARK                            x       y       z     vdW  Elec       q    Type
REMARK                         _______ _______ _______ _____ _____    ______ ____
ROOT
ATOM      1  C   UNL     1      -6.297  -7.397  -0.525  0.00  0.00    +0.213 C 
ATOM      2  O   UNL     1      -5.270  -7.272   0.107  0.00  0.00    -0.276 OA
ATOM      3  N   UNL     1      -6.248  -7.642  -1.849  0.00  0.00    -0.317 N 
ATOM      4  H   UNL     1      -7.069  -7.741  -2.356  0.00  0.00    +0.149 HD
ENDROOT
BRANCH   1   5
ATOM      5  C   UNL     1      -7.629  -7.278   0.170  0.00  0.00    +0.105 C 
BRANCH   5   6
ATOM      6  C   UNL     1      -7.405  -7.001   1.658  0.00  0.00    +0.105 C 
BRANCH   6  10
ATOM      7  C   UNL     1     -10.567  -6.051   3.180  0.00  0.00    +0.155 A 
ATOM      8  C   UNL     1     -10.537  -7.388   3.418  0.00  0.00    +0.161 A 
ATOM      9  N   UNL     1      -9.398  -7.865   2.895  0.00  0.00    -0.221 NA
ATOM     10  C   UNL     1      -8.737  -6.882   2.352  0.00  0.00    +0.197 A 
ATOM     11  O   UNL     1      -9.435  -5.748   2.507  0.00  0.00    -0.440 OA
BRANCH   7  17
ATOM     12  C   UNL     1     -12.754  -5.571   4.273  0.00  0.00    +0.013 A 
ATOM     13  C   UNL     1     -13.747  -4.688   4.640  0.00  0.00    +0.021 A 
ATOM     14  C   UNL     1     -13.637  -3.345   4.319  0.00  0.00    +0.041 A 
ATOM     15  C   UNL     1     -12.531  -2.881   3.628  0.00  0.00    +0.021 A 
ATOM     16  C   UNL     1     -11.531  -3.755   3.255  0.00  0.00    +0.013 A 
ATOM     17  C   UNL     1     -11.636  -5.110   3.576  0.00  0.00    +0.019 A 
ATOM     18 CL   UNL     1     -14.892  -2.239   4.784  0.00  0.00    -0.084 Cl
ENDBRANCH   7  17
ENDBRANCH   6  10
ENDBRANCH   5   6
ENDBRANCH   1   5
BRANCH   3  19
ATOM     19  C   UNL     1      -4.953  -7.757  -2.525  0.00  0.00    +0.093 C 
BRANCH  19  20
ATOM     20  C   UNL     1      -5.173  -8.164  -3.983  0.00  0.00    -0.020 C 
BRANCH  20  21
ATOM     21  C   UNL     1      -5.801  -9.533  -4.034  0.00  0.00    -0.059 A 
ATOM     22  C   UNL     1      -5.017 -10.659  -3.869  0.00  0.00    +0.003 A 
ATOM     23  C   UNL     1      -5.592 -11.915  -3.915  0.00  0.00    +0.020 A 
ATOM     24  C   UNL     1      -6.953 -12.045  -4.127  0.00  0.00    +0.041 A 
ATOM     25  C   UNL     1      -7.737 -10.917  -4.292  0.00  0.00    +0.020 A 
ATOM     26  C   UNL     1      -7.162  -9.661  -4.240  0.00  0.00    +0.003 A 
ATOM     27 CL   UNL     1      -7.676 -13.622  -4.186  0.00  0.00    -0.084 Cl
ENDBRANCH  20  21
BRANCH  20  28
ATOM     28  N   UNL     1      -3.882  -8.191  -4.684  0.00  0.00    +0.385 N 
ATOM     29  C   UNL     1      -3.295  -6.846  -4.678  0.00  0.00    -0.078 C 
ATOM     30  C   UNL     1      -1.914  -6.885  -5.335  0.00  0.00    -0.019 C 
ATOM     31  C   UNL     1      -2.055  -7.375  -6.779  0.00  0.00    -0.004 C 
ATOM     32  C   UNL     1      -2.736  -8.746  -6.778  0.00  0.00    -0.019 C 
ATOM     33  C   UNL     1      -4.087  -8.639  -6.067  0.00  0.00    -0.078 C 
ATOM     34  H   UNL     1      -3.259  -8.830  -4.214  0.00  0.00    -0.081 HD
ENDBRANCH  20  28
ENDBRANCH  19  20
ENDBRANCH   3  19
TORSDOF 8
