REMARK  Name = ZINC35683582
REMARK  7 active torsions:
REMARK  status: ('A' for Active; 'I' for Inactive)
REMARK    1  A    between atoms: C_7  and  C_13
REMARK    2  A    between atoms: N_15  and  C_16
REMARK    3  A    between atoms: C_16  and  C_17
REMARK    4  A    between atoms: C_17  and  C_18
REMARK    5  A    between atoms: C_18  and  C_19
REMARK    6  A    between atoms: C_20  and  C_26
REMARK    7  A    between atoms: C_21  and  N_25
REMARK                            x       y       z     vdW  Elec       q    Type
REMARK                         _______ _______ _______ _____ _____    ______ ____
ROOT
ATOM      1  C   UNL     1       0.014  -2.947  -0.013  0.00  0.00    +0.245 C 
ATOM      2  O   UNL     1       0.061  -4.157  -0.113  0.00  0.00    -0.270 OA
ATOM      3  N   UNL     1      -1.177  -2.327   0.104  0.00  0.00    -0.311 N 
ATOM      4  H   UNL     1      -1.220  -1.358   0.110  0.00  0.00    +0.149 HD
ENDROOT
BRANCH   1  11
ATOM      5  C   UNL     1       3.898  -4.813   0.012  0.00  0.00    +0.001 A 
ATOM      6  C   UNL     1       5.057  -4.048   0.004  0.00  0.00    +0.002 A 
ATOM      7  C   UNL     1       4.989  -2.672  -0.011  0.00  0.00    +0.026 A 
ATOM      8  C   UNL     1       3.748  -2.039  -0.019  0.00  0.00    +0.050 A 
ATOM      9  C   UNL     1       2.578  -2.818  -0.011  0.00  0.00    +0.011 A 
ATOM     10  C   UNL     1       2.671  -4.214   0.004  0.00  0.00    +0.011 A 
ATOM     11  C   UNL     1       1.266  -2.153  -0.020  0.00  0.00    +0.051 A 
ATOM     12  C   UNL     1       1.228  -0.789  -0.035  0.00  0.00    +0.083 A 
ATOM     13  C   UNL     1       2.479  -0.034  -0.042  0.00  0.00    +0.250 A 
ATOM     14  O   UNL     1       2.445   1.184  -0.055  0.00  0.00    -0.268 OA
ATOM     15  N   UNL     1       3.667  -0.663  -0.033  0.00  0.00    -0.322 N 
ATOM     16  H   UNL     1       4.482  -0.139  -0.038  0.00  0.00    +0.169 HD
ENDBRANCH   1  11
BRANCH   3  17
ATOM     17  C   UNL     1      -2.406  -3.116   0.223  0.00  0.00    +0.105 C 
BRANCH  17  18
ATOM     18  C   UNL     1      -3.606  -2.175   0.342  0.00  0.00    +0.025 C 
BRANCH  18  19
ATOM     19  C   UNL     1      -4.889  -2.999   0.466  0.00  0.00    +0.060 C 
BRANCH  19  20
ATOM     20  C   UNL     1      -6.072  -2.072   0.583  0.00  0.00    +0.082 A 
ATOM     21  C   UNL     1      -6.608  -1.560   1.787  0.00  0.00    +0.113 A 
ATOM     22  C   UNL     1      -7.687  -0.751   1.441  0.00  0.00    +0.129 A 
ATOM     23  N   UNL     1      -7.789  -0.780   0.096  0.00  0.00    -0.263 N 
ATOM     24  H   UNL     1      -8.452  -0.308  -0.433  0.00  0.00    +0.190 HD
ATOM     25  N   UNL     1      -6.774  -1.600  -0.408  0.00  0.00    -0.176 NA
BRANCH  22  26
ATOM     26  N   UNL     1      -8.500  -0.051   2.311  0.00  0.00    -0.342 N 
ATOM     27  H   UNL     1      -8.342  -0.097   3.267  0.00  0.00    +0.144 HD
ATOM     28  H   UNL     1      -9.230   0.487   1.966  0.00  0.00    +0.144 HD
ENDBRANCH  22  26
BRANCH  21  29
ATOM     29  C   UNL     1      -6.132  -1.823   3.112  0.00  0.00    +0.104 C 
ATOM     30  N   UNL     1      -5.754  -2.033   4.163  0.00  0.00    -0.191 NA
ENDBRANCH  21  29
ENDBRANCH  19  20
ENDBRANCH  18  19
ENDBRANCH  17  18
ENDBRANCH   3  17
TORSDOF 7
