REMARK  Name = ZINC19743172
REMARK  5 active torsions:
REMARK  status: ('A' for Active; 'I' for Inactive)
REMARK    1  A    between atoms: C_1  and  C_2
REMARK    2  A    between atoms: C_5  and  C_7
REMARK    3  A    between atoms: C_7  and  N_8
REMARK    4  A    between atoms: C_21  and  C_23
REMARK    5  A    between atoms: N_31  and  C_32
REMARK                            x       y       z     vdW  Elec       q    Type
REMARK                         _______ _______ _______ _____ _____    ______ ____
ROOT
ATOM      1  N   UNL     1      -5.274   3.529   1.034  0.00  0.00    -0.281 NA
ATOM      2  C   UNL     1      -6.726   3.738   0.935  0.00  0.00    +0.090 C 
ATOM      3  C   UNL     1      -7.046   4.490  -0.363  0.00  0.00    +0.053 C 
ATOM      4  C   UNL     1      -6.327   3.798  -1.493  0.00  0.00    -0.016 A 
ATOM      5  C   UNL     1      -6.535   3.912  -2.919  0.00  0.00    +0.003 A 
ATOM      6  C   UNL     1      -7.423   4.666  -3.694  0.00  0.00    +0.010 A 
ATOM      7  C   UNL     1      -7.337   4.520  -5.056  0.00  0.00    +0.001 A 
ATOM      8  C   UNL     1      -6.419   3.669  -5.649  0.00  0.00    +0.002 A 
ATOM      9  C   UNL     1      -5.529   2.912  -4.908  0.00  0.00    +0.026 A 
ATOM     10  C   UNL     1      -5.592   3.040  -3.522  0.00  0.00    +0.047 A 
ATOM     11  N   UNL     1      -4.878   2.453  -2.516  0.00  0.00    -0.356 N 
ATOM     12  H   UNL     1      -4.083   1.731  -2.754  0.00  0.00    +0.166 HD
ATOM     13  C   UNL     1      -5.322   2.912  -1.306  0.00  0.00    +0.045 A 
ATOM     14  C   UNL     1      -4.809   2.526   0.061  0.00  0.00    +0.171 C 
ENDROOT
BRANCH  14  15
ATOM     15  C   UNL     1      -3.303   2.496   0.046  0.00  0.00    +0.134 A 
ATOM     16  N   UNL     1      -2.536   3.547   0.045  0.00  0.00    -0.230 NA
ATOM     17  C   UNL     1      -1.234   3.162   0.030  0.00  0.00    +0.089 A 
ATOM     18  C   UNL     1      -0.022   3.859   0.023  0.00  0.00    +0.030 A 
ATOM     19  C   UNL     1       1.158   3.172   0.008  0.00  0.00    +0.002 A 
ATOM     20  C   UNL     1       1.170   1.784   0.001  0.00  0.00    +0.002 A 
ATOM     21  C   UNL     1      -0.013   1.076   0.008  0.00  0.00    +0.028 A 
ATOM     22  C   UNL     1      -1.222   1.757   0.017  0.00  0.00    +0.069 A 
ATOM     23  N   UNL     1      -2.546   1.365   0.033  0.00  0.00    -0.329 N 
ATOM     24  C   UNL     1      -3.044  -0.013   0.030  0.00  0.00    +0.150 C 
ENDBRANCH  14  15
BRANCH   1  25
ATOM     25  C   UNL     1      -4.888   3.154   2.401  0.00  0.00    +0.157 C 
BRANCH  25  30
ATOM     26  C   UNL     1      -4.316   7.420   4.967  0.00  0.00    +0.065 C 
ATOM     27  C   UNL     1      -4.920   6.143   4.441  0.00  0.00    +0.030 A 
ATOM     28  C   UNL     1      -6.123   5.640   4.776  0.00  0.00    +0.105 A 
ATOM     29  N   UNL     1      -6.277   4.478   4.069  0.00  0.00    -0.349 N 
ATOM     30  C   UNL     1      -5.158   4.307   3.333  0.00  0.00    +0.099 A 
ATOM     31  N   UNL     1      -4.352   5.309   3.558  0.00  0.00    -0.346 N 
ATOM     32  H   UNL     1      -3.356   5.534   3.150  0.00  0.00    +0.167 HD
ATOM     33  H   UNL     1      -7.199   3.887   4.176  0.00  0.00    +0.166 HD
ENDBRANCH  25  30
ENDBRANCH   1  25
TORSDOF 3
