REMARK  Name = ZINC09959001
REMARK  8 active torsions:
REMARK  status: ('A' for Active; 'I' for Inactive)
REMARK    1  A    between atoms: C_1  and  C_2
REMARK    2  A    between atoms: C_2  and  N_3
REMARK    3  A    between atoms: C_4  and  C_24
REMARK    4  A    between atoms: C_7  and  S_8
REMARK    5  A    between atoms: S_8  and  C_9
REMARK    6  A    between atoms: C_9  and  C_10
REMARK    7  A    between atoms: C_16  and  C_18
REMARK    8  A    between atoms: C_28  and  C_30
REMARK                            x       y       z     vdW  Elec       q    Type
REMARK                         _______ _______ _______ _____ _____    ______ ____
ROOT
ATOM      1  C   UNL     1      -0.070   0.142   0.493  0.00  0.00    +0.173 C 
ENDROOT
BRANCH   1   2
ATOM      2  C   UNL     1      -1.499  -0.317   0.627  0.00  0.00    +0.231 C 
ATOM      3  O   UNL     1      -2.405   0.480   0.514  0.00  0.00    -0.274 OA
ATOM      4  N   UNL     1      -1.769  -1.614   0.874  0.00  0.00    -0.238 N 
ATOM      5  C   UNL     1      -3.083  -2.037   0.998  0.00  0.00    +0.314 A 
ATOM      6  N   UNL     1      -4.152  -1.283   0.904  0.00  0.00    -0.092 NA
ATOM      7  N   UNL     1      -5.203  -2.008   1.068  0.00  0.00    -0.106 NA
ATOM      8  C   UNL     1      -4.845  -3.251   1.283  0.00  0.00    +0.250 A 
ATOM      9  O   UNL     1      -3.495  -3.295   1.243  0.00  0.00    -0.405 OA
ATOM     10  H   UNL     1      -1.044  -2.252   0.965  0.00  0.00    +0.159 HD
BRANCH   8  11
ATOM     11  C   UNL     1      -5.750  -4.393   1.524  0.00  0.00    +0.039 A 
ATOM     12  C   UNL     1      -5.227  -5.671   1.734  0.00  0.00    +0.013 A 
ATOM     13  C   UNL     1      -6.078  -6.732   1.964  0.00  0.00    +0.001 A 
ATOM     14  C   UNL     1      -7.448  -6.534   1.976  0.00  0.00    +0.000 A 
ATOM     15  C   UNL     1      -7.973  -5.272   1.764  0.00  0.00    +0.001 A 
ATOM     16  C   UNL     1      -7.133  -4.201   1.538  0.00  0.00    +0.013 A 
ENDBRANCH   8  11
ENDBRANCH   1   2
BRANCH   1  17
ATOM     17  S   UNL     1      -0.037   1.922   0.166  0.00  0.00    -0.077 S 
BRANCH  17  22
ATOM     18  N   UNL     1       2.332   3.368  -0.188  0.00  0.00    -0.302 N 
ATOM     19  C   UNL     1       3.678   3.085  -0.178  0.00  0.00    +0.165 A 
ATOM     20  N   UNL     1       3.799   1.798   0.052  0.00  0.00    -0.128 NA
ATOM     21  N   UNL     1       2.637   1.266   0.191  0.00  0.00    -0.122 NA
ATOM     22  C   UNL     1       1.703   2.181   0.057  0.00  0.00    +0.192 A 
BRANCH  19  23
ATOM     23  C   UNL     1       4.780   4.046  -0.393  0.00  0.00    +0.020 A 
ATOM     24  C   UNL     1       4.557   5.415  -0.235  0.00  0.00    +0.011 A 
ATOM     25  C   UNL     1       5.590   6.307  -0.436  0.00  0.00    +0.001 A 
ATOM     26  C   UNL     1       6.845   5.847  -0.793  0.00  0.00    +0.003 A 
ATOM     27  C   UNL     1       7.073   4.492  -0.952  0.00  0.00    -0.050 A 
ATOM     28  C   UNL     1       6.050   3.589  -0.749  0.00  0.00    +0.015 A 
ATOM     29  C   UNL     1       8.443   4.001  -1.341  0.00  0.00    +0.044 C 
ENDBRANCH  19  23
BRANCH  18  31
ATOM     30  C   UNL     1       1.449   5.354   0.934  0.00  0.00    +0.027 C 
ATOM     31  C   UNL     1       1.703   4.673  -0.412  0.00  0.00    +0.122 C 
ENDBRANCH  18  31
ENDBRANCH  17  22
ENDBRANCH   1  17
TORSDOF 6
