REMARK  Name = ZINC09509207
REMARK  6 active torsions:
REMARK  status: ('A' for Active; 'I' for Inactive)
REMARK    1  A    between atoms: C_1  and  C_2
REMARK    2  A    between atoms: C_5  and  S_8
REMARK    3  A    between atoms: S_8  and  N_11
REMARK    4  A    between atoms: C_16  and  C_17
REMARK    5  A    between atoms: C_16  and  N_57
REMARK    6  A    between atoms: C_23  and  C_28
REMARK                            x       y       z     vdW  Elec       q    Type
REMARK                         _______ _______ _______ _____ _____    ______ ____
ROOT
ATOM      1  C   UNL     1      -2.553   3.943   0.048  0.00  0.00    -0.003 C 
ENDROOT
BRANCH   1   2
ATOM      2  C   UNL     1      -1.220   3.239   0.031  0.00  0.00    +0.094 A 
ATOM      3  N   UNL     1      -1.183   1.882   0.018  0.00  0.00    -0.312 N 
ATOM      4  H   UNL     1      -2.015   1.384   0.019  0.00  0.00    +0.170 HD
ATOM      5  C   UNL     1      -0.015   1.215   0.009  0.00  0.00    +0.260 A 
ATOM      6  O   UNL     1       0.002  -0.004   0.002  0.00  0.00    -0.267 OA
ATOM      7  C   UNL     1       1.209   1.958   0.001  0.00  0.00    +0.080 A 
ATOM      8  C   UNL     1       2.583   1.473  -0.015  0.00  0.00    +0.004 A 
ATOM      9  C   UNL     1       3.593   2.376  -0.020  0.00  0.00    +0.056 A 
ATOM     10  S   UNL     1       2.745   3.943  -0.004  0.00  0.00    -0.076 S 
ATOM     11  C   UNL     1       1.071   3.356   0.010  0.00  0.00    +0.116 A 
ATOM     12  N   UNL     1      -0.121   3.945   0.025  0.00  0.00    -0.229 NA
BRANCH   8  13
ATOM     13  C   UNL     1       2.871   0.018  -0.026  0.00  0.00    -0.016 A 
ATOM     14  C   UNL     1       2.259  -0.822   0.903  0.00  0.00    +0.011 A 
ATOM     15  C   UNL     1       2.526  -2.176   0.886  0.00  0.00    +0.039 A 
ATOM     16  C   UNL     1       3.408  -2.699  -0.045  0.00  0.00    +0.123 A 
ATOM     17  C   UNL     1       4.022  -1.867  -0.967  0.00  0.00    +0.039 A 
ATOM     18  C   UNL     1       3.758  -0.512  -0.962  0.00  0.00    +0.011 A 
ATOM     19  F   UNL     1       3.670  -4.024  -0.055  0.00  0.00    -0.205 F 
ENDBRANCH   8  13
ENDBRANCH   1   2
BRANCH   1  25
ATOM     20  N   UNL     1      -2.529   8.068   0.824  0.00  0.00    -0.180 NA
ATOM     21  C   UNL     1      -3.309   7.611  -0.336  0.00  0.00    +0.091 C 
ATOM     22  C   UNL     1      -3.600   6.116  -0.169  0.00  0.00    -0.061 C 
ATOM     23  C   UNL     1      -1.691   5.829   1.300  0.00  0.00    -0.061 C 
ATOM     24  C   UNL     1      -1.322   7.312   1.192  0.00  0.00    +0.091 C 
ATOM     25  N   UNL     1      -2.320   5.402   0.030  0.00  0.00    +0.386 N 
ATOM     26  H   UNL     1      -1.688   5.630  -0.747  0.00  0.00    -0.081 HD
BRANCH  20  27
ATOM     27  S   UNL     1      -2.997   9.398   1.692  0.00  0.00    +0.061 S 
ATOM     28  O   UNL     1      -1.829   9.899   2.329  0.00  0.00    -0.153 OA
ATOM     29  O   UNL     1      -3.789  10.194   0.821  0.00  0.00    -0.153 OA
BRANCH  27  34
ATOM     30  C   UNL     1      -6.661   7.468   6.080  0.00  0.00    +0.044 C 
ATOM     31  C   UNL     1      -5.746   7.950   4.984  0.00  0.00    -0.050 A 
ATOM     32  C   UNL     1      -4.384   8.029   5.206  0.00  0.00    +0.005 A 
ATOM     33  C   UNL     1      -3.544   8.471   4.201  0.00  0.00    +0.029 A 
ATOM     34  C   UNL     1      -4.067   8.834   2.973  0.00  0.00    +0.105 A 
ATOM     35  C   UNL     1      -5.429   8.760   2.753  0.00  0.00    +0.029 A 
ATOM     36  C   UNL     1      -6.268   8.313   3.757  0.00  0.00    +0.005 A 
ENDBRANCH  27  34
ENDBRANCH  20  27
ENDBRANCH   1  25
TORSDOF 5
