REMARK  Name = ZINC21951056
REMARK  3 active torsions:
REMARK  status: ('A' for Active; 'I' for Inactive)
REMARK    1  A    between atoms: C_3  and  S_8
REMARK    2  A    between atoms: S_8  and  N_11
REMARK    3  A    between atoms: C_15  and  C_17
REMARK                            x       y       z     vdW  Elec       q    Type
REMARK                         _______ _______ _______ _____ _____    ______ ____
ROOT
ATOM      1  N   UNL     1      -0.099   6.370  -1.548  0.00  0.00    -0.168 NA
ATOM      2  C   UNL     1       1.088   6.650  -2.377  0.00  0.00    +0.110 C 
ATOM      3  C   UNL     1       0.603   6.457  -3.838  0.00  0.00    +0.019 C 
ATOM      4  C   UNL     1      -0.837   7.032  -3.764  0.00  0.00    +0.028 C 
ATOM      5  C   UNL     1      -1.305   6.611  -2.355  0.00  0.00    +0.129 C 
ENDROOT
BRANCH   5   6
ATOM      6  C   UNL     1      -2.123   7.715  -1.736  0.00  0.00    +0.069 A 
ATOM      7  C   UNL     1      -3.457   7.797  -1.960  0.00  0.00    +0.073 A 
ATOM      8  S   UNL     1      -3.866   9.248  -1.001  0.00  0.00    -0.061 S 
ATOM      9  C   UNL     1      -2.266   9.595  -0.422  0.00  0.00    +0.156 A 
ATOM     10  N   UNL     1      -1.557   8.626  -0.968  0.00  0.00    -0.228 NA
ATOM     11  N   UNL     1      -1.843  10.627   0.402  0.00  0.00    -0.338 N 
ATOM     12  H   UNL     1      -0.781  10.708   0.680  0.00  0.00    +0.144 HD
ATOM     13  H   UNL     1      -2.568  11.363   0.778  0.00  0.00    +0.144 HD
ENDBRANCH   5   6
BRANCH   1  14
ATOM     14  S   UNL     1      -0.078   5.874   0.031  0.00  0.00    +0.061 S 
ATOM     15  O   UNL     1      -1.323   6.261   0.595  0.00  0.00    -0.153 OA
ATOM     16  O   UNL     1       1.167   6.295   0.572  0.00  0.00    -0.153 OA
BRANCH  14  19
ATOM     17  C   UNL     1      -1.224   2.023   0.019  0.00  0.00    +0.040 A 
ATOM     18  C   UNL     1      -1.242   3.405   0.031  0.00  0.00    +0.031 A 
ATOM     19  C   UNL     1      -0.054   4.112   0.023  0.00  0.00    +0.106 A 
ATOM     20  C   UNL     1       1.153   3.438   0.009  0.00  0.00    +0.031 A 
ATOM     21  C   UNL     1       1.173   2.056   0.002  0.00  0.00    +0.040 A 
ATOM     22  C   UNL     1      -0.016   1.347   0.009  0.00  0.00    +0.124 A 
ATOM     23  F   UNL     1       0.002  -0.004   0.002  0.00  0.00    -0.205 F 
ENDBRANCH  14  19
ENDBRANCH   1  14
TORSDOF 3
