REMARK  Name = ZINC01135007
REMARK  5 active torsions:
REMARK  status: ('A' for Active; 'I' for Inactive)
REMARK    1  A    between atoms: C_1  and  C_2
REMARK    2  A    between atoms: C_5  and  C_8
REMARK    3  A    between atoms: C_13  and  C_23
REMARK    4  A    between atoms: C_26  and  N_29
REMARK    5  A    between atoms: C_30  and  C_32
REMARK                            x       y       z     vdW  Elec       q    Type
REMARK                         _______ _______ _______ _____ _____    ______ ____
ROOT
ATOM      1  C   UNL     1      -4.925   5.699  -1.473  0.00  0.00    +0.032 C 
ATOM      2  C   UNL     1      -4.259   4.387  -1.065  0.00  0.00    +0.059 C 
ATOM      3  C   UNL     1      -2.791   4.626  -0.752  0.00  0.00    +0.017 C 
ATOM      4  C   UNL     1      -2.100   5.568  -1.414  0.00  0.00    +0.036 C 
ATOM      5  C   UNL     1      -0.636   5.891  -1.225  0.00  0.00    +0.136 C 
ATOM      6  N   UNL     1      -0.035   5.277  -0.059  0.00  0.00    -0.331 N 
ATOM      7  C   UNL     1       0.081   3.893   0.046  0.00  0.00    +0.049 A 
ATOM      8  C   UNL     1       1.318   3.268   0.029  0.00  0.00    +0.025 A 
ATOM      9  C   UNL     1       1.383   1.887   0.074  0.00  0.00    +0.002 A 
ATOM     10  C   UNL     1       0.225   1.132   0.121  0.00  0.00    +0.002 A 
ATOM     11  C   UNL     1      -1.012   1.752   0.136  0.00  0.00    +0.025 A 
ATOM     12  C   UNL     1      -1.078   3.135   0.123  0.00  0.00    +0.052 A 
ATOM     13  N   UNL     1      -2.283   3.822   0.216  0.00  0.00    -0.316 N 
ATOM     14  C   UNL     1      -2.740   6.370  -2.388  0.00  0.00    +0.163 C 
ATOM     15  O   UNL     1      -2.086   7.204  -2.982  0.00  0.00    -0.292 OA
ATOM     16  C   UNL     1      -4.196   6.226  -2.715  0.00  0.00    +0.088 C 
ATOM     17  H   UNL     1       0.292   5.840   0.660  0.00  0.00    +0.147 HD
ATOM     18  H   UNL     1      -2.797   3.720   1.032  0.00  0.00    +0.152 HD
ENDROOT
BRANCH   1  23
ATOM     19  C   UNL     1     -10.491   4.767  -2.718  0.00  0.00    +0.044 C 
ATOM     20  C   UNL     1      -9.040   5.011  -2.394  0.00  0.00    -0.050 A 
ATOM     21  C   UNL     1      -8.694   5.910  -1.403  0.00  0.00    +0.003 A 
ATOM     22  C   UNL     1      -7.363   6.133  -1.105  0.00  0.00    +0.004 A 
ATOM     23  C   UNL     1      -6.377   5.456  -1.798  0.00  0.00    -0.043 A 
ATOM     24  C   UNL     1      -6.722   4.561  -2.793  0.00  0.00    +0.004 A 
ATOM     25  C   UNL     1      -8.053   4.335  -3.087  0.00  0.00    +0.003 A 
ENDBRANCH   1  23
BRANCH   5  26
ATOM     26  C   UNL     1       0.114   5.430  -2.448  0.00  0.00    -0.023 A 
ATOM     27  C   UNL     1       0.725   6.357  -3.272  0.00  0.00    +0.007 A 
ATOM     28  C   UNL     1       1.417   5.938  -4.391  0.00  0.00    +0.023 A 
ATOM     29  C   UNL     1       1.490   4.585  -4.694  0.00  0.00    +0.033 A 
ATOM     30  C   UNL     1       0.871   3.657  -3.868  0.00  0.00    +0.023 A 
ATOM     31  C   UNL     1       0.184   4.082  -2.747  0.00  0.00    +0.007 A 
BRANCH  29  32
ATOM     32  N   UNL     1       2.187   4.157  -5.830  0.00  0.00    -0.286 N 
ATOM     33  C   UNL     1       1.762   3.077  -6.514  0.00  0.00    +0.214 C 
ATOM     34  O   UNL     1       0.725   2.531  -6.203  0.00  0.00    -0.276 OA
ATOM     35  C   UNL     1       2.576   2.547  -7.667  0.00  0.00    +0.109 C 
ATOM     36  H   UNL     1       2.976   4.638  -6.125  0.00  0.00    +0.155 HD
ENDBRANCH  29  32
ENDBRANCH   5  26
TORSDOF 3
