REMARK  Name = ZINC39992789
REMARK  10 active torsions:
REMARK  status: ('A' for Active; 'I' for Inactive)
REMARK    1  A    between atoms: C_1  and  O_2
REMARK    2  A    between atoms: O_2  and  C_3
REMARK    3  A    between atoms: C_3  and  C_4
REMARK    4  A    between atoms: C_4  and  N_5
REMARK    5  A    between atoms: C_6  and  C_8
REMARK    6  A    between atoms: C_12  and  N_13
REMARK    7  A    between atoms: C_14  and  C_16
REMARK    8  A    between atoms: C_16  and  C_30
REMARK    9  A    between atoms: C_17  and  C_18
REMARK   10  A    between atoms: C_21  and  C_23
REMARK                            x       y       z     vdW  Elec       q    Type
REMARK                         _______ _______ _______ _____ _____    ______ ____
ROOT
ATOM      1  N   UNL     1       2.681  -4.174   1.833  0.00  0.00    -0.275 N 
ATOM      2  C   UNL     1       3.989  -4.340   2.109  0.00  0.00    +0.259 C 
ATOM      3  O   UNL     1       4.335  -4.716   3.214  0.00  0.00    -0.269 OA
ATOM      4  H   UNL     1       2.405  -3.874   0.953  0.00  0.00    +0.156 HD
ENDROOT
BRANCH   1   9
ATOM      5  C   UNL     1       0.351  -4.316   2.703  0.00  0.00    +0.069 A 
ATOM      6  C   UNL     1      -0.433  -4.654   3.878  0.00  0.00    -0.023 A 
ATOM      7  C   UNL     1       0.304  -5.040   4.942  0.00  0.00    -0.004 A 
ATOM      8  S   UNL     1       1.980  -4.950   4.383  0.00  0.00    -0.077 S 
ATOM      9  C   UNL     1       1.729  -4.431   2.807  0.00  0.00    +0.085 A 
ATOM     10  C   UNL     1      -0.206  -5.448   6.289  0.00  0.00    +0.043 C 
ATOM     11  C   UNL     1      -1.672  -5.003   6.405  0.00  0.00    +0.005 C 
ATOM     12  C   UNL     1      -2.421  -5.432   5.140  0.00  0.00    +0.005 C 
ATOM     13  C   UNL     1      -1.952  -4.596   3.948  0.00  0.00    +0.037 C 
BRANCH   5  15
ATOM     14  N   UNL     1      -0.515  -2.565   1.245  0.00  0.00    -0.309 N 
ATOM     15  C   UNL     1      -0.287  -3.876   1.459  0.00  0.00    +0.247 C 
ATOM     16  O   UNL     1      -0.611  -4.696   0.619  0.00  0.00    -0.270 OA
ATOM     17  H   UNL     1      -0.257  -1.913   1.914  0.00  0.00    +0.149 HD
BRANCH  14  18
ATOM     18  C   UNL     1      -1.154  -2.126   0.002  0.00  0.00    +0.132 C 
BRANCH  18  19
ATOM     19  C   UNL     1      -1.295  -0.603   0.011  0.00  0.00    +0.178 C 
BRANCH  19  21
ATOM     20  C   UNL     1      -0.017   1.425   0.010  0.00  0.00    +0.194 C 
ATOM     21  O   UNL     1       0.002  -0.004   0.002  0.00  0.00    -0.381 OA
ENDBRANCH  19  21
ENDBRANCH  18  19
ENDBRANCH  14  18
ENDBRANCH   5  15
ENDBRANCH   1   9
BRANCH   2  22
ATOM     22  C   UNL     1       4.997  -4.068   1.078  0.00  0.00    +0.117 C 
ATOM     23  C   UNL     1       6.345  -4.240   1.363  0.00  0.00    +0.070 C 
BRANCH  23  24
ATOM     24  C   UNL     1       7.309  -3.979   0.376  0.00  0.00    +0.130 A 
ATOM     25  C   UNL     1       8.682  -4.114   0.524  0.00  0.00    +0.050 A 
ATOM     26  C   UNL     1       9.256  -3.755  -0.695  0.00  0.00    +0.050 A 
ATOM     27  C   UNL     1       8.223  -3.414  -1.543  0.00  0.00    +0.136 A 
ATOM     28  O   UNL     1       7.061  -3.560  -0.884  0.00  0.00    -0.455 OA
BRANCH  27  29
ATOM     29  C   UNL     1       8.369  -2.968  -2.942  0.00  0.00    +0.019 A 
ATOM     30  C   UNL     1       9.639  -2.866  -3.517  0.00  0.00    +0.011 A 
ATOM     31  C   UNL     1       9.769  -2.449  -4.825  0.00  0.00    +0.002 A 
ATOM     32  C   UNL     1       8.645  -2.131  -5.568  0.00  0.00    +0.020 A 
ATOM     33  C   UNL     1       7.384  -2.229  -5.005  0.00  0.00    +0.042 A 
ATOM     34  C   UNL     1       7.239  -2.650  -3.699  0.00  0.00    +0.031 A 
ATOM     35 CL   UNL     1       5.982  -1.827  -5.947  0.00  0.00    -0.084 Cl
ENDBRANCH  27  29
ENDBRANCH  23  24
BRANCH  22  36
ATOM     36  C   UNL     1       4.590  -3.626  -0.222  0.00  0.00    +0.104 C 
ATOM     37  N   UNL     1       4.267  -3.275  -1.253  0.00  0.00    -0.191 NA
ENDBRANCH  22  36
ENDBRANCH   2  22
TORSDOF 9
