REMARK  Name = ZINC09713250
REMARK  9 active torsions:
REMARK  status: ('A' for Active; 'I' for Inactive)
REMARK    1  A    between atoms: C_1  and  C_2
REMARK    2  A    between atoms: C_4  and  C_33
REMARK    3  A    between atoms: C_6  and  N_8
REMARK    4  A    between atoms: C_9  and  C_27
REMARK    5  A    between atoms: N_18  and  C_23
REMARK    6  A    between atoms: N_21  and  C_22
REMARK    7  A    between atoms: C_23  and  C_24
REMARK    8  A    between atoms: C_24  and  C_25
REMARK    9  A    between atoms: C_25  and  O_26
REMARK                            x       y       z     vdW  Elec       q    Type
REMARK                         _______ _______ _______ _____ _____    ______ ____
ROOT
ATOM      1  N   UNL     1       3.788   3.545  -0.017  0.00  0.00    -0.278 N 
ATOM      2  C   UNL     1       3.666   2.168   0.129  0.00  0.00    +0.074 A 
ATOM      3  C   UNL     1       4.897   1.634   0.063  0.00  0.00    +0.121 A 
ATOM      4  N   UNL     1       5.804   2.656  -0.132  0.00  0.00    -0.277 N 
ATOM      5  C   UNL     1       5.121   3.831  -0.178  0.00  0.00    +0.223 A 
ATOM      6  N   UNL     1       5.978   4.825  -0.360  0.00  0.00    -0.193 NA
ATOM      7  C   UNL     1       7.217   4.349  -0.438  0.00  0.00    +0.170 A 
ATOM      8  C   UNL     1       7.146   2.964  -0.296  0.00  0.00    +0.157 A 
ATOM      9  C   UNL     1       8.330   2.208  -0.341  0.00  0.00    +0.283 A 
ATOM     10  O   UNL     1       8.291   0.996  -0.219  0.00  0.00    -0.265 OA
ATOM     11  N   UNL     1       9.509   2.838  -0.519  0.00  0.00    -0.259 N 
ATOM     12  C   UNL     1       9.568   4.174  -0.655  0.00  0.00    +0.333 A 
ATOM     13  O   UNL     1      10.650   4.706  -0.814  0.00  0.00    -0.246 OA
ATOM     14  N   UNL     1       8.460   4.938  -0.619  0.00  0.00    -0.279 N 
ATOM     15  C   UNL     1       8.566   6.391  -0.771  0.00  0.00    +0.155 C 
ENDROOT
BRANCH   1  21
ATOM     16  C   UNL     1      -0.230   5.426  -2.137  0.00  0.00    +0.044 C 
ATOM     17  C   UNL     1       0.779   5.407  -1.018  0.00  0.00    -0.048 A 
ATOM     18  C   UNL     1       0.669   6.308   0.026  0.00  0.00    +0.006 A 
ATOM     19  C   UNL     1       1.593   6.294   1.055  0.00  0.00    -0.048 A 
ATOM     20  C   UNL     1       2.627   5.379   1.044  0.00  0.00    +0.029 A 
ATOM     21  C   UNL     1       2.740   4.473  -0.003  0.00  0.00    +0.050 A 
ATOM     22  C   UNL     1       1.815   4.493  -1.038  0.00  0.00    +0.029 A 
ATOM     23  C   UNL     1       1.470   7.277   2.190  0.00  0.00    +0.044 C 
ENDBRANCH   1  21
BRANCH   2  24
ATOM     24  C   UNL     1       2.403   1.423   0.328  0.00  0.00    +0.000 A 
ATOM     25  C   UNL     1       2.346   0.056   0.054  0.00  0.00    +0.010 A 
ATOM     26  C   UNL     1       1.166  -0.633   0.242  0.00  0.00    +0.001 A 
ATOM     27  C   UNL     1       0.041   0.028   0.701  0.00  0.00    +0.000 A 
ATOM     28  C   UNL     1       0.090   1.383   0.974  0.00  0.00    +0.001 A 
ATOM     29  C   UNL     1       1.265   2.084   0.790  0.00  0.00    +0.010 A 
ENDBRANCH   2  24
BRANCH  11  30
ATOM     30  C   UNL     1      10.745   2.053  -0.566  0.00  0.00    +0.132 C 
BRANCH  30  31
ATOM     31  C   UNL     1      11.034   1.642  -2.011  0.00  0.00    +0.049 C 
BRANCH  31  32
ATOM     32  C   UNL     1      12.325   0.822  -2.060  0.00  0.00    +0.157 C 
BRANCH  32  33
ATOM     33  O   UNL     1      12.594   0.438  -3.409  0.00  0.00    -0.395 OA
ATOM     34  H   UNL     1      13.400  -0.086  -3.516  0.00  0.00    +0.209 HD
ENDBRANCH  32  33
ENDBRANCH  31  32
ENDBRANCH  30  31
ENDBRANCH  11  30
TORSDOF 6
