REMARK  Name = ZINC36206317
REMARK  16 active torsions:
REMARK  status: ('A' for Active; 'I' for Inactive)
REMARK    1  A    between atoms: C_1  and  C_2
REMARK    2  A    between atoms: C_2  and  C_3
REMARK    3  A    between atoms: C_3  and  N_4
REMARK    4  A    between atoms: N_4  and  C_5
REMARK    5  A    between atoms: N_4  and  C_25
REMARK    6  A    between atoms: C_5  and  C_6
REMARK    7  A    between atoms: C_12  and  C_17
REMARK    8  A    between atoms: C_20  and  O_23
REMARK    9  A    between atoms: O_23  and  C_24
REMARK   10  A    between atoms: C_25  and  C_26
REMARK   11  A    between atoms: C_26  and  C_28
REMARK   12  A    between atoms: C_26  and  O_33
REMARK   13  A    between atoms: C_28  and  O_29
REMARK   14  A    between atoms: O_29  and  C_30
REMARK   15  A    between atoms: C_30  and  C_31
REMARK   16  A    between atoms: C_30  and  C_32
REMARK                            x       y       z     vdW  Elec       q    Type
REMARK                         _______ _______ _______ _____ _____    ______ ____
ROOT
ATOM      1  C   UNL     1       0.839  -2.354   1.205  0.00  0.00    +0.094 A 
ATOM      2  N   UNL     1       1.564  -2.869   2.231  0.00  0.00    -0.312 N 
ATOM      3  H   UNL     1       1.133  -3.455   2.872  0.00  0.00    +0.170 HD
ATOM      4  C   UNL     1       2.871  -2.582   2.376  0.00  0.00    +0.260 A 
ATOM      5  O   UNL     1       3.509  -3.052   3.302  0.00  0.00    -0.267 OA
ATOM      6  C   UNL     1       3.501  -1.716   1.425  0.00  0.00    +0.080 A 
ATOM      7  C   UNL     1       4.885  -1.261   1.367  0.00  0.00    +0.004 A 
ATOM      8  C   UNL     1       5.256  -0.433   0.361  0.00  0.00    +0.056 A 
ATOM      9  S   UNL     1       3.753  -0.216  -0.572  0.00  0.00    -0.076 S 
ATOM     10  C   UNL     1       2.671  -1.232   0.400  0.00  0.00    +0.116 A 
ATOM     11  N   UNL     1       1.386  -1.565   0.320  0.00  0.00    -0.229 NA
ENDROOT
BRANCH   7  12
ATOM     12  C   UNL     1       5.867  -1.696   2.389  0.00  0.00    -0.016 A 
ATOM     13  C   UNL     1       5.558  -1.591   3.744  0.00  0.00    +0.012 A 
ATOM     14  C   UNL     1       6.473  -1.998   4.692  0.00  0.00    +0.046 A 
ATOM     15  C   UNL     1       7.702  -2.511   4.298  0.00  0.00    +0.120 A 
ATOM     16  C   UNL     1       8.013  -2.616   2.949  0.00  0.00    +0.046 A 
ATOM     17  C   UNL     1       7.099  -2.217   1.996  0.00  0.00    +0.012 A 
BRANCH  15  18
ATOM     18  O   UNL     1       8.602  -2.910   5.235  0.00  0.00    -0.495 OA
ATOM     19  C   UNL     1       9.846  -3.428   4.760  0.00  0.00    +0.277 C 
ENDBRANCH  15  18
ENDBRANCH   7  12
BRANCH   1  20
ATOM     20  C   UNL     1      -0.622  -2.704   1.083  0.00  0.00    -0.003 C 
BRANCH  20  21
ATOM     21  N   UNL     1      -1.223  -1.924  -0.007  0.00  0.00    +0.386 N 
ATOM     22  H   UNL     1      -0.689  -2.061  -0.852  0.00  0.00    -0.081 HD
BRANCH  21  23
ATOM     23  C   UNL     1      -1.219  -0.499   0.350  0.00  0.00    -0.078 C 
BRANCH  23  25
ATOM     24  C   UNL     1      -2.030   1.183   2.010  0.00  0.00    +0.002 C 
ATOM     25  C   UNL     1      -2.141  -0.272   1.550  0.00  0.00    -0.022 C 
ENDBRANCH  23  25
ENDBRANCH  21  23
BRANCH  21  26
ATOM     26  C   UNL     1      -2.606  -2.371  -0.224  0.00  0.00    -0.044 C 
BRANCH  26  27
ATOM     27  C   UNL     1      -3.173  -1.686  -1.469  0.00  0.00    +0.124 C 
BRANCH  27  28
ATOM     28  O   UNL     1      -3.300  -0.283  -1.225  0.00  0.00    -0.391 OA
ATOM     29  H   UNL     1      -3.885  -0.064  -0.486  0.00  0.00    +0.210 HD
ENDBRANCH  27  28
BRANCH  27  30
ATOM     30  C   UNL     1      -4.548  -2.274  -1.793  0.00  0.00    +0.189 C 
BRANCH  30  31
ATOM     31  O   UNL     1      -5.027  -1.718  -3.019  0.00  0.00    -0.375 OA
BRANCH  31  32
ATOM     32  C   UNL     1      -6.312  -2.204  -3.414  0.00  0.00    +0.112 C 
ATOM     33  C   UNL     1      -7.044  -1.121  -4.209  0.00  0.00    +0.037 C 
ATOM     34  C   UNL     1      -6.140  -3.449  -4.287  0.00  0.00    +0.037 C 
ENDBRANCH  31  32
ENDBRANCH  30  31
ENDBRANCH  27  30
ENDBRANCH  26  27
ENDBRANCH  21  26
ENDBRANCH  20  21
ENDBRANCH   1  20
TORSDOF 12
