REMARK  Name = ZINC12343510
REMARK  4 active torsions:
REMARK  status: ('A' for Active; 'I' for Inactive)
REMARK    1  A    between atoms: C_4  and  N_7
REMARK    2  A    between atoms: N_10  and  C_11
REMARK    3  A    between atoms: C_17  and  N_19
REMARK    4  A    between atoms: N_22  and  C_23
REMARK                            x       y       z     vdW  Elec       q    Type
REMARK                         _______ _______ _______ _____ _____    ______ ____
ROOT
ATOM      1  C   UNL     1      -3.224   0.534   6.005  0.00  0.00    +0.095 C 
ATOM      2  C   UNL     1      -4.252  -0.598   6.041  0.00  0.00    +0.024 C 
ATOM      3  C   UNL     1      -5.662  -0.010   5.943  0.00  0.00    +0.002 C 
ATOM      4  C   UNL     1      -5.903   0.936   7.121  0.00  0.00    +0.002 C 
ATOM      5  C   UNL     1      -4.875   2.068   7.085  0.00  0.00    +0.024 C 
ATOM      6  C   UNL     1      -3.465   1.480   7.183  0.00  0.00    +0.095 C 
ENDROOT
BRANCH   1  10
ATOM      7  N   UNL     1      -2.850   1.522   2.483  0.00  0.00    -0.297 N 
ATOM      8  C   UNL     1      -2.727   0.841   3.639  0.00  0.00    +0.300 C 
ATOM      9  O   UNL     1      -2.047  -0.166   3.682  0.00  0.00    -0.253 OA
ATOM     10  N   UNL     1      -3.358   1.275   4.748  0.00  0.00    -0.295 N 
ATOM     11  H   UNL     1      -3.465   2.433   2.444  0.00  0.00    +0.151 HD
ATOM     12  H   UNL     1      -3.973   2.186   4.710  0.00  0.00    +0.151 HD
BRANCH   7  16
ATOM     13  C   UNL     1      -0.753   1.593  -1.232  0.00  0.00    +0.000 C 
ATOM     14  C   UNL     1      -0.013   1.086   0.008  0.00  0.00    +0.002 C 
ATOM     15  C   UNL     1      -0.729   1.579   1.267  0.00  0.00    +0.022 C 
ATOM     16  C   UNL     1      -2.164   1.050   1.278  0.00  0.00    +0.074 C 
ATOM     17  C   UNL     1      -2.904   1.556   0.038  0.00  0.00    +0.022 C 
ATOM     18  C   UNL     1      -2.188   1.063  -1.221  0.00  0.00    +0.002 C 
ENDBRANCH   7  16
ENDBRANCH   1  10
BRANCH   6  19
ATOM     19  N   UNL     1      -2.481   2.565   7.148  0.00  0.00    -0.295 N 
ATOM     20  C   UNL     1      -2.150   3.212   8.283  0.00  0.00    +0.300 C 
ATOM     21  O   UNL     1      -2.669   2.896   9.336  0.00  0.00    -0.253 OA
ATOM     22  N   UNL     1      -1.244   4.209   8.251  0.00  0.00    -0.297 N 
ATOM     23  H   UNL     1      -2.011   2.851   6.195  0.00  0.00    +0.151 HD
ATOM     24  H   UNL     1      -0.775   4.495   7.298  0.00  0.00    +0.151 HD
BRANCH  22  25
ATOM     25  C   UNL     1      -0.885   4.912   9.485  0.00  0.00    +0.074 C 
ATOM     26  C   UNL     1      -1.893   6.034   9.745  0.00  0.00    +0.022 C 
ATOM     27  C   UNL     1      -1.518   6.768  11.033  0.00  0.00    +0.002 C 
ATOM     28  C   UNL     1      -0.117   7.365  10.891  0.00  0.00    +0.000 C 
ATOM     29  C   UNL     1       0.891   6.244  10.631  0.00  0.00    +0.002 C 
ATOM     30  C   UNL     1       0.516   5.510   9.342  0.00  0.00    +0.022 C 
ENDBRANCH  22  25
ENDBRANCH   6  19
TORSDOF 4
