REMARK  Name = ZINC17180530
REMARK  7 active torsions:
REMARK  status: ('A' for Active; 'I' for Inactive)
REMARK    1  A    between atoms: C_1  and  C_2
REMARK    2  A    between atoms: C_18  and  C_19
REMARK    3  A    between atoms: C_18  and  N_59
REMARK    4  A    between atoms: N_21  and  N_22
REMARK    5  A    between atoms: C_23  and  C_24
REMARK    6  A    between atoms: C_27  and  O_30
REMARK    7  A    between atoms: O_30  and  C_31
REMARK                            x       y       z     vdW  Elec       q    Type
REMARK                         _______ _______ _______ _____ _____    ______ ____
ROOT
ATOM      1  C   UNL     1      -1.084  -1.357   0.847  0.00  0.00    +0.044 C 
ATOM      2  C   UNL     1       0.237  -0.639   0.750  0.00  0.00    -0.050 A 
ATOM      3  C   UNL     1       0.275   0.624   0.182  0.00  0.00    +0.005 A 
ATOM      4  C   UNL     1       1.450   1.343   0.062  0.00  0.00    +0.026 A 
ATOM      5  C   UNL     1       2.615   0.745   0.538  0.00  0.00    +0.049 A 
ATOM      6  C   UNL     1       2.572  -0.558   1.120  0.00  0.00    +0.003 A 
ATOM      7  C   UNL     1       1.365  -1.257   1.228  0.00  0.00    +0.013 A 
ATOM      8  C   UNL     1       3.925  -0.871   1.493  0.00  0.00    -0.020 A 
ATOM      9  C   UNL     1       4.676   0.188   1.133  0.00  0.00    +0.009 A 
ATOM     10  N   UNL     1       3.908   1.172   0.577  0.00  0.00    -0.347 N 
ATOM     11  C   UNL     1       4.498   2.451   0.151  0.00  0.00    +0.103 C 
ATOM     12  C   UNL     1       6.019   2.273   0.072  0.00  0.00    -0.055 C 
ATOM     13  C   UNL     1       6.170   0.225   1.363  0.00  0.00    -0.020 C 
ATOM     14  C   UNL     1       6.450  -0.340   2.746  0.00  0.00    -0.009 C 
ATOM     15  C   UNL     1       5.617  -1.526   3.164  0.00  0.00    +0.003 C 
ATOM     16  C   UNL     1       4.592  -2.040   2.163  0.00  0.00    +0.037 C 
ATOM     17  N   UNL     1       6.536   1.664   1.315  0.00  0.00    +0.392 N 
ATOM     18  H   UNL     1       6.117   2.143   2.121  0.00  0.00    -0.080 HD
ENDROOT
BRANCH  17  19
ATOM     19  C   UNL     1       8.006   1.814   1.378  0.00  0.00    +0.021 C 
BRANCH  19  20
ATOM     20  C   UNL     1       8.340   3.273   1.552  0.00  0.00    +0.216 C 
ATOM     21  O   UNL     1       7.451   4.097   1.601  0.00  0.00    -0.276 OA
ATOM     22  N   UNL     1       9.627   3.663   1.652  0.00  0.00    -0.209 N 
ATOM     23  H   UNL     1      10.337   3.004   1.612  0.00  0.00    +0.177 HD
BRANCH  22  24
ATOM     24  N   UNL     1       9.937   5.019   1.814  0.00  0.00    -0.188 NA
ATOM     25  C   UNL     1      11.175   5.409   1.792  0.00  0.00    +0.138 C 
BRANCH  25  26
ATOM     26  C   UNL     1      12.200   4.570   1.145  0.00  0.00    -0.005 A 
ATOM     27  C   UNL     1      13.556   4.836   1.352  0.00  0.00    +0.013 A 
ATOM     28  C   UNL     1      14.511   4.046   0.750  0.00  0.00    +0.046 A 
ATOM     29  C   UNL     1      14.128   2.994  -0.071  0.00  0.00    +0.120 A 
ATOM     30  C   UNL     1      12.781   2.729  -0.285  0.00  0.00    +0.046 A 
ATOM     31  C   UNL     1      11.819   3.510   0.318  0.00  0.00    +0.013 A 
BRANCH  29  32
ATOM     32  O   UNL     1      15.072   2.221  -0.667  0.00  0.00    -0.495 OA
ATOM     33  C   UNL     1      16.439   2.548  -0.405  0.00  0.00    +0.277 C 
ENDBRANCH  29  32
ENDBRANCH  25  26
ENDBRANCH  22  24
ENDBRANCH  19  20
ENDBRANCH  17  19
TORSDOF 5
