REMARK  Name = ZINC08531627
REMARK  10 active torsions:
REMARK  status: ('A' for Active; 'I' for Inactive)
REMARK    1  A    between atoms: C_1  and  C_2
REMARK    2  A    between atoms: C_2  and  C_4
REMARK    3  A    between atoms: C_2  and  N_12
REMARK    4  A    between atoms: N_12  and  C_13
REMARK    5  A    between atoms: C_13  and  C_15
REMARK    6  A    between atoms: C_13  and  C_16
REMARK    7  A    between atoms: N_18  and  C_19
REMARK    8  A    between atoms: C_22  and  O_28
REMARK    9  A    between atoms: C_24  and  N_25
REMARK   10  A    between atoms: O_28  and  C_29
REMARK                            x       y       z     vdW  Elec       q    Type
REMARK                         _______ _______ _______ _____ _____    ______ ____
ROOT
ATOM      1  C   UNL     1      -0.143   0.112  -2.415  0.00  0.00    +0.014 C 
ATOM      2  C   UNL     1       0.339   1.563  -2.356  0.00  0.00    -0.004 C 
ENDROOT
BRANCH   1   3
ATOM      3  C   UNL     1       0.402  -0.548  -3.655  0.00  0.00    +0.203 C 
ATOM      4  O   UNL     1       1.116  -1.524  -3.559  0.00  0.00    -0.277 OA
ATOM      5  N   UNL     1       0.097  -0.054  -4.871  0.00  0.00    -0.285 N 
ATOM      6  H   UNL     1      -0.435   0.754  -4.947  0.00  0.00    +0.155 HD
BRANCH   5   7
ATOM      7  C   UNL     1       0.547  -0.707  -6.026  0.00  0.00    +0.064 A 
ATOM      8  C   UNL     1       1.831  -1.235  -6.070  0.00  0.00    +0.029 A 
ATOM      9  C   UNL     1       2.273  -1.879  -7.208  0.00  0.00    +0.047 A 
ATOM     10  C   UNL     1       1.437  -1.998  -8.309  0.00  0.00    +0.122 A 
ATOM     11  C   UNL     1       0.154  -1.470  -8.265  0.00  0.00    +0.080 A 
ATOM     12  C   UNL     1      -0.292  -0.832  -7.125  0.00  0.00    +0.151 A 
BRANCH  12  13
ATOM     13  N   UNL     1      -1.663  -0.275  -7.077  0.00  0.00    +0.058 N 
ATOM     14  O   UNL     1      -2.412  -0.432  -8.012  0.00  0.00    -0.126 OA
ATOM     15  O   UNL     1      -2.033   0.337  -6.102  0.00  0.00    -0.126 OA
ENDBRANCH  12  13
BRANCH  10  16
ATOM     16  O   UNL     1       1.874  -2.631  -9.430  0.00  0.00    -0.495 OA
ATOM     17  C   UNL     1       3.205  -3.149  -9.405  0.00  0.00    +0.277 C 
ENDBRANCH  10  16
ENDBRANCH   5   7
ENDBRANCH   1   3
BRANCH   1  18
ATOM     18  N   UNL     1       0.332  -0.610  -1.227  0.00  0.00    +0.391 N 
ATOM     19  H   UNL     1       1.332  -0.502  -1.145  0.00  0.00    -0.084 HD
ATOM     20  H   UNL     1       0.106  -1.589  -1.316  0.00  0.00    -0.084 HD
BRANCH  18  22
ATOM     21  C   UNL     1       0.290  -0.704   1.220  0.00  0.00    -0.009 C 
ATOM     22  C   UNL     1      -0.320  -0.064  -0.029  0.00  0.00    -0.042 C 
BRANCH  22  23
ATOM     23  C   UNL     1      -1.795  -0.364  -0.079  0.00  0.00    -0.043 A 
ATOM     24  C   UNL     1      -2.256  -1.447  -0.805  0.00  0.00    +0.005 A 
ATOM     25  C   UNL     1      -3.609  -1.723  -0.851  0.00  0.00    +0.020 A 
ATOM     26  C   UNL     1      -4.504  -0.917  -0.169  0.00  0.00    +0.042 A 
ATOM     27  C   UNL     1      -4.044   0.166   0.558  0.00  0.00    +0.040 A 
ATOM     28  C   UNL     1      -2.688   0.439   0.607  0.00  0.00    +0.044 A 
ATOM     29 CL   UNL     1      -2.109   1.794   1.525  0.00  0.00    -0.083 Cl
ATOM     30 CL   UNL     1      -6.204  -1.264  -0.227  0.00  0.00    -0.083 Cl
ENDBRANCH  22  23
ENDBRANCH  18  22
ENDBRANCH   1  18
TORSDOF 7
