REMARK  Name = ZINC04396151
REMARK  5 active torsions:
REMARK  status: ('A' for Active; 'I' for Inactive)
REMARK    1  A    between atoms: C_1  and  N_2
REMARK    2  A    between atoms: N_10  and  C_13
REMARK    3  A    between atoms: N_18  and  C_32
REMARK    4  A    between atoms: N_21  and  C_24
REMARK    5  A    between atoms: C_24  and  C_25
REMARK                            x       y       z     vdW  Elec       q    Type
REMARK                         _______ _______ _______ _____ _____    ______ ____
ROOT
ATOM      1  C   UNL     1      -2.523   1.669   0.022  0.00  0.00    +0.152 C 
ATOM      2  N   UNL     1      -1.137   2.142   0.018  0.00  0.00    -0.309 N 
ATOM      3  C   UNL     1      -0.712   3.464   0.028  0.00  0.00    +0.153 A 
ATOM      4  C   UNL     1       0.678   3.429   0.014  0.00  0.00    +0.170 A 
ATOM      5  N   UNL     1       1.048   2.148   0.004  0.00  0.00    -0.196 NA
ATOM      6  C   UNL     1      -0.017   1.372   0.010  0.00  0.00    +0.201 A 
ATOM      7  N   UNL     1       0.002  -0.004   0.002  0.00  0.00    -0.298 N 
ATOM      8  C   UNL     1      -0.744  -0.547   1.146  0.00  0.00    +0.127 C 
ATOM      9  C   UNL     1      -0.766  -2.075   1.058  0.00  0.00    +0.125 C 
ATOM     10  N   UNL     1       0.613  -2.583   1.042  0.00  0.00    -0.314 N 
ATOM     11  C   UNL     1       1.358  -2.040  -0.102  0.00  0.00    +0.125 C 
ATOM     12  C   UNL     1       1.381  -0.512  -0.013  0.00  0.00    +0.127 C 
ATOM     13  N   UNL     1       1.376   4.626   0.014  0.00  0.00    -0.279 N 
ATOM     14  C   UNL     1       0.709   5.796   0.026  0.00  0.00    +0.334 A 
ATOM     15  O   UNL     1       1.337   6.837   0.026  0.00  0.00    -0.246 OA
ATOM     16  N   UNL     1      -0.635   5.841   0.039  0.00  0.00    -0.255 N 
ATOM     17  C   UNL     1      -1.368   4.708   0.040  0.00  0.00    +0.283 A 
ATOM     18  O   UNL     1      -2.585   4.763   0.051  0.00  0.00    -0.265 OA
ATOM     19  C   UNL     1       2.841   4.620  -0.001  0.00  0.00    +0.155 C 
ENDROOT
BRANCH  10  20
ATOM     20  C   UNL     1       0.631  -3.973   1.035  0.00  0.00    +0.099 A 
ATOM     21  C   UNL     1      -0.022  -4.677   2.041  0.00  0.00    +0.042 A 
ATOM     22  C   UNL     1       0.004  -6.059   2.021  0.00  0.00    +0.005 A 
ATOM     23  C   UNL     1       0.687  -6.694   0.992  0.00  0.00    +0.018 A 
ATOM     24  C   UNL     1       1.313  -5.933   0.026  0.00  0.00    +0.084 A 
ATOM     25  N   UNL     1       1.303  -4.573   0.010  0.00  0.00    -0.350 N 
ATOM     26  H   UNL     1       1.770  -4.033  -0.727  0.00  0.00    +0.166 HD
ENDBRANCH  10  20
BRANCH  16  27
ATOM     27  C   UNL     1      -1.313   7.139   0.053  0.00  0.00    +0.165 C 
BRANCH  27  28
ATOM     28  C   UNL     1      -1.559   7.592  -1.363  0.00  0.00    -0.027 A 
ATOM     29  C   UNL     1      -0.613   8.359  -2.018  0.00  0.00    +0.006 A 
ATOM     30  C   UNL     1      -0.836   8.771  -3.318  0.00  0.00    +0.015 A 
ATOM     31  C   UNL     1      -2.010   8.424  -3.962  0.00  0.00    +0.018 A 
ATOM     32  C   UNL     1      -2.959   7.661  -3.305  0.00  0.00    +0.015 A 
ATOM     33  C   UNL     1      -2.733   7.245  -2.006  0.00  0.00    +0.006 A 
ATOM     34 BR   UNL     1      -2.318   8.993  -5.738  0.00  0.00    -0.050 Br
ENDBRANCH  27  28
ENDBRANCH  16  27
TORSDOF 3
