REMARK  Name = ZINC09547013
REMARK  6 active torsions:
REMARK  status: ('A' for Active; 'I' for Inactive)
REMARK    1  A    between atoms: C_3  and  C_17
REMARK    2  A    between atoms: N_6  and  C_8
REMARK    3  A    between atoms: C_8  and  C_9
REMARK    4  A    between atoms: N_19  and  C_20
REMARK    5  A    between atoms: C_23  and  N_28
REMARK    6  A    between atoms: C_25  and  C_26
REMARK                            x       y       z     vdW  Elec       q    Type
REMARK                         _______ _______ _______ _____ _____    ______ ____
ROOT
ATOM      1  C   UNL     1       3.104   1.742  -3.520  0.00  0.00    +0.019 A 
ATOM      2  C   UNL     1       2.525   0.552  -3.961  0.00  0.00    +0.020 A 
ATOM      3  C   UNL     1       2.129  -0.395  -3.019  0.00  0.00    +0.101 A 
ATOM      4  C   UNL     1       2.333  -0.117  -1.642  0.00  0.00    +0.264 A 
ATOM      5  O   UNL     1       2.000  -0.931  -0.799  0.00  0.00    -0.267 OA
ATOM      6  N   UNL     1       2.892   1.050  -1.271  0.00  0.00    -0.310 N 
ATOM      7  C   UNL     1       3.275   1.966  -2.192  0.00  0.00    +0.089 A 
ENDROOT
BRANCH   3   8
ATOM      8  C   UNL     1       1.515  -1.661  -3.444  0.00  0.00    +0.254 C 
ATOM      9  O   UNL     1       1.450  -1.939  -4.627  0.00  0.00    -0.270 OA
ATOM     10  N   UNL     1       1.024  -2.515  -2.523  0.00  0.00    -0.280 N 
ATOM     11  H   UNL     1       1.103  -2.307  -1.579  0.00  0.00    +0.155 HD
BRANCH  10  12
ATOM     12  C   UNL     1       0.403  -3.694  -2.928  0.00  0.00    +0.051 A 
ATOM     13  C   UNL     1       0.712  -4.259  -4.158  0.00  0.00    +0.027 A 
ATOM     14  C   UNL     1       0.096  -5.428  -4.556  0.00  0.00    +0.034 A 
ATOM     15  C   UNL     1      -0.833  -6.046  -3.736  0.00  0.00    +0.128 A 
ATOM     16  C   UNL     1      -1.153  -5.500  -2.511  0.00  0.00    +0.053 A 
ATOM     17  C   UNL     1      -0.533  -4.320  -2.091  0.00  0.00    +0.075 A 
BRANCH  15  18
ATOM     18  N   UNL     1      -1.486  -7.300  -4.175  0.00  0.00    +0.056 N 
ATOM     19  O   UNL     1      -1.205  -7.786  -5.257  0.00  0.00    -0.126 OA
ATOM     20  O   UNL     1      -2.303  -7.846  -3.456  0.00  0.00    -0.126 OA
ENDBRANCH  15  18
BRANCH  17  21
ATOM     21  C   UNL     1      -0.856  -3.751  -0.818  0.00  0.00    +0.101 C 
ATOM     22  N   UNL     1      -1.112  -3.299   0.193  0.00  0.00    -0.191 NA
ENDBRANCH  17  21
ENDBRANCH  10  12
ENDBRANCH   3   8
BRANCH   6  23
ATOM     23  C   UNL     1       3.094   1.332   0.152  0.00  0.00    +0.161 C 
BRANCH  23  24
ATOM     24  C   UNL     1       1.936   2.144   0.673  0.00  0.00    -0.009 A 
ATOM     25  C   UNL     1       0.891   2.476  -0.168  0.00  0.00    +0.008 A 
ATOM     26  C   UNL     1      -0.171   3.221   0.308  0.00  0.00    +0.020 A 
ATOM     27  C   UNL     1      -0.189   3.635   1.629  0.00  0.00    +0.042 A 
ATOM     28  C   UNL     1       0.854   3.298   2.473  0.00  0.00    +0.040 A 
ATOM     29  C   UNL     1       1.919   2.557   1.994  0.00  0.00    +0.047 A 
ATOM     30 CL   UNL     1       3.232   2.140   3.050  0.00  0.00    -0.083 Cl
ATOM     31 CL   UNL     1      -1.523   4.571   2.228  0.00  0.00    -0.083 Cl
ENDBRANCH  23  24
ENDBRANCH   6  23
TORSDOF 6
