REMARK  Name = ZINC63920209
REMARK  9 active torsions:
REMARK  status: ('A' for Active; 'I' for Inactive)
REMARK    1  A    between atoms: C_1  and  O_2
REMARK    2  A    between atoms: O_2  and  C_3
REMARK    3  A    between atoms: C_6  and  S_31
REMARK    4  A    between atoms: C_8  and  C_9
REMARK    5  A    between atoms: N_11  and  C_12
REMARK    6  A    between atoms: C_12  and  C_13
REMARK    7  A    between atoms: C_13  and  C_15
REMARK    8  A    between atoms: C_13  and  C_22
REMARK    9  A    between atoms: S_31  and  N_34
REMARK                            x       y       z     vdW  Elec       q    Type
REMARK                         _______ _______ _______ _____ _____    ______ ____
ROOT
ATOM      1  C   UNL     1      -0.485  -4.983  -0.966  0.00  0.00    +0.117 C 
ENDROOT
BRANCH   1   4
ATOM      2  C   UNL     1       0.067  -2.830   0.032  0.00  0.00    +0.248 C 
ATOM      3  O   UNL     1      -0.492  -2.287  -0.900  0.00  0.00    -0.270 OA
ATOM      4  N   UNL     1       0.126  -4.175   0.093  0.00  0.00    -0.310 N 
ATOM      5  H   UNL     1       0.572  -4.608   0.837  0.00  0.00    +0.149 HD
BRANCH   2  11
ATOM      6  C   UNL     1       0.625  -0.617   1.040  0.00  0.00    +0.132 A 
ATOM      7  C   UNL     1       1.202   0.138   2.050  0.00  0.00    +0.048 A 
ATOM      8  C   UNL     1       1.835  -0.488   3.105  0.00  0.00    +0.032 A 
ATOM      9  C   UNL     1       1.900  -1.871   3.164  0.00  0.00    +0.106 A 
ATOM     10  C   UNL     1       1.332  -2.636   2.169  0.00  0.00    +0.045 A 
ATOM     11  C   UNL     1       0.683  -2.016   1.098  0.00  0.00    +0.080 A 
BRANCH   9  12
ATOM     12  S   UNL     1       2.714  -2.654   4.516  0.00  0.00    +0.056 S 
ATOM     13  O   UNL     1       3.113  -3.939   4.061  0.00  0.00    -0.153 OA
ATOM     14  O   UNL     1       3.639  -1.709   5.037  0.00  0.00    -0.153 OA
BRANCH  12  15
ATOM     15  N   UNL     1       1.577  -2.902   5.694  0.00  0.00    -0.204 NA
ATOM     16  H   UNL     1       1.661  -3.655   6.299  0.00  0.00    +0.144 HD
ATOM     17  H   UNL     1       0.826  -2.293   5.780  0.00  0.00    +0.144 HD
ENDBRANCH  12  15
ENDBRANCH   9  12
BRANCH   6  19
ATOM     18  C   UNL     1      -0.017   1.425   0.010  0.00  0.00    +0.277 C 
ATOM     19  O   UNL     1       0.002  -0.004   0.002  0.00  0.00    -0.494 OA
ENDBRANCH   6  19
ENDBRANCH   2  11
ENDBRANCH   1   4
BRANCH   1  20
ATOM     20  C   UNL     1      -0.279  -6.467  -0.658  0.00  0.00    +0.066 C 
BRANCH  20  21
ATOM     21  C   UNL     1      -1.012  -7.298  -1.679  0.00  0.00    -0.033 C 
ATOM     22  C   UNL     1      -2.003  -8.188  -1.444  0.00  0.00    -0.000 A 
ATOM     23  C   UNL     1      -2.670  -8.631  -0.214  0.00  0.00    +0.010 A 
ATOM     24  C   UNL     1      -3.652  -9.557  -0.297  0.00  0.00    +0.001 A 
ATOM     25  C   UNL     1      -4.047 -10.104  -1.526  0.00  0.00    +0.002 A 
ATOM     26  C   UNL     1      -3.481  -9.748  -2.699  0.00  0.00    +0.026 A 
ATOM     27  C   UNL     1      -2.439  -8.780  -2.729  0.00  0.00    +0.043 A 
ATOM     28  N   UNL     1      -1.744  -8.277  -3.720  0.00  0.00    -0.380 N 
ATOM     29  C   UNL     1      -0.791  -7.303  -3.176  0.00  0.00    +0.145 C 
ATOM     30  H   UNL     1      -1.845  -8.508  -4.657  0.00  0.00    +0.160 HD
ENDBRANCH  20  21
BRANCH  20  31
ATOM     31  C   UNL     1       1.192  -6.791  -0.709  0.00  0.00    -0.020 A 
ATOM     32  C   UNL     1       1.906  -6.584  -1.875  0.00  0.00    +0.006 A 
ATOM     33  C   UNL     1       3.255  -6.881  -1.921  0.00  0.00    +0.000 A 
ATOM     34  C   UNL     1       3.892  -7.384  -0.802  0.00  0.00    +0.001 A 
ATOM     35  C   UNL     1       3.179  -7.591   0.364  0.00  0.00    +0.020 A 
ATOM     36  C   UNL     1       1.830  -7.289   0.413  0.00  0.00    +0.045 A 
ATOM     37 CL   UNL     1       0.936  -7.543   1.879  0.00  0.00    -0.083 Cl
ENDBRANCH  20  31
ENDBRANCH   1  20
TORSDOF 8
