REMARK  Name = ZINC09390703
REMARK  6 active torsions:
REMARK  status: ('A' for Active; 'I' for Inactive)
REMARK    1  A    between atoms: C_1  and  C_2
REMARK    2  A    between atoms: C_3  and  C_23
REMARK    3  A    between atoms: C_5  and  N_10
REMARK    4  A    between atoms: C_6  and  C_7
REMARK    5  A    between atoms: C_11  and  C_13
REMARK    6  A    between atoms: C_23  and  C_24
REMARK                            x       y       z     vdW  Elec       q    Type
REMARK                         _______ _______ _______ _____ _____    ______ ____
ROOT
ATOM      1  C   UNL     1       7.374   9.807  -0.014  0.00  0.00    +0.045 C 
ATOM      2  C   UNL     1       6.040   9.106  -0.005  0.00  0.00    -0.026 A 
ATOM      3  C   UNL     1       4.885   9.795   0.010  0.00  0.00    -0.000 A 
ATOM      4  S   UNL     1       3.645   8.518   0.015  0.00  0.00    -0.077 S 
ATOM      5  C   UNL     1       4.668   7.121  -0.003  0.00  0.00    +0.085 A 
ATOM      6  C   UNL     1       5.947   7.665  -0.007  0.00  0.00    +0.068 A 
ENDROOT
BRANCH   6   7
ATOM      7  C   UNL     1       7.144   6.818  -0.016  0.00  0.00    +0.244 C 
ATOM      8  O   UNL     1       7.635   6.471  -1.074  0.00  0.00    -0.270 OA
ATOM      9  N   UNL     1       7.699   6.423   1.147  0.00  0.00    -0.325 N 
ATOM     10  H   UNL     1       7.307   6.699   1.990  0.00  0.00    +0.145 HD
ATOM     11  H   UNL     1       8.490   5.862   1.140  0.00  0.00    +0.145 HD
ENDBRANCH   6   7
BRANCH   5  12
ATOM     12  N   UNL     1       4.301   5.785  -0.007  0.00  0.00    -0.275 N 
ATOM     13  C   UNL     1       2.997   5.445   0.004  0.00  0.00    +0.257 C 
ATOM     14  O   UNL     1       2.142   6.311   0.017  0.00  0.00    -0.269 OA
ATOM     15  H   UNL     1       4.982   5.095  -0.017  0.00  0.00    +0.156 HD
BRANCH  13  16
ATOM     16  C   UNL     1       2.608   4.030  -0.000  0.00  0.00    +0.094 A 
ATOM     17  C   UNL     1       1.357   3.494   0.009  0.00  0.00    +0.068 A 
ATOM     18  C   UNL     1       1.193   2.096   0.002  0.00  0.00    +0.008 A 
ATOM     19  C   UNL     1      -0.016   1.354   0.009  0.00  0.00    +0.010 A 
ATOM     20  C   UNL     1       0.002  -0.004   0.002  0.00  0.00    +0.001 A 
ATOM     21  C   UNL     1       1.195  -0.717  -0.014  0.00  0.00    +0.001 A 
ATOM     22  C   UNL     1       2.394  -0.034  -0.021  0.00  0.00    +0.016 A 
ATOM     23  C   UNL     1       2.392   1.345  -0.013  0.00  0.00    +0.021 A 
ATOM     24  S   UNL     1       3.659   2.588  -0.019  0.00  0.00    -0.082 S 
ATOM     25 CL   UNL     1      -0.034   4.533   0.028  0.00  0.00    -0.082 Cl
ENDBRANCH  13  16
ENDBRANCH   5  12
BRANCH   3  26
ATOM     26  C   UNL     1       4.689  11.289   0.020  0.00  0.00    +0.078 C 
BRANCH  26  27
ATOM     27  C   UNL     1       4.609  11.796  -1.397  0.00  0.00    -0.039 A 
ATOM     28  C   UNL     1       3.384  11.871  -2.034  0.00  0.00    +0.008 A 
ATOM     29  C   UNL     1       3.306  12.335  -3.334  0.00  0.00    +0.050 A 
ATOM     30  C   UNL     1       4.455  12.725  -4.002  0.00  0.00    +0.166 A 
ATOM     31  C   UNL     1       5.689  12.649  -3.360  0.00  0.00    +0.166 A 
ATOM     32  C   UNL     1       5.759  12.189  -2.055  0.00  0.00    +0.053 A 
ATOM     33  O   UNL     1       6.655  13.087  -4.218  0.00  0.00    -0.453 OA
ATOM     34  C   UNL     1       5.956  13.814  -5.246  0.00  0.00    +0.466 C 
ATOM     35  O   UNL     1       4.649  13.210  -5.263  0.00  0.00    -0.453 OA
ENDBRANCH  26  27
ENDBRANCH   3  26
TORSDOF 5
