REMARK  Name = ZINC09471209
REMARK  9 active torsions:
REMARK  status: ('A' for Active; 'I' for Inactive)
REMARK    1  A    between atoms: C_1  and  C_2
REMARK    2  A    between atoms: C_3  and  C_7
REMARK    3  A    between atoms: C_10  and  S_18
REMARK    4  A    between atoms: N_11  and  C_12
REMARK    5  A    between atoms: S_18  and  C_19
REMARK    6  A    between atoms: C_19  and  C_21
REMARK    7  A    between atoms: C_19  and  C_22
REMARK    8  A    between atoms: N_24  and  C_25
REMARK    9  A    between atoms: C_26  and  C_33
REMARK                            x       y       z     vdW  Elec       q    Type
REMARK                         _______ _______ _______ _____ _____    ______ ____
ROOT
ATOM      1  C   UNL     1      -0.013   1.086   0.008  0.00  0.00    +0.137 C 
ATOM      2  C   UNL     1      -0.729   1.579   1.267  0.00  0.00    +0.029 C 
ENDROOT
BRANCH   1   3
ATOM      3  C   UNL     1      -0.742   1.585  -1.213  0.00  0.00    +0.231 C 
ATOM      4  O   UNL     1      -0.328   2.555  -1.812  0.00  0.00    -0.274 OA
ATOM      5  N   UNL     1      -1.854   0.954  -1.639  0.00  0.00    -0.278 N 
ATOM      6  H   UNL     1      -2.185   0.178  -1.160  0.00  0.00    +0.155 HD
BRANCH   5   7
ATOM      7  C   UNL     1      -2.524   1.413  -2.762  0.00  0.00    +0.084 A 
ATOM      8  C   UNL     1      -3.668   0.901  -3.351  0.00  0.00    +0.068 A 
ATOM      9  C   UNL     1      -4.180   1.581  -4.540  0.00  0.00    -0.023 A 
ATOM     10  C   UNL     1      -3.463   2.646  -4.942  0.00  0.00    -0.004 A 
ATOM     11  S   UNL     1      -2.131   2.762  -3.773  0.00  0.00    -0.077 S 
ATOM     12  C   UNL     1      -4.049   3.289  -6.170  0.00  0.00    +0.043 C 
ATOM     13  C   UNL     1      -5.492   2.743  -6.244  0.00  0.00    +0.010 C 
ATOM     14  C   UNL     1      -5.359   1.401  -5.498  0.00  0.00    +0.037 C 
BRANCH   8  15
ATOM     15  C   UNL     1      -4.343  -0.279  -2.800  0.00  0.00    +0.244 C 
ATOM     16  O   UNL     1      -5.216  -0.144  -1.963  0.00  0.00    -0.270 OA
ATOM     17  N   UNL     1      -3.996  -1.511  -3.221  0.00  0.00    -0.325 N 
ATOM     18  H   UNL     1      -3.300  -1.618  -3.888  0.00  0.00    +0.145 HD
ATOM     19  H   UNL     1      -4.442  -2.291  -2.857  0.00  0.00    +0.145 HD
ENDBRANCH   8  15
ENDBRANCH   5   7
ENDBRANCH   1   3
BRANCH   1  20
ATOM     20  S   UNL     1       1.685   1.712  -0.005  0.00  0.00    -0.073 S 
BRANCH  20  24
ATOM     21  C   UNL     1       3.643   0.148   2.997  0.00  0.00    +0.173 A 
ATOM     22  N   UNL     1       2.448  -0.380   3.122  0.00  0.00    -0.128 NA
ATOM     23  N   UNL     1       1.676   0.052   2.190  0.00  0.00    -0.122 NA
ATOM     24  C   UNL     1       2.330   0.877   1.406  0.00  0.00    +0.197 A 
ATOM     25  N   UNL     1       3.607   0.971   1.893  0.00  0.00    -0.270 N 
BRANCH  21  28
ATOM     26  C   UNL     1       3.714  -1.718   5.516  0.00  0.00    +0.087 C 
ATOM     27  C   UNL     1       4.857  -0.901   4.971  0.00  0.00    +0.112 A 
ATOM     28  C   UNL     1       4.808  -0.095   3.875  0.00  0.00    +0.060 A 
ATOM     29  C   UNL     1       6.150   0.487   3.749  0.00  0.00    +0.053 A 
ATOM     30  C   UNL     1       6.871  -0.020   4.762  0.00  0.00    +0.196 A 
ATOM     31  O   UNL     1       6.096  -0.846   5.481  0.00  0.00    -0.467 OA
ENDBRANCH  21  28
BRANCH  25  32
ATOM     32  C   UNL     1       4.657   1.743   1.377  0.00  0.00    +0.051 A 
ATOM     33  C   UNL     1       5.788   1.124   0.863  0.00  0.00    +0.026 A 
ATOM     34  C   UNL     1       6.818   1.888   0.349  0.00  0.00    +0.002 A 
ATOM     35  C   UNL     1       6.729   3.268   0.358  0.00  0.00    +0.000 A 
ATOM     36  C   UNL     1       5.606   3.887   0.875  0.00  0.00    +0.002 A 
ATOM     37  C   UNL     1       4.570   3.129   1.384  0.00  0.00    +0.026 A 
ENDBRANCH  25  32
ENDBRANCH  20  24
ENDBRANCH   1  20
TORSDOF 7
