REMARK  Name = ZINC63705050
REMARK  5 active torsions:
REMARK  status: ('A' for Active; 'I' for Inactive)
REMARK    1  A    between atoms: C_7  and  C_10
REMARK    2  A    between atoms: C_10  and  C_11
REMARK    3  A    between atoms: C_11  and  N_12
REMARK    4  A    between atoms: C_13  and  C_15
REMARK    5  A    between atoms: C_19  and  N_21
REMARK                            x       y       z     vdW  Elec       q    Type
REMARK                         _______ _______ _______ _____ _____    ______ ____
ROOT
ATOM      1  C   UNL     1      -1.734  -6.535  -2.622  0.00  0.00    +0.039 A 
ATOM      2  C   UNL     1      -2.246  -7.019  -1.416  0.00  0.00    +0.014 A 
ATOM      3  C   UNL     1      -3.108  -8.097  -1.412  0.00  0.00    +0.023 A 
ATOM      4  C   UNL     1      -3.471  -8.704  -2.599  0.00  0.00    +0.066 A 
ATOM      5  C   UNL     1      -2.965  -8.229  -3.813  0.00  0.00    +0.085 A 
ATOM      6  C   UNL     1      -2.099  -7.138  -3.824  0.00  0.00    +0.042 A 
ATOM      7 CL   UNL     1      -4.556 -10.059  -2.583  0.00  0.00    -0.081 Cl
ENDROOT
BRANCH   5   8
ATOM      8  N   UNL     1      -3.325  -8.832  -4.990  0.00  0.00    -0.225 NA
ATOM      9  C   UNL     1      -2.431  -9.012  -5.936  0.00  0.00    +0.155 C 
ATOM     10  N   UNL     1      -1.076  -8.659  -5.912  0.00  0.00    -0.318 N 
ATOM     11  C   UNL     1      -0.413  -8.753  -7.176  0.00  0.00    +0.108 C 
ATOM     12  C   UNL     1       1.095  -8.675  -7.351  0.00  0.00    +0.189 C 
ATOM     13  S   UNL     1       1.251  -9.283  -9.094  0.00  0.00    -0.028 S 
ATOM     14  O   UNL     1       2.090 -10.431  -9.111  0.00  0.00    -0.174 OA
ATOM     15  O   UNL     1       1.551  -8.185  -9.944  0.00  0.00    -0.174 OA
ATOM     16  C   UNL     1      -0.504  -9.811  -9.380  0.00  0.00    +0.182 C 
ATOM     17  C   UNL     1      -0.899 -10.062  -7.907  0.00  0.00    +0.097 C 
ATOM     18  S   UNL     1      -2.673  -9.774  -7.548  0.00  0.00    -0.084 S 
ATOM     19  H   UNL     1      -0.623  -8.373  -5.103  0.00  0.00    +0.148 HD
ENDBRANCH   5   8
BRANCH   1  21
ATOM     20  N   UNL     1      -0.458  -4.798  -1.460  0.00  0.00    -0.311 N 
ATOM     21  C   UNL     1      -0.811  -5.380  -2.623  0.00  0.00    +0.244 C 
ATOM     22  O   UNL     1      -0.370  -4.956  -3.674  0.00  0.00    -0.270 OA
ATOM     23  H   UNL     1      -0.810  -5.136  -0.622  0.00  0.00    +0.149 HD
BRANCH  20  24
ATOM     24  C   UNL     1       0.457  -3.653  -1.462  0.00  0.00    +0.109 C 
BRANCH  24  25
ATOM     25  C   UNL     1       0.691  -3.186  -0.024  0.00  0.00    +0.052 C 
BRANCH  25  32
ATOM     26  C   UNL     1      -0.016   1.348   0.009  0.00  0.00    +0.001 A 
ATOM     27  C   UNL     1       1.166   2.101   0.002  0.00  0.00    +0.002 A 
ATOM     28  C   UNL     1       2.391   1.535  -0.013  0.00  0.00    +0.026 A 
ATOM     29  C   UNL     1       2.529   0.120  -0.022  0.00  0.00    +0.043 A 
ATOM     30  N   UNL     1       3.587  -0.654  -0.037  0.00  0.00    -0.380 N 
ATOM     31  C   UNL     1       3.143  -2.053  -0.041  0.00  0.00    +0.144 C 
ATOM     32  C   UNL     1       1.631  -2.008  -0.025  0.00  0.00    -0.040 C 
ATOM     33  C   UNL     1       1.295  -0.698  -0.014  0.00  0.00    -0.001 A 
ATOM     34  C   UNL     1       0.002  -0.004   0.002  0.00  0.00    +0.010 A 
ATOM     35  H   UNL     1       4.509  -0.353  -0.045  0.00  0.00    +0.160 HD
ENDBRANCH  25  32
ENDBRANCH  24  25
ENDBRANCH  20  24
ENDBRANCH   1  21
TORSDOF 5
