REMARK  Name = ZINC39974056
REMARK  11 active torsions:
REMARK  status: ('A' for Active; 'I' for Inactive)
REMARK    1  A    between atoms: C_1  and  C_2
REMARK    2  A    between atoms: C_2  and  C_3
REMARK    3  A    between atoms: C_3  and  C_4
REMARK    4  A    between atoms: C_4  and  N_5
REMARK    5  A    between atoms: N_8  and  C_11
REMARK    6  A    between atoms: C_11  and  N_13
REMARK    7  A    between atoms: N_13  and  C_14
REMARK    8  A    between atoms: C_15  and  C_25
REMARK    9  A    between atoms: C_20  and  C_24
REMARK   10  A    between atoms: C_25  and  O_27
REMARK   11  A    between atoms: O_27  and  C_28
REMARK                            x       y       z     vdW  Elec       q    Type
REMARK                         _______ _______ _______ _____ _____    ______ ____
ROOT
ATOM      1  N   UNL     1       1.768  -6.145   5.665  0.00  0.00    -0.291 N 
ATOM      2  H   UNL     1       2.167  -6.492   4.852  0.00  0.00    +0.154 HD
ENDROOT
BRANCH   1   3
ATOM      3  C   UNL     1       1.403  -7.012   6.682  0.00  0.00    +0.086 A 
ATOM      4  C   UNL     1       1.535  -8.393   6.715  0.00  0.00    +0.091 A 
ATOM      5  C   UNL     1       1.069  -9.075   7.910  0.00  0.00    -0.021 A 
ATOM      6  C   UNL     1       0.557  -8.254   8.852  0.00  0.00    -0.004 A 
ATOM      7  S   UNL     1       0.705  -6.632   8.161  0.00  0.00    -0.077 S 
ATOM      8  C   UNL     1      -0.002  -8.650  10.183  0.00  0.00    +0.046 C 
ATOM      9  C   UNL     1      -0.255 -10.165  10.169  0.00  0.00    -0.009 C 
ATOM     10  C   UNL     1       0.989 -10.870   9.620  0.00  0.00    +0.008 C 
ATOM     11  C   UNL     1       1.134 -10.581   8.124  0.00  0.00    +0.037 C 
ATOM     12  C   UNL     1      -0.536 -10.651  11.592  0.00  0.00    +0.008 C 
BRANCH   4  13
ATOM     13  C   UNL     1       2.118  -9.130   5.593  0.00  0.00    +0.342 C 
ATOM     14  O   UNL     1       3.317  -9.336   5.558  0.00  0.00    -0.245 OA
BRANCH  13  15
ATOM     15  O   UNL     1       1.327  -9.583   4.599  0.00  0.00    -0.464 OA
ATOM     16  C   UNL     1       1.963 -10.294   3.536  0.00  0.00    +0.280 C 
ENDBRANCH  13  15
ENDBRANCH   4  13
ENDBRANCH   1   3
BRANCH   1  17
ATOM     17  C   UNL     1       1.571  -4.820   5.806  0.00  0.00    +0.137 C 
ATOM     18  S   UNL     1       0.996  -4.193   7.292  0.00  0.00    -0.018 S 
BRANCH  17  22
ATOM     19  N   UNL     1       1.452  -2.531   2.422  0.00  0.00    +0.382 N 
ATOM     20  C   UNL     1       0.711  -2.148   3.630  0.00  0.00    -0.060 C 
ATOM     21  C   UNL     1       1.514  -2.552   4.870  0.00  0.00    +0.088 C 
ATOM     22  N   UNL     1       1.826  -3.987   4.777  0.00  0.00    -0.316 N 
ATOM     23  C   UNL     1       2.424  -4.487   3.530  0.00  0.00    +0.088 C 
ATOM     24  C   UNL     1       1.577  -3.992   2.353  0.00  0.00    -0.060 C 
ATOM     25  H   UNL     1       2.372  -2.117   2.449  0.00  0.00    -0.082 HD
BRANCH  19  26
ATOM     26  C   UNL     1       0.735  -2.046   1.235  0.00  0.00    -0.079 C 
BRANCH  26  27
ATOM     27  C   UNL     1       0.712  -0.516   1.242  0.00  0.00    -0.019 C 
BRANCH  27  29
ATOM     28  C   UNL     1      -0.057   1.519   0.013  0.00  0.00    +0.004 C 
ATOM     29  C   UNL     1      -0.035  -0.011   0.006  0.00  0.00    -0.005 C 
ENDBRANCH  27  29
ENDBRANCH  26  27
ENDBRANCH  19  26
ENDBRANCH  17  22
ENDBRANCH   1  17
TORSDOF 8
