REMARK  Name = ZINC43161247
REMARK  7 active torsions:
REMARK  status: ('A' for Active; 'I' for Inactive)
REMARK    1  A    between atoms: C_1  and  C_2
REMARK    2  A    between atoms: C_2  and  C_3
REMARK    3  A    between atoms: C_2  and  C_4
REMARK    4  A    between atoms: C_2  and  N_22
REMARK    5  A    between atoms: C_4  and  N_5
REMARK    6  A    between atoms: N_8  and  N_9
REMARK    7  A    between atoms: C_10  and  C_12
REMARK                            x       y       z     vdW  Elec       q    Type
REMARK                         _______ _______ _______ _____ _____    ______ ____
ROOT
ATOM      1  N   UNL     1      -1.330  -2.047  -0.408  0.00  0.00    -0.296 N 
ATOM      2  C   UNL     1      -2.440  -2.756  -0.690  0.00  0.00    +0.316 C 
ATOM      3  O   UNL     1      -3.519  -2.198  -0.750  0.00  0.00    -0.251 OA
ATOM      4  N   UNL     1      -2.356  -4.084  -0.906  0.00  0.00    -0.218 N 
ATOM      5  H   UNL     1      -0.469  -2.492  -0.361  0.00  0.00    +0.150 HD
ATOM      6  H   UNL     1      -3.155  -4.594  -1.109  0.00  0.00    +0.174 HD
ENDROOT
BRANCH   4   7
ATOM      7  N   UNL     1      -1.113  -4.726  -0.838  0.00  0.00    -0.229 N 
ATOM      8  C   UNL     1      -1.028  -6.054  -1.054  0.00  0.00    +0.267 C 
ATOM      9  O   UNL     1      -2.031  -6.695  -1.308  0.00  0.00    -0.268 OA
ATOM     10  H   UNL     1      -0.313  -4.216  -0.635  0.00  0.00    +0.173 HD
BRANCH   8  11
ATOM     11  C   UNL     1       0.273  -6.727  -0.982  0.00  0.00    +0.076 A 
ATOM     12  C   UNL     1       0.576  -8.060  -1.173  0.00  0.00    +0.024 A 
ATOM     13  C   UNL     1       1.912  -8.430  -1.041  0.00  0.00    -0.036 A 
ATOM     14  C   UNL     1       2.788  -7.437  -0.735  0.00  0.00    -0.006 A 
ATOM     15  S   UNL     1       1.878  -6.036  -0.632  0.00  0.00    -0.088 S 
ATOM     16  C   UNL     1       4.269  -7.550  -0.529  0.00  0.00    +0.043 C 
ATOM     17  C   UNL     1       4.813  -8.718  -1.359  0.00  0.00    +0.005 C 
ATOM     18  C   UNL     1       4.745  -9.988  -0.516  0.00  0.00    +0.001 C 
ATOM     19  C   UNL     1       3.302 -10.296  -0.124  0.00  0.00    +0.005 C 
ATOM     20  C   UNL     1       2.348  -9.878  -1.238  0.00  0.00    +0.036 C 
ENDBRANCH   8  11
ENDBRANCH   4   7
BRANCH   1  21
ATOM     21  C   UNL     1      -1.422  -0.604  -0.174  0.00  0.00    +0.127 C 
BRANCH  21  23
ATOM     22  C   UNL     1       0.758  -0.169  -1.315  0.00  0.00    +0.029 C 
ATOM     23  C   UNL     1      -0.016  -0.024  -0.004  0.00  0.00    +0.032 C 
ATOM     24  C   UNL     1      -0.117   1.457   0.367  0.00  0.00    +0.029 C 
BRANCH  23  25
ATOM     25  N   UNL     1       0.687  -0.749   1.063  0.00  0.00    -0.291 NA
ATOM     26  C   UNL     1      -0.071  -0.699   2.322  0.00  0.00    +0.113 C 
ATOM     27  C   UNL     1       0.666  -1.515   3.387  0.00  0.00    +0.175 C 
ATOM     28  O   UNL     1       1.995  -1.008   3.535  0.00  0.00    -0.377 OA
ATOM     29  C   UNL     1       2.761  -1.042   2.328  0.00  0.00    +0.175 C 
ATOM     30  C   UNL     1       2.046  -0.221   1.252  0.00  0.00    +0.113 C 
ENDBRANCH  23  25
ENDBRANCH  21  23
ENDBRANCH   1  21
TORSDOF 5
