REMARK  Name = ZINC40008613
REMARK  12 active torsions:
REMARK  status: ('A' for Active; 'I' for Inactive)
REMARK    1  A    between atoms: C_1  and  C_2
REMARK    2  A    between atoms: C_2  and  N_3
REMARK    3  A    between atoms: N_3  and  C_4
REMARK    4  A    between atoms: N_3  and  C_6
REMARK    5  A    between atoms: C_4  and  C_5
REMARK    6  A    between atoms: C_6  and  C_7
REMARK    7  A    between atoms: C_7  and  C_8
REMARK    8  A    between atoms: C_8  and  N_9
REMARK    9  A    between atoms: C_10  and  C_26
REMARK   10  A    between atoms: C_29  and  O_32
REMARK   11  A    between atoms: O_32  and  C_33
REMARK   12  A    between atoms: C_33  and  C_34
REMARK                            x       y       z     vdW  Elec       q    Type
REMARK                         _______ _______ _______ _____ _____    ______ ____
ROOT
ATOM      1  N   UNL     1      -4.288  -4.606   0.107  0.00  0.00    -0.284 N 
ATOM      2  C   UNL     1      -5.243  -4.759   1.217  0.00  0.00    +0.144 C 
ATOM      3  C   UNL     1      -6.497  -5.293   0.604  0.00  0.00    +0.072 A 
ATOM      4  C   UNL     1      -7.786  -5.654   1.202  0.00  0.00    +0.199 A 
ATOM      5  O   UNL     1      -8.084  -5.394   2.354  0.00  0.00    -0.287 OA
ATOM      6  C   UNL     1      -8.694  -6.367   0.269  0.00  0.00    +0.065 A 
ATOM      7  C   UNL     1      -9.871  -6.952   0.738  0.00  0.00    +0.030 A 
ATOM      8  C   UNL     1     -10.699  -7.614  -0.142  0.00  0.00    +0.019 A 
ATOM      9  C   UNL     1     -10.362  -7.698  -1.486  0.00  0.00    +0.019 A 
ATOM     10  C   UNL     1      -9.205  -7.123  -1.960  0.00  0.00    +0.048 A 
ATOM     11  C   UNL     1      -8.350  -6.446  -1.091  0.00  0.00    +0.140 A 
ATOM     12  O   UNL     1      -7.224  -5.882  -1.585  0.00  0.00    -0.450 OA
ATOM     13  C   UNL     1      -6.280  -5.427  -0.738  0.00  0.00    +0.199 A 
ATOM     14  C   UNL     1      -4.903  -4.992  -1.029  0.00  0.00    +0.283 C 
ATOM     15  O   UNL     1      -4.394  -4.986  -2.133  0.00  0.00    -0.267 OA
ATOM     16 BR   UNL     1     -12.297  -8.410   0.483  0.00  0.00    -0.050 Br
ENDROOT
BRANCH   2  17
ATOM     17  C   UNL     1      -4.705  -5.731   2.235  0.00  0.00    -0.022 A 
ATOM     18  C   UNL     1      -4.041  -6.870   1.818  0.00  0.00    +0.009 A 
ATOM     19  C   UNL     1      -3.547  -7.763   2.749  0.00  0.00    +0.046 A 
ATOM     20  C   UNL     1      -3.719  -7.517   4.104  0.00  0.00    +0.121 A 
ATOM     21  C   UNL     1      -4.386  -6.374   4.519  0.00  0.00    +0.046 A 
ATOM     22  C   UNL     1      -4.873  -5.481   3.584  0.00  0.00    +0.009 A 
BRANCH  20  23
ATOM     23  O   UNL     1      -3.235  -8.394   5.021  0.00  0.00    -0.488 OA
BRANCH  23  24
ATOM     24  C   UNL     1      -3.448  -8.076   6.398  0.00  0.00    +0.256 C 
BRANCH  24  25
ATOM     25  C   UNL     1      -2.847  -9.155   7.262  0.00  0.00    +0.006 C 
ATOM     26  C   UNL     1      -2.131  -8.832   8.310  0.00  0.00    +0.007 C 
ENDBRANCH  24  25
ENDBRANCH  23  24
ENDBRANCH  20  23
ENDBRANCH   2  17
BRANCH   1  27
ATOM     27  C   UNL     1      -2.913  -4.113   0.217  0.00  0.00    +0.107 C 
BRANCH  27  28
ATOM     28  C   UNL     1      -2.901  -2.592   0.048  0.00  0.00    +0.000 C 
BRANCH  28  29
ATOM     29  C   UNL     1      -1.464  -2.078   0.163  0.00  0.00    -0.077 C 
BRANCH  29  30
ATOM     30  N   UNL     1      -1.438  -0.634  -0.108  0.00  0.00    +0.379 N 
ATOM     31  H   UNL     1      -1.863  -0.453  -1.004  0.00  0.00    -0.082 HD
BRANCH  30  33
ATOM     32  C   UNL     1      -2.263   1.562   0.594  0.00  0.00    -0.017 C 
ATOM     33  C   UNL     1      -2.184   0.074   0.941  0.00  0.00    -0.082 C 
ENDBRANCH  30  33
BRANCH  30  34
ATOM     34  C   UNL     1      -0.046  -0.164  -0.121  0.00  0.00    -0.082 C 
ATOM     35  C   UNL     1       0.689  -0.780  -1.313  0.00  0.00    -0.017 C 
ENDBRANCH  30  34
ENDBRANCH  29  30
ENDBRANCH  28  29
ENDBRANCH  27  28
ENDBRANCH   1  27
TORSDOF 10
