REMARK  Name = ZINC09292260
REMARK  6 active torsions:
REMARK  status: ('A' for Active; 'I' for Inactive)
REMARK    1  A    between atoms: C_1  and  C_2
REMARK    2  A    between atoms: C_9  and  O_20
REMARK    3  A    between atoms: C_10  and  C_13
REMARK    4  A    between atoms: C_14  and  C_15
REMARK    5  A    between atoms: C_14  and  C_17
REMARK    6  A    between atoms: O_20  and  C_21
REMARK                            x       y       z     vdW  Elec       q    Type
REMARK                         _______ _______ _______ _____ _____    ______ ____
ROOT
ATOM      1  C   UNL     1      -1.327   2.113   0.518  0.00  0.00    +0.047 C 
ATOM      2  C   UNL     1      -0.012   1.409   0.303  0.00  0.00    -0.007 A 
ATOM      3  C   UNL     1       0.023   0.055   0.136  0.00  0.00    +0.008 A 
ATOM      4  C   UNL     1       1.252  -0.584  -0.069  0.00  0.00    +0.019 A 
ATOM      5  C   UNL     1       2.395   0.139  -0.100  0.00  0.00    +0.096 A 
ATOM      6  N   UNL     1       2.370   1.492   0.067  0.00  0.00    -0.267 N 
ATOM      7  C   UNL     1       1.186   2.143   0.268  0.00  0.00    +0.147 A 
ATOM      8  N   UNL     1       1.140   3.467   0.433  0.00  0.00    -0.194 NA
ATOM      9  C   UNL     1       2.234   4.209   0.409  0.00  0.00    +0.235 A 
ATOM     10  C   UNL     1       3.492   3.591   0.204  0.00  0.00    +0.103 A 
ATOM     11  C   UNL     1       3.530   2.183   0.031  0.00  0.00    +0.269 A 
ATOM     12  O   UNL     1       4.588   1.608  -0.148  0.00  0.00    -0.266 OA
ENDROOT
BRANCH  10  13
ATOM     13  C   UNL     1       4.673   4.354   0.174  0.00  0.00    +0.042 C 
ATOM     14  C   UNL     1       4.799   5.403  -0.726  0.00  0.00    +0.114 C 
BRANCH  14  15
ATOM     15  C   UNL     1       5.976   6.277  -0.673  0.00  0.00    +0.252 C 
ATOM     16  O   UNL     1       6.842   6.082   0.159  0.00  0.00    -0.270 OA
ATOM     17  N   UNL     1       6.098   7.296  -1.547  0.00  0.00    -0.325 N 
ATOM     18  H   UNL     1       5.408   7.452  -2.210  0.00  0.00    +0.145 HD
ATOM     19  H   UNL     1       6.876   7.874  -1.512  0.00  0.00    +0.145 HD
ENDBRANCH  14  15
BRANCH  14  20
ATOM     20  C   UNL     1       3.780   5.633  -1.705  0.00  0.00    +0.104 C 
ATOM     21  N   UNL     1       2.971   5.815  -2.482  0.00  0.00    -0.191 NA
ENDBRANCH  14  20
ENDBRANCH  10  13
BRANCH   9  22
ATOM     22  O   UNL     1       2.152   5.547   0.581  0.00  0.00    -0.436 OA
BRANCH  22  23
ATOM     23  C   UNL     1       0.919   6.096   0.740  0.00  0.00    +0.149 A 
ATOM     24  C   UNL     1       0.236   6.600  -0.358  0.00  0.00    +0.049 A 
ATOM     25  C   UNL     1      -1.017   7.157  -0.195  0.00  0.00    +0.023 A 
ATOM     26  C   UNL     1      -1.593   7.213   1.063  0.00  0.00    +0.043 A 
ATOM     27  C   UNL     1      -0.914   6.711   2.159  0.00  0.00    +0.043 A 
ATOM     28  C   UNL     1       0.338   6.148   1.999  0.00  0.00    +0.085 A 
ATOM     29 CL   UNL     1       1.187   5.511   3.374  0.00  0.00    -0.080 Cl
ATOM     30 CL   UNL     1      -3.168   7.914   1.265  0.00  0.00    -0.083 Cl
ENDBRANCH  22  23
ENDBRANCH   9  22
TORSDOF 5
