REMARK  Name = ZINC12880317
REMARK  6 active torsions:
REMARK  status: ('A' for Active; 'I' for Inactive)
REMARK    1  A    between atoms: C_1  and  C_2
REMARK    2  A    between atoms: C_2  and  C_3
REMARK    3  A    between atoms: C_2  and  C_4
REMARK    4  A    between atoms: C_4  and  C_5
REMARK    5  A    between atoms: N_13  and  C_16
REMARK    6  A    between atoms: C_16  and  C_17
REMARK                            x       y       z     vdW  Elec       q    Type
REMARK                         _______ _______ _______ _____ _____    ______ ____
ROOT
ATOM      1  C   UNL     1      -1.637   2.479  -0.698  0.00  0.00    -0.057 C 
ATOM      2  C   UNL     1      -0.512   1.613  -1.304  0.00  0.00    +0.073 C 
ATOM      3  C   UNL     1       0.277   1.070  -0.080  0.00  0.00    +0.088 C 
ATOM      4  C   UNL     1       1.637   1.713  -0.231  0.00  0.00    +0.225 C 
ATOM      5  O   UNL     1       2.576   1.551   0.519  0.00  0.00    -0.275 OA
ATOM      6  N   UNL     1       1.645   2.488  -1.321  0.00  0.00    -0.237 N 
ATOM      7  C   UNL     1       0.489   2.508  -1.996  0.00  0.00    +0.224 C 
ATOM      8  O   UNL     1       0.280   3.144  -3.007  0.00  0.00    -0.275 OA
ATOM      9  C   UNL     1      -0.434   1.655   1.147  0.00  0.00    +0.050 C 
ATOM     10  C   UNL     1      -1.381   0.661   1.760  0.00  0.00    -0.028 A 
ATOM     11  C   UNL     1      -2.482  -0.015   1.286  0.00  0.00    +0.004 A 
ATOM     12  C   UNL     1      -3.166  -0.890   2.112  0.00  0.00    +0.000 A 
ATOM     13  C   UNL     1      -2.740  -1.082   3.414  0.00  0.00    +0.002 A 
ATOM     14  C   UNL     1      -1.638  -0.405   3.893  0.00  0.00    +0.023 A 
ATOM     15  C   UNL     1      -0.944   0.478   3.069  0.00  0.00    +0.036 A 
ATOM     16  N   UNL     1       0.181   1.267   3.318  0.00  0.00    -0.286 N 
ATOM     17  C   UNL     1       0.542   1.990   2.240  0.00  0.00    +0.211 C 
ATOM     18  O   UNL     1       1.475   2.763   2.166  0.00  0.00    -0.277 OA
ATOM     19  H   UNL     1       0.647   1.292   4.168  0.00  0.00    +0.155 HD
ATOM     20  N   UNL     1      -1.133   2.839   0.630  0.00  0.00    +0.394 N 
ATOM     21  H   UNL     1      -1.912   3.090   1.249  0.00  0.00    -0.083 HD
ATOM     22  H   UNL     1      -0.483   3.631   0.559  0.00  0.00    -0.083 HD
ENDROOT
BRANCH   1  23
ATOM     23  C   UNL     1      -1.876   3.720  -1.560  0.00  0.00    -0.012 C 
BRANCH  23  25
ATOM     24  C   UNL     1      -3.826   2.686  -2.731  0.00  0.00    +0.007 C 
ATOM     25  C   UNL     1      -2.436   3.297  -2.919  0.00  0.00    -0.019 C 
ATOM     26  C   UNL     1      -2.536   4.521  -3.832  0.00  0.00    +0.007 C 
ENDBRANCH  23  25
ENDBRANCH   1  23
BRANCH   6  27
ATOM     27  C   UNL     1       2.821   3.254  -1.741  0.00  0.00    +0.153 C 
BRANCH  27  28
ATOM     28  C   UNL     1       3.744   2.362  -2.531  0.00  0.00    -0.011 A 
ATOM     29  C   UNL     1       4.800   1.730  -1.901  0.00  0.00    +0.006 A 
ATOM     30  C   UNL     1       5.645   0.909  -2.624  0.00  0.00    +0.000 A 
ATOM     31  C   UNL     1       5.440   0.727  -3.979  0.00  0.00    +0.001 A 
ATOM     32  C   UNL     1       4.388   1.363  -4.611  0.00  0.00    +0.020 A 
ATOM     33  C   UNL     1       3.539   2.181  -3.887  0.00  0.00    +0.046 A 
ATOM     34 CL   UNL     1       2.218   2.981  -4.679  0.00  0.00    -0.083 Cl
ENDBRANCH  27  28
ENDBRANCH   6  27
TORSDOF 4
