REMARK  Name = ZINC49508583
REMARK  10 active torsions:
REMARK  status: ('A' for Active; 'I' for Inactive)
REMARK    1  A    between atoms: C_1  and  N_2
REMARK    2  A    between atoms: C_10  and  C_12
REMARK    3  A    between atoms: C_12  and  C_14
REMARK    4  A    between atoms: C_12  and  N_33
REMARK    5  A    between atoms: C_14  and  N_15
REMARK    6  A    between atoms: C_16  and  C_18
REMARK    7  A    between atoms: N_20  and  C_21
REMARK    8  A    between atoms: C_25  and  N_27
REMARK    9  A    between atoms: N_33  and  C_34
REMARK   10  A    between atoms: N_33  and  C_35
REMARK                            x       y       z     vdW  Elec       q    Type
REMARK                         _______ _______ _______ _____ _____    ______ ____
ROOT
ATOM      1  N   UNL     1       4.153  -3.638  -2.332  0.00  0.00    -0.309 N 
ATOM      2  C   UNL     1       4.180  -3.912  -3.651  0.00  0.00    +0.299 C 
ATOM      3  O   UNL     1       5.045  -3.431  -4.354  0.00  0.00    -0.265 OA
ATOM      4  H   UNL     1       3.462  -4.022  -1.770  0.00  0.00    +0.149 HD
ENDROOT
BRANCH   2   5
ATOM      5  C   UNL     1       3.144  -4.807  -4.248  0.00  0.00    +0.303 C 
ATOM      6  O   UNL     1       2.279  -5.288  -3.546  0.00  0.00    -0.265 OA
ATOM      7  N   UNL     1       3.171  -5.082  -5.568  0.00  0.00    -0.278 N 
ATOM      8  H   UNL     1       3.908  -4.766  -6.114  0.00  0.00    +0.155 HD
BRANCH   7   9
ATOM      9  C   UNL     1       2.136  -5.820  -6.149  0.00  0.00    +0.036 A 
ATOM     10  C   UNL     1       0.834  -5.676  -5.685  0.00  0.00    +0.023 A 
ATOM     11  C   UNL     1      -0.189  -6.406  -6.259  0.00  0.00    +0.004 A 
ATOM     12  C   UNL     1       0.079  -7.281  -7.295  0.00  0.00    +0.023 A 
ATOM     13  C   UNL     1       1.378  -7.430  -7.762  0.00  0.00    +0.038 A 
ATOM     14  C   UNL     1       2.408  -6.693  -7.192  0.00  0.00    +0.046 A 
BRANCH  13  15
ATOM     15  N   UNL     1       1.649  -8.316  -8.810  0.00  0.00    -0.271 N 
ATOM     16  C   UNL     1       0.621  -9.039  -9.569  0.00  0.00    +0.114 C 
ATOM     17  C   UNL     1       1.325  -9.526 -10.855  0.00  0.00    +0.029 C 
ATOM     18  C   UNL     1       2.801  -9.598 -10.399  0.00  0.00    +0.098 C 
ATOM     19  C   UNL     1       2.882  -8.611  -9.255  0.00  0.00    +0.220 C 
ATOM     20  O   UNL     1       3.911  -8.154  -8.804  0.00  0.00    -0.275 OA
ENDBRANCH  13  15
ENDBRANCH   7   9
ENDBRANCH   2   5
BRANCH   1  21
ATOM     21  C   UNL     1       5.169  -2.759  -1.746  0.00  0.00    +0.094 C 
BRANCH  21  22
ATOM     22  C   UNL     1       4.841  -2.513  -0.272  0.00  0.00    -0.021 C 
BRANCH  22  32
ATOM     23  C   UNL     1      -0.238   1.556   0.208  0.00  0.00    +0.129 C 
ATOM     24  N   UNL     1      -0.180   0.093   0.142  0.00  0.00    -0.333 N 
ATOM     25  C   UNL     1      -1.413  -0.705   0.174  0.00  0.00    +0.105 C 
ATOM     26  C   UNL     1      -1.188  -1.875   1.141  0.00  0.00    +0.024 C 
ATOM     27  C   UNL     1      -0.070  -2.761   0.592  0.00  0.00    +0.038 C 
ATOM     28  C   UNL     1       1.143  -1.933   0.259  0.00  0.00    -0.026 A 
ATOM     29  C   UNL     1       1.050  -0.565   0.041  0.00  0.00    +0.033 A 
ATOM     30  C   UNL     1       2.188   0.169  -0.275  0.00  0.00    +0.023 A 
ATOM     31  C   UNL     1       3.412  -0.461  -0.377  0.00  0.00    +0.004 A 
ATOM     32  C   UNL     1       3.505  -1.824  -0.163  0.00  0.00    -0.059 A 
ATOM     33  C   UNL     1       2.375  -2.557   0.162  0.00  0.00    +0.007 A 
ENDBRANCH  22  32
BRANCH  22  34
ATOM     34  N   UNL     1       5.880  -1.663   0.326  0.00  0.00    +0.382 N 
ATOM     35  C   UNL     1       5.625  -1.516   1.765  0.00  0.00    -0.096 C 
ATOM     36  C   UNL     1       7.196  -2.282   0.122  0.00  0.00    -0.096 C 
ATOM     37  H   UNL     1       5.864  -0.754  -0.113  0.00  0.00    -0.082 HD
ENDBRANCH  22  34
ENDBRANCH  21  22
ENDBRANCH   1  21
TORSDOF 7
