REMARK  Name = ZINC48990333
REMARK  9 active torsions:
REMARK  status: ('A' for Active; 'I' for Inactive)
REMARK    1  A    between atoms: C_1  and  C_2
REMARK    2  A    between atoms: C_2  and  O_3
REMARK    3  A    between atoms: O_3  and  C_4
REMARK    4  A    between atoms: C_8  and  C_11
REMARK    5  A    between atoms: C_9  and  O_10
REMARK    6  A    between atoms: C_14  and  C_28
REMARK    7  A    between atoms: C_23  and  O_25
REMARK    8  A    between atoms: O_25  and  C_26
REMARK    9  A    between atoms: C_26  and  C_27
REMARK                            x       y       z     vdW  Elec       q    Type
REMARK                         _______ _______ _______ _____ _____    ______ ____
ROOT
ATOM      1  C   UNL     1       2.274  -4.308   3.755  0.00  0.00    -0.028 C 
ATOM      2  C   UNL     1       3.789  -4.267   3.528  0.00  0.00    +0.044 C 
ATOM      3  C   UNL     1       4.470  -5.111   4.570  0.00  0.00    +0.040 C 
ATOM      4  N   UNL     1       3.842  -5.955   5.300  0.00  0.00    -0.300 NA
ATOM      5  C   UNL     1       2.405  -6.195   5.220  0.00  0.00    +0.032 C 
ATOM      6  N   UNL     1       1.873  -5.712   3.938  0.00  0.00    +0.401 N 
ATOM      7  C   UNL     1       2.131  -7.698   5.342  0.00  0.00    +0.029 C 
ATOM      8  C   UNL     1       2.702  -8.210   6.668  0.00  0.00    +0.111 C 
ATOM      9  N   UNL     1       2.144  -7.408   7.765  0.00  0.00    -0.267 N 
ATOM     10  C   UNL     1       2.266  -5.945   7.702  0.00  0.00    +0.111 C 
ATOM     11  C   UNL     1       1.700  -5.460   6.364  0.00  0.00    +0.029 C 
ATOM     12  C   UNL     1       1.532  -8.002   8.809  0.00  0.00    +0.403 C 
ATOM     13  O   UNL     1       1.438  -9.213   8.849  0.00  0.00    -0.226 OA
ATOM     14  H   UNL     1       0.866  -5.778   3.944  0.00  0.00    -0.081 HD
ATOM     15  H   UNL     1       2.246  -6.272   3.186  0.00  0.00    -0.081 HD
ENDROOT
BRANCH   3  16
ATOM     16  C   UNL     1       5.926  -4.960   4.760  0.00  0.00    -0.004 A 
ATOM     17  C   UNL     1       6.643  -4.045   3.986  0.00  0.00    +0.011 A 
ATOM     18  C   UNL     1       8.002  -3.908   4.168  0.00  0.00    +0.020 A 
ATOM     19  C   UNL     1       8.658  -4.676   5.116  0.00  0.00    +0.041 A 
ATOM     20  C   UNL     1       7.953  -5.585   5.887  0.00  0.00    +0.020 A 
ATOM     21  C   UNL     1       6.592  -5.727   5.718  0.00  0.00    +0.011 A 
ATOM     22 CL   UNL     1      10.370  -4.498   5.339  0.00  0.00    -0.084 Cl
ENDBRANCH   3  16
BRANCH   1  27
ATOM     23  C   UNL     1       0.802  -1.825   1.306  0.00  0.00    +0.162 A 
ATOM     24  C   UNL     1       0.261  -2.673   0.353  0.00  0.00    +0.049 A 
ATOM     25  C   UNL     1       0.372  -4.043   0.502  0.00  0.00    +0.004 A 
ATOM     26  C   UNL     1       1.024  -4.570   1.602  0.00  0.00    +0.006 A 
ATOM     27  C   UNL     1       1.566  -3.730   2.557  0.00  0.00    -0.016 A 
ATOM     28  C   UNL     1       1.462  -2.356   2.410  0.00  0.00    +0.160 A 
BRANCH  28  29
ATOM     29  O   UNL     1       2.000  -1.528   3.345  0.00  0.00    -0.503 OA
ATOM     30  H   UNL     1       1.395  -1.301   4.064  0.00  0.00    +0.292 HD
ENDBRANCH  28  29
BRANCH  23  31
ATOM     31  O   UNL     1       0.693  -0.477   1.160  0.00  0.00    -0.489 OA
BRANCH  31  33
ATOM     32  C   UNL     1      -0.019   1.526   0.010  0.00  0.00    +0.048 C 
ATOM     33  C   UNL     1       0.002  -0.004   0.002  0.00  0.00    +0.226 C 
ENDBRANCH  31  33
ENDBRANCH  23  31
ENDBRANCH   1  27
BRANCH  12  34
ATOM     34  O   UNL     1       1.026  -7.254   9.807  0.00  0.00    -0.451 OA
BRANCH  34  35
ATOM     35  C   UNL     1       0.391  -7.950  10.881  0.00  0.00    +0.230 C 
ATOM     36  C   UNL     1      -0.118  -6.941  11.912  0.00  0.00    +0.048 C 
ENDBRANCH  34  35
ENDBRANCH  12  34
TORSDOF 7
