REMARK  Name = ZINC63204743
REMARK  10 active torsions:
REMARK  status: ('A' for Active; 'I' for Inactive)
REMARK    1  A    between atoms: C_1  and  C_2
REMARK    2  A    between atoms: C_2  and  C_4
REMARK    3  A    between atoms: C_7  and  C_9
REMARK    4  A    between atoms: N_11  and  C_12
REMARK    5  A    between atoms: C_12  and  C_13
REMARK    6  A    between atoms: C_13  and  C_15
REMARK    7  A    between atoms: C_13  and  C_24
REMARK    8  A    between atoms: C_18  and  N_21
REMARK    9  A    between atoms: N_21  and  C_22
REMARK   10  A    between atoms: N_21  and  C_23
REMARK                            x       y       z     vdW  Elec       q    Type
REMARK                         _______ _______ _______ _____ _____    ______ ____
ROOT
ATOM      1  C   UNL     1      -8.306   0.124   0.059  0.00  0.00    +0.064 C 
ENDROOT
BRANCH   1   2
ATOM      2  C   UNL     1      -8.044   0.859  -1.230  0.00  0.00    -0.033 C 
ATOM      3  C   UNL     1      -7.477   2.079  -1.369  0.00  0.00    -0.000 A 
ATOM      4  C   UNL     1      -6.956   3.050  -0.399  0.00  0.00    +0.010 A 
ATOM      5  C   UNL     1      -6.437   4.215  -0.851  0.00  0.00    +0.001 A 
ATOM      6  C   UNL     1      -6.385   4.517  -2.218  0.00  0.00    +0.002 A 
ATOM      7  C   UNL     1      -6.843   3.676  -3.169  0.00  0.00    +0.026 A 
ATOM      8  C   UNL     1      -7.410   2.422  -2.808  0.00  0.00    +0.043 A 
ATOM      9  N   UNL     1      -7.915   1.452  -3.530  0.00  0.00    -0.380 N 
ATOM     10  C   UNL     1      -8.355   0.380  -2.630  0.00  0.00    +0.145 C 
ATOM     11  H   UNL     1      -7.982   1.442  -4.497  0.00  0.00    +0.160 HD
ENDBRANCH   1   2
BRANCH   1  12
ATOM     12  C   UNL     1      -9.783  -0.145   0.193  0.00  0.00    -0.039 A 
ATOM     13  C   UNL     1     -10.434  -0.906  -0.760  0.00  0.00    +0.006 A 
ATOM     14  C   UNL     1     -11.788  -1.154  -0.641  0.00  0.00    +0.023 A 
ATOM     15  C   UNL     1     -12.494  -0.638   0.438  0.00  0.00    +0.029 A 
ATOM     16  C   UNL     1     -11.836   0.126   1.394  0.00  0.00    +0.023 A 
ATOM     17  C   UNL     1     -10.482   0.365   1.271  0.00  0.00    +0.006 A 
BRANCH  15  18
ATOM     18  N   UNL     1     -13.863  -0.887   0.562  0.00  0.00    -0.336 N 
ATOM     19  C   UNL     1     -14.555  -1.692  -0.447  0.00  0.00    +0.129 C 
ATOM     20  C   UNL     1     -14.606  -0.342   1.701  0.00  0.00    +0.129 C 
ENDBRANCH  15  18
ENDBRANCH   1  12
BRANCH   1  21
ATOM     21  C   UNL     1      -7.545  -1.204   0.053  0.00  0.00    +0.117 C 
BRANCH  21  24
ATOM     22  C   UNL     1      -5.231  -1.967   0.036  0.00  0.00    +0.251 C 
ATOM     23  O   UNL     1      -5.639  -3.112   0.038  0.00  0.00    -0.270 OA
ATOM     24  N   UNL     1      -6.103  -0.940   0.043  0.00  0.00    -0.310 N 
ATOM     25  H   UNL     1      -5.777  -0.026   0.042  0.00  0.00    +0.149 HD
BRANCH  22  29
ATOM     26  C   UNL     1      -1.255  -0.753   0.010  0.00  0.00    +0.055 A 
ATOM     27  C   UNL     1      -1.452  -2.130   0.010  0.00  0.00    +0.020 A 
ATOM     28  C   UNL     1      -2.730  -2.608   0.018  0.00  0.00    +0.021 A 
ATOM     29  C   UNL     1      -3.782  -1.702   0.026  0.00  0.00    +0.074 A 
ATOM     30  S   UNL     1      -2.929  -0.134   0.030  0.00  0.00    -0.081 S 
BRANCH  26  32
ATOM     31  C   UNL     1      -0.018   1.503   0.010  0.00  0.00    +0.092 C 
ATOM     32  C   UNL     1       0.002  -0.004   0.002  0.00  0.00    +0.167 C 
ATOM     33  O   UNL     1       1.061  -0.597  -0.011  0.00  0.00    -0.292 OA
ENDBRANCH  26  32
ENDBRANCH  22  29
ENDBRANCH  21  24
ENDBRANCH   1  21
TORSDOF 7
