REMARK  Name = ZINC08861378
REMARK  12 active torsions:
REMARK  status: ('A' for Active; 'I' for Inactive)
REMARK    1  A    between atoms: C_1  and  C_2
REMARK    2  A    between atoms: C_2  and  C_4
REMARK    3  A    between atoms: C_2  and  N_12
REMARK    4  A    between atoms: C_13  and  C_15
REMARK    5  A    between atoms: C_15  and  C_17
REMARK    6  A    between atoms: C_15  and  S_18
REMARK    7  A    between atoms: S_18  and  C_19
REMARK    8  A    between atoms: C_22  and  C_25
REMARK    9  A    between atoms: N_23  and  N_24
REMARK   10  A    between atoms: C_25  and  C_26
REMARK   11  A    between atoms: C_29  and  O_32
REMARK   12  A    between atoms: O_32  and  C_33
REMARK                            x       y       z     vdW  Elec       q    Type
REMARK                         _______ _______ _______ _____ _____    ______ ____
ROOT
ATOM      1  S   UNL     1      -3.176  -4.522   2.923  0.00  0.00    -0.072 S 
ENDROOT
BRANCH   1   2
ATOM      2  C   UNL     1      -2.589  -6.058   3.555  0.00  0.00    +0.209 A 
ATOM      3  N   UNL     1      -1.486  -6.677   3.203  0.00  0.00    -0.121 NA
ATOM      4  N   UNL     1      -1.368  -7.771   3.867  0.00  0.00    -0.132 NA
ATOM      5  C   UNL     1      -2.383  -7.919   4.670  0.00  0.00    +0.155 A 
ATOM      6  N   UNL     1      -3.197  -6.833   4.501  0.00  0.00    -0.228 N 
BRANCH   6   7
ATOM      7  N   UNL     1      -4.375  -6.577   5.144  0.00  0.00    -0.295 N 
ATOM      8  H   UNL     1      -5.156  -6.966   4.637  0.00  0.00    +0.163 HD
ATOM      9  H   UNL     1      -4.351  -6.921   6.092  0.00  0.00    +0.163 HD
ENDBRANCH   6   7
BRANCH   5  10
ATOM     10  C   UNL     1      -2.616  -9.072   5.612  0.00  0.00    +0.113 C 
BRANCH  10  11
ATOM     11  C   UNL     1      -3.402 -10.146   4.905  0.00  0.00    -0.040 A 
ATOM     12  C   UNL     1      -4.784 -10.136   4.952  0.00  0.00    +0.007 A 
ATOM     13  C   UNL     1      -5.506 -11.116   4.300  0.00  0.00    +0.046 A 
ATOM     14  C   UNL     1      -4.843 -12.119   3.607  0.00  0.00    +0.120 A 
ATOM     15  C   UNL     1      -3.457 -12.131   3.566  0.00  0.00    +0.046 A 
ATOM     16  C   UNL     1      -2.739 -11.145   4.215  0.00  0.00    +0.007 A 
BRANCH  14  17
ATOM     17  O   UNL     1      -5.551 -13.088   2.969  0.00  0.00    -0.495 OA
ATOM     18  C   UNL     1      -6.976 -13.012   3.054  0.00  0.00    +0.277 C 
ENDBRANCH  14  17
ENDBRANCH  10  11
ENDBRANCH   5  10
ENDBRANCH   1   2
BRANCH   1  19
ATOM     19  C   UNL     1      -1.853  -4.139   1.748  0.00  0.00    +0.137 C 
ATOM     20  C   UNL     1      -1.846  -5.184   0.630  0.00  0.00    +0.029 C 
BRANCH  19  22
ATOM     21  N   UNL     1      -1.066  -2.104   0.585  0.00  0.00    -0.308 N 
ATOM     22  C   UNL     1      -2.086  -2.773   1.157  0.00  0.00    +0.227 C 
ATOM     23  O   UNL     1      -3.192  -2.275   1.197  0.00  0.00    -0.275 OA
ATOM     24  H   UNL     1      -0.182  -2.502   0.553  0.00  0.00    +0.149 HD
BRANCH  21  26
ATOM     25  C   UNL     1      -1.809  -0.920  -1.423  0.00  0.00    +0.033 C 
ATOM     26  C   UNL     1      -1.293  -0.775   0.010  0.00  0.00    +0.102 C 
BRANCH  26  27
ATOM     27  C   UNL     1       0.002  -0.004   0.002  0.00  0.00    -0.009 A 
ATOM     28  C   UNL     1       1.208  -0.679  -0.013  0.00  0.00    +0.008 A 
ATOM     29  C   UNL     1       2.396   0.027  -0.020  0.00  0.00    +0.020 A 
ATOM     30  C   UNL     1       2.379   1.411  -0.013  0.00  0.00    +0.042 A 
ATOM     31  C   UNL     1       1.172   2.087   0.002  0.00  0.00    +0.040 A 
ATOM     32  C   UNL     1      -0.017   1.379   0.010  0.00  0.00    +0.047 A 
ATOM     33 CL   UNL     1      -1.532   2.227   0.021  0.00  0.00    -0.083 Cl
ATOM     34 CL   UNL     1       3.871   2.298  -0.021  0.00  0.00    -0.083 Cl
ENDBRANCH  26  27
ENDBRANCH  21  26
ENDBRANCH  19  22
ENDBRANCH   1  19
TORSDOF 9
