REMARK  Name = ZINC36025615
REMARK  10 active torsions:
REMARK  status: ('A' for Active; 'I' for Inactive)
REMARK    1  A    between atoms: C_1  and  C_2
REMARK    2  A    between atoms: N_7  and  C_9
REMARK    3  A    between atoms: C_9  and  C_10
REMARK    4  A    between atoms: C_16  and  C_18
REMARK    5  A    between atoms: C_18  and  C_20
REMARK    6  A    between atoms: C_18  and  N_23
REMARK    7  A    between atoms: C_20  and  C_21
REMARK    8  A    between atoms: C_20  and  C_22
REMARK    9  A    between atoms: N_23  and  S_24
REMARK   10  A    between atoms: S_24  and  C_27
REMARK                            x       y       z     vdW  Elec       q    Type
REMARK                         _______ _______ _______ _____ _____    ______ ____
ROOT
ATOM      1  C   UNL     1       1.223  -4.119   1.653  0.00  0.00    +0.034 A 
ATOM      2  C   UNL     1       2.228  -4.734   0.981  0.00  0.00    +0.070 A 
ATOM      3  S   UNL     1       1.880  -6.445   1.357  0.00  0.00    -0.060 S 
ATOM      4  C   UNL     1       0.516  -6.201   2.313  0.00  0.00    +0.165 A 
ATOM      5  N   UNL     1       0.384  -4.892   2.316  0.00  0.00    -0.231 NA
ATOM      6  N   UNL     1      -0.275  -7.151   2.948  0.00  0.00    -0.263 N 
ATOM      7  C   UNL     1       0.023  -8.460   2.834  0.00  0.00    +0.238 C 
ATOM      8  O   UNL     1       0.921  -8.817   2.101  0.00  0.00    -0.274 OA
ATOM      9  H   UNL     1      -1.040  -6.871   3.474  0.00  0.00    +0.157 HD
ENDROOT
BRANCH   1  10
ATOM     10  C   UNL     1       1.075  -2.619   1.647  0.00  0.00    -0.022 C 
BRANCH  10  16
ATOM     11  C   UNL     1      -0.897   1.180  -0.729  0.00  0.00    +0.005 C 
ATOM     12  C   UNL     1      -0.849  -0.346  -0.637  0.00  0.00    -0.031 C 
ATOM     13  C   UNL     1      -2.256  -0.887  -0.369  0.00  0.00    -0.001 C 
ATOM     14  C   UNL     1      -2.184  -2.408  -0.202  0.00  0.00    -0.018 C 
ATOM     15  C   UNL     1      -1.208  -2.746   0.927  0.00  0.00    -0.078 C 
ATOM     16  N   UNL     1       0.125  -2.225   0.598  0.00  0.00    +0.384 N 
ATOM     17  C   UNL     1       0.080  -0.761   0.506  0.00  0.00    -0.075 C 
ATOM     18  H   UNL     1       0.425  -2.607  -0.286  0.00  0.00    -0.081 HD
ENDBRANCH  10  16
ENDBRANCH   1  10
BRANCH   7  19
ATOM     19  C   UNL     1      -0.761  -9.482   3.617  0.00  0.00    +0.165 C 
BRANCH  19  20
ATOM     20  C   UNL     1      -2.162  -9.619   3.018  0.00  0.00    +0.010 C 
ATOM     21  C   UNL     1      -2.052 -10.093   1.567  0.00  0.00    +0.009 C 
ATOM     22  C   UNL     1      -2.966 -10.637   3.828  0.00  0.00    +0.009 C 
ENDBRANCH  19  20
BRANCH  19  23
ATOM     23  N   UNL     1      -0.075 -10.775   3.556  0.00  0.00    -0.177 NA
ATOM     24  H   UNL     1      -0.195 -11.351   2.785  0.00  0.00    +0.149 HD
BRANCH  23  25
ATOM     25  S   UNL     1       0.903 -11.254   4.803  0.00  0.00    +0.065 S 
ATOM     26  O   UNL     1       1.349 -12.566   4.490  0.00  0.00    -0.153 OA
ATOM     27  O   UNL     1       1.803 -10.181   5.048  0.00  0.00    -0.153 OA
BRANCH  25  28
ATOM     28  C   UNL     1      -0.112 -11.396   6.237  0.00  0.00    +0.142 A 
ATOM     29  C   UNL     1      -0.725 -12.494   6.742  0.00  0.00    +0.036 A 
ATOM     30  C   UNL     1      -1.481 -12.370   7.893  0.00  0.00    +0.010 A 
ATOM     31  C   UNL     1      -1.587 -11.153   8.481  0.00  0.00    +0.047 A 
ATOM     32  S   UNL     1      -0.593 -10.134   7.404  0.00  0.00    -0.077 S 
ENDBRANCH  25  28
ENDBRANCH  23  25
ENDBRANCH  19  23
ENDBRANCH   7  19
TORSDOF 7
