REMARK  Name = ZINC39493567
REMARK  12 active torsions:
REMARK  status: ('A' for Active; 'I' for Inactive)
REMARK    1  A    between atoms: C_1  and  C_2
REMARK    2  A    between atoms: C_2  and  C_3
REMARK    3  A    between atoms: C_2  and  C_4
REMARK    4  A    between atoms: C_4  and  C_5
REMARK    5  A    between atoms: N_7  and  C_8
REMARK    6  A    between atoms: C_8  and  C_10
REMARK    7  A    between atoms: C_8  and  C_16
REMARK    8  A    between atoms: C_16  and  C_18
REMARK    9  A    between atoms: C_16  and  C_25
REMARK   10  A    between atoms: C_23  and  O_24
REMARK   11  A    between atoms: C_25  and  C_27
REMARK   12  A    between atoms: C_32  and  O_33
REMARK                            x       y       z     vdW  Elec       q    Type
REMARK                         _______ _______ _______ _____ _____    ______ ____
ROOT
ATOM      1  C   UNL     1       5.196  -1.022  -2.979  0.00  0.00    +0.118 C 
ENDROOT
BRANCH   1   2
ATOM      2  C   UNL     1       6.668  -0.723  -2.852  0.00  0.00    +0.007 A 
ATOM      3  C   UNL     1       7.294  -0.841  -1.627  0.00  0.00    +0.008 A 
ATOM      4  C   UNL     1       8.644  -0.566  -1.510  0.00  0.00    +0.001 A 
ATOM      5  C   UNL     1       9.370  -0.173  -2.619  0.00  0.00    +0.004 A 
ATOM      6  C   UNL     1       8.749  -0.053  -3.846  0.00  0.00    +0.046 A 
ATOM      7  C   UNL     1       7.395  -0.333  -3.967  0.00  0.00    +0.121 A 
BRANCH   7   8
ATOM      8  O   UNL     1       6.782  -0.222  -5.175  0.00  0.00    -0.506 OA
ATOM      9  H   UNL     1       6.418   0.656  -5.351  0.00  0.00    +0.292 HD
ENDBRANCH   7   8
ENDBRANCH   1   2
BRANCH   1  10
ATOM     10  C   UNL     1       4.917  -2.404  -2.448  0.00  0.00    +0.176 C 
ATOM     11  O   UNL     1       4.553  -2.551  -1.300  0.00  0.00    -0.291 OA
BRANCH  10  12
ATOM     12  C   UNL     1       5.086  -3.573  -3.319  0.00  0.00    +0.059 A 
ATOM     13  C   UNL     1       5.512  -3.410  -4.643  0.00  0.00    +0.015 A 
ATOM     14  C   UNL     1       5.669  -4.511  -5.454  0.00  0.00    +0.001 A 
ATOM     15  C   UNL     1       5.407  -5.783  -4.967  0.00  0.00    +0.004 A 
ATOM     16  C   UNL     1       4.986  -5.960  -3.664  0.00  0.00    +0.046 A 
ATOM     17  C   UNL     1       4.827  -4.864  -2.829  0.00  0.00    +0.127 A 
BRANCH  17  18
ATOM     18  O   UNL     1       4.420  -5.037  -1.547  0.00  0.00    -0.506 OA
ATOM     19  H   UNL     1       3.459  -5.016  -1.434  0.00  0.00    +0.292 HD
ENDBRANCH  17  18
ENDBRANCH  10  12
ENDBRANCH   1  10
BRANCH   1  20
ATOM     20  C   UNL     1       4.396   0.005  -2.175  0.00  0.00    +0.118 C 
BRANCH  20  21
ATOM     21  C   UNL     1       4.614   1.378  -2.755  0.00  0.00    -0.026 A 
ATOM     22  C   UNL     1       4.004   1.731  -3.944  0.00  0.00    +0.005 A 
ATOM     23  C   UNL     1       4.204   2.991  -4.477  0.00  0.00    +0.000 A 
ATOM     24  C   UNL     1       5.014   3.898  -3.820  0.00  0.00    +0.000 A 
ATOM     25  C   UNL     1       5.623   3.546  -2.630  0.00  0.00    +0.000 A 
ATOM     26  C   UNL     1       5.420   2.287  -2.096  0.00  0.00    +0.005 A 
ENDBRANCH  20  21
BRANCH  20  29
ATOM     27  C   UNL     1       2.141   0.075  -1.254  0.00  0.00    +0.214 C 
ATOM     28  O   UNL     1       2.573   0.717  -0.321  0.00  0.00    -0.276 OA
ATOM     29  N   UNL     1       2.971  -0.330  -2.236  0.00  0.00    -0.307 N 
ATOM     30  H   UNL     1       2.625  -0.844  -2.982  0.00  0.00    +0.149 HD
BRANCH  27  31
ATOM     31  C   UNL     1       0.675  -0.270  -1.317  0.00  0.00    +0.098 C 
BRANCH  31  33
ATOM     32  C   UNL     1       0.022   1.833  -0.137  0.00  0.00    +0.008 C 
ATOM     33  C   UNL     1      -0.037   0.305  -0.091  0.00  0.00    -0.008 C 
ATOM     34  C   UNL     1      -1.498  -0.149  -0.090  0.00  0.00    +0.008 C 
ENDBRANCH  31  33
ENDBRANCH  27  31
ENDBRANCH  20  29
ENDBRANCH   1  20
TORSDOF 10
