REMARK  Name = ZINC58848285
REMARK  6 active torsions:
REMARK  status: ('A' for Active; 'I' for Inactive)
REMARK    1  A    between atoms: C_1  and  C_2
REMARK    2  A    between atoms: C_5  and  C_35
REMARK    3  A    between atoms: C_6  and  C_8
REMARK    4  A    between atoms: C_19  and  S_24
REMARK    5  A    between atoms: S_24  and  N_27
REMARK    6  A    between atoms: N_27  and  C_28
REMARK                            x       y       z     vdW  Elec       q    Type
REMARK                         _______ _______ _______ _____ _____    ______ ____
ROOT
ATOM      1  C   UNL     1       4.133  -3.492   4.146  0.00  0.00    +0.105 C 
ATOM      2  C   UNL     1       2.783  -3.564   3.495  0.00  0.00    +0.029 C 
ATOM      3  C   UNL     1       2.424  -2.262   2.749  0.00  0.00    +0.033 C 
ATOM      4  C   UNL     1       0.910  -2.229   2.791  0.00  0.00    -0.030 C 
ATOM      5  C   UNL     1       0.450  -3.036   3.711  0.00  0.00    -0.023 C 
ATOM      6  C   UNL     1       1.591  -3.704   4.438  0.00  0.00    +0.049 C 
ATOM      7  C   UNL     1       1.787  -2.993   5.747  0.00  0.00    -0.018 A 
ATOM      8  C   UNL     1       0.678  -2.787   6.556  0.00  0.00    +0.034 A 
ATOM      9  C   UNL     1       0.805  -2.129   7.763  0.00  0.00    +0.109 A 
ATOM     10  C   UNL     1       2.042  -1.668   8.176  0.00  0.00    +0.030 A 
ATOM     11  C   UNL     1       3.151  -1.872   7.380  0.00  0.00    +0.025 A 
ATOM     12  C   UNL     1       3.026  -2.541   6.165  0.00  0.00    +0.031 A 
ATOM     13  N   UNL     1       4.155  -2.778   5.405  0.00  0.00    -0.336 N 
ATOM     14  H   UNL     1       4.999  -2.422   5.723  0.00  0.00    +0.147 HD
ENDROOT
BRANCH   1  20
ATOM     15  C   UNL     1       6.686   0.575   2.737  0.00  0.00    +0.044 C 
ATOM     16  C   UNL     1       6.306  -0.867   2.521  0.00  0.00    -0.050 A 
ATOM     17  C   UNL     1       6.831  -1.568   1.451  0.00  0.00    +0.003 A 
ATOM     18  C   UNL     1       6.483  -2.890   1.253  0.00  0.00    +0.004 A 
ATOM     19  C   UNL     1       5.609  -3.513   2.125  0.00  0.00    -0.045 A 
ATOM     20  C   UNL     1       5.085  -2.813   3.195  0.00  0.00    -0.024 A 
ATOM     21  C   UNL     1       5.437  -1.491   3.396  0.00  0.00    +0.009 A 
ATOM     22  C   UNL     1       5.228  -4.955   1.908  0.00  0.00    +0.044 C 
ENDBRANCH   1  20
BRANCH   9  23
ATOM     23  S   UNL     1      -0.611  -1.875   8.780  0.00  0.00    +0.072 S 
ATOM     24  O   UNL     1      -0.376  -0.681   9.513  0.00  0.00    -0.150 OA
ATOM     25  O   UNL     1      -1.747  -2.044   7.943  0.00  0.00    -0.150 OA
BRANCH  23  26
ATOM     26  N   UNL     1      -0.649  -3.109   9.883  0.00  0.00    -0.216 N 
ATOM     27  H   UNL     1      -0.571  -2.915  10.831  0.00  0.00    +0.174 HD
BRANCH  26  28
ATOM     28  C   UNL     1      -0.794  -4.429   9.451  0.00  0.00    +0.049 A 
ATOM     29  C   UNL     1      -2.031  -4.886   9.014  0.00  0.00    +0.024 A 
ATOM     30  C   UNL     1      -2.172  -6.192   8.587  0.00  0.00    +0.003 A 
ATOM     31  C   UNL     1      -1.083  -7.045   8.593  0.00  0.00    +0.015 A 
ATOM     32  C   UNL     1       0.150  -6.593   9.027  0.00  0.00    +0.020 A 
ATOM     33  C   UNL     1       0.299  -5.285   9.450  0.00  0.00    +0.039 A 
ATOM     34 BR   UNL     1       1.636  -7.763   9.034  0.00  0.00    -0.050 Br
ENDBRANCH  26  28
ENDBRANCH  23  26
ENDBRANCH   9  23
TORSDOF 4
