REMARK  Name = ZINC39710963
REMARK  9 active torsions:
REMARK  status: ('A' for Active; 'I' for Inactive)
REMARK    1  A    between atoms: C_1  and  C_2
REMARK    2  A    between atoms: C_8  and  C_14
REMARK    3  A    between atoms: C_14  and  C_16
REMARK    4  A    between atoms: C_14  and  N_28
REMARK    5  A    between atoms: N_21  and  C_22
REMARK    6  A    between atoms: N_28  and  C_29
REMARK    7  A    between atoms: N_28  and  C_35
REMARK    8  A    between atoms: C_29  and  C_30
REMARK    9  A    between atoms: C_35  and  C_36
REMARK                            x       y       z     vdW  Elec       q    Type
REMARK                         _______ _______ _______ _____ _____    ______ ____
ROOT
ATOM      1  C   UNL     1      -1.507  -2.897   4.886  0.00  0.00    -0.009 C 
ENDROOT
BRANCH   1   9
ATOM      2  C   UNL     1       1.326  -1.105  -0.256  0.00  0.00    +0.045 C 
ATOM      3  C   UNL     1       1.147  -2.469   0.361  0.00  0.00    -0.029 A 
ATOM      4  C   UNL     1       1.377  -3.581  -0.384  0.00  0.00    +0.005 A 
ATOM      5  C   UNL     1       1.230  -4.872   0.125  0.00  0.00    +0.001 A 
ATOM      6  C   UNL     1       0.844  -5.085   1.410  0.00  0.00    +0.009 A 
ATOM      7  C   UNL     1       0.579  -3.930   2.268  0.00  0.00    -0.007 A 
ATOM      8  C   UNL     1       0.189  -4.097   3.564  0.00  0.00    -0.006 C 
ATOM      9  C   UNL     1      -0.064  -2.844   4.380  0.00  0.00    +0.088 C 
ATOM     10  C   UNL     1       0.137  -1.513   3.691  0.00  0.00    +0.223 C 
ATOM     11  O   UNL     1      -0.051  -0.476   4.299  0.00  0.00    -0.275 OA
ATOM     12  N   UNL     1       0.519  -1.481   2.425  0.00  0.00    -0.284 N 
ATOM     13  C   UNL     1       0.747  -2.579   1.706  0.00  0.00    +0.043 A 
ATOM     14  H   UNL     1       0.642  -0.617   2.002  0.00  0.00    +0.155 HD
ENDBRANCH   1   9
BRANCH   1  15
ATOM     15  C   UNL     1      -1.702  -4.150   5.741  0.00  0.00    +0.205 C 
ATOM     16  N   UNL     1      -0.477  -4.454   6.492  0.00  0.00    -0.152 NA
ATOM     17  N   UNL     1      -0.064  -5.564   6.150  0.00  0.00    -0.070 NA
ATOM     18  N   UNL     1      -0.868  -6.167   5.183  0.00  0.00    -0.179 N 
ATOM     19  N   UNL     1      -1.916  -5.333   4.882  0.00  0.00    -0.185 NA
ATOM     20  H   UNL     1      -0.712  -7.038   4.786  0.00  0.00    +0.191 HD
BRANCH  19  21
ATOM     21  C   UNL     1      -3.204  -5.974   5.179  0.00  0.00    +0.080 C 
ATOM     22  C   UNL     1      -3.174  -6.546   6.598  0.00  0.00    +0.021 C 
ATOM     23  C   UNL     1      -4.515  -7.213   6.908  0.00  0.00    +0.002 C 
ATOM     24  C   UNL     1      -4.765  -8.344   5.908  0.00  0.00    +0.000 C 
ATOM     25  C   UNL     1      -4.796  -7.772   4.489  0.00  0.00    +0.002 C 
ATOM     26  C   UNL     1      -3.454  -7.104   4.179  0.00  0.00    +0.021 C 
ENDBRANCH  19  21
ENDBRANCH   1  15
BRANCH   1  27
ATOM     27  N   UNL     1      -1.786  -1.703   5.695  0.00  0.00    +0.389 N 
ATOM     28  H   UNL     1      -1.622  -0.875   5.142  0.00  0.00    -0.081 HD
BRANCH  27  29
ATOM     29  C   UNL     1      -0.903  -1.690   6.869  0.00  0.00    -0.035 C 
BRANCH  29  30
ATOM     30  C   UNL     1       0.396  -1.013   6.513  0.00  0.00    -0.027 A 
ATOM     31  C   UNL     1       0.731   0.297   6.612  0.00  0.00    +0.009 A 
ATOM     32  C   UNL     1       1.995   0.696   6.222  0.00  0.00    +0.008 A 
ATOM     33  C   UNL     1       2.863  -0.233   5.753  0.00  0.00    +0.045 A 
ATOM     34  S   UNL     1       1.895  -1.729   5.859  0.00  0.00    -0.103 S 
ENDBRANCH  29  30
ENDBRANCH  27  29
BRANCH  27  35
ATOM     35  C   UNL     1      -3.187  -1.727   6.137  0.00  0.00    -0.046 C 
BRANCH  35  36
ATOM     36  C   UNL     1      -4.106  -1.539   4.929  0.00  0.00    +0.102 C 
ATOM     37  C   UNL     1      -5.570  -1.401   5.400  0.00  0.00    +0.032 C 
ATOM     38  C   UNL     1      -6.341  -2.205   4.318  0.00  0.00    +0.030 C 
ATOM     39  C   UNL     1      -5.318  -3.323   3.996  0.00  0.00    +0.160 C 
ATOM     40  O   UNL     1      -4.030  -2.687   4.076  0.00  0.00    -0.378 OA
ENDBRANCH  35  36
ENDBRANCH  27  35
ENDBRANCH   1  27
TORSDOF 8
