REMARK  Name = ZINC12504438
REMARK  13 active torsions:
REMARK  status: ('A' for Active; 'I' for Inactive)
REMARK    1  A    between atoms: C_7  and  N_14
REMARK    2  A    between atoms: N_14  and  C_15
REMARK    3  A    between atoms: C_15  and  C_16
REMARK    4  A    between atoms: C_16  and  C_17
REMARK    5  A    between atoms: C_17  and  C_18
REMARK    6  A    between atoms: C_18  and  C_19
REMARK    7  A    between atoms: C_19  and  C_20
REMARK    8  A    between atoms: C_20  and  C_21
REMARK    9  A    between atoms: C_21  and  C_22
REMARK   10  A    between atoms: C_22  and  C_23
REMARK   11  A    between atoms: C_23  and  C_24
REMARK   12  A    between atoms: C_24  and  N_81
REMARK   13  A    between atoms: C_25  and  N_81
REMARK                            x       y       z     vdW  Elec       q    Type
REMARK                         _______ _______ _______ _____ _____    ______ ____
ROOT
ATOM      1  C   UNL     1      -4.245   2.014  -7.527  0.00  0.00    +0.000 C 
ENDROOT
BRANCH   1   2
ATOM      2  C   UNL     1      -4.131   2.906  -6.289  0.00  0.00    +0.002 C 
BRANCH   2   3
ATOM      3  C   UNL     1      -2.667   2.985  -5.851  0.00  0.00    +0.019 C 
BRANCH   3   4
ATOM      4  C   UNL     1      -2.553   3.877  -4.613  0.00  0.00    +0.101 C 
BRANCH   4   5
ATOM      5  N   UNL     1      -1.148   3.952  -4.192  0.00  0.00    -0.343 N 
ATOM      6  H   UNL     1      -0.572   4.345  -4.921  0.00  0.00    +0.146 HD
BRANCH   5  13
ATOM      7  C   UNL     1      -0.882   8.163  -4.212  0.00  0.00    +0.001 A 
ATOM      8  C   UNL     1      -0.756   8.846  -3.005  0.00  0.00    +0.002 A 
ATOM      9  C   UNL     1      -0.716   8.177  -1.820  0.00  0.00    +0.026 A 
ATOM     10  C   UNL     1      -0.802   6.774  -1.808  0.00  0.00    +0.048 A 
ATOM     11  C   UNL     1      -0.931   6.083  -3.038  0.00  0.00    +0.019 A 
ATOM     12  C   UNL     1      -0.968   6.803  -4.239  0.00  0.00    +0.012 A 
ATOM     13  C   UNL     1      -1.020   4.674  -3.015  0.00  0.00    +0.041 A 
ATOM     14  C   UNL     1      -0.976   4.026  -1.784  0.00  0.00    -0.007 A 
ATOM     15  C   UNL     1      -0.844   4.768  -0.623  0.00  0.00    +0.021 A 
ATOM     16  C   UNL     1      -0.776   4.122   0.738  0.00  0.00    +0.053 C 
ATOM     17  C   UNL     1      -1.308   2.692   0.682  0.00  0.00    +0.006 C 
ATOM     18  C   UNL     1      -0.592   1.952  -0.453  0.00  0.00    +0.005 C 
ATOM     19  C   UNL     1      -1.079   2.524  -1.783  0.00  0.00    +0.039 C 
ATOM     20  N   UNL     1      -0.757   6.131  -0.591  0.00  0.00    -0.358 N 
ATOM     21  H   UNL     1      -0.664   6.647   0.291  0.00  0.00    +0.166 HD
ENDBRANCH   5  13
ENDBRANCH   4   5
ENDBRANCH   3   4
ENDBRANCH   2   3
ENDBRANCH   1   2
BRANCH   1  22
ATOM     22  C   UNL     1      -5.709   1.935  -7.966  0.00  0.00    +0.000 C 
BRANCH  22  23
ATOM     23  C   UNL     1      -5.823   1.043  -9.204  0.00  0.00    -0.000 C 
BRANCH  23  24
ATOM     24  C   UNL     1      -7.287   0.965  -9.642  0.00  0.00    -0.000 C 
BRANCH  24  25
ATOM     25  C   UNL     1      -7.401   0.073 -10.880  0.00  0.00    -0.002 C 
BRANCH  25  26
ATOM     26  C   UNL     1      -8.865  -0.006 -11.319  0.00  0.00    -0.019 C 
BRANCH  26  27
ATOM     27  C   UNL     1      -8.979  -0.898 -12.556  0.00  0.00    -0.082 C 
BRANCH  27  28
ATOM     28  N   UNL     1     -10.392  -0.968 -12.973  0.00  0.00    +0.384 N 
ATOM     29  H   UNL     1     -10.714  -0.029 -13.238  0.00  0.00    -0.085 HD
ATOM     30  H   UNL     1     -10.959  -1.316 -12.191  0.00  0.00    -0.085 HD
BRANCH  28  31
ATOM     31  C   UNL     1     -10.542  -1.877 -14.125  0.00  0.00    -0.039 C 
ATOM     32  C   UNL     1     -10.677  -3.312 -13.620  0.00  0.00    -0.011 C 
ATOM     33  C   UNL     1     -11.065  -4.203 -14.806  0.00  0.00    +0.005 C 
ATOM     34  C   UNL     1     -12.491  -3.850 -15.223  0.00  0.00    +0.053 C 
ATOM     35  C   UNL     1     -12.637  -2.362 -15.417  0.00  0.00    +0.021 A 
ATOM     36  C   UNL     1     -11.762  -1.472 -14.911  0.00  0.00    -0.042 A 
ATOM     37  C   UNL     1     -11.974  -0.093 -15.113  0.00  0.00    +0.009 A 
ATOM     38  C   UNL     1     -13.055   0.331 -15.822  0.00  0.00    +0.070 A 
ATOM     39  C   UNL     1     -13.944  -0.624 -16.343  0.00  0.00    +0.249 A 
ATOM     40  O   UNL     1     -14.920  -0.267 -16.985  0.00  0.00    -0.268 OA
ATOM     41  N   UNL     1     -13.717  -1.931 -16.134  0.00  0.00    -0.326 N 
ATOM     42  H   UNL     1     -14.334  -2.583 -16.500  0.00  0.00    +0.169 HD
ENDBRANCH  28  31
ENDBRANCH  27  28
ENDBRANCH  26  27
ENDBRANCH  25  26
ENDBRANCH  24  25
ENDBRANCH  23  24
ENDBRANCH  22  23
ENDBRANCH   1  22
TORSDOF 13
