REMARK  Name = ZINC65265852
REMARK  4 active torsions:
REMARK  status: ('A' for Active; 'I' for Inactive)
REMARK    1  A    between atoms: C_1  and  C_2
REMARK    2  A    between atoms: C_4  and  C_8
REMARK    3  A    between atoms: N_25  and  C_26
REMARK    4  A    between atoms: C_26  and  C_27
REMARK                            x       y       z     vdW  Elec       q    Type
REMARK                         _______ _______ _______ _____ _____    ______ ____
ROOT
ATOM      1  C   UNL     1      -0.969  -2.926  -1.248  0.00  0.00    +0.246 C 
ATOM      2  O   UNL     1      -0.211  -3.035  -2.188  0.00  0.00    -0.273 OA
ATOM      3  N   UNL     1      -2.204  -3.463  -1.312  0.00  0.00    -0.297 N 
ATOM      4  C   UNL     1      -3.222  -3.399  -0.252  0.00  0.00    +0.110 C 
ATOM      5  C   UNL     1      -4.480  -4.126  -0.778  0.00  0.00    +0.050 C 
ATOM      6  C   UNL     1      -4.280  -4.094  -2.302  0.00  0.00    +0.091 C 
ATOM      7  C   UNL     1      -2.760  -4.206  -2.461  0.00  0.00    +0.137 C 
ATOM      8  C   UNL     1      -5.003  -5.202  -2.988  0.00  0.00    +0.095 C 
ATOM      9  N   UNL     1      -5.381  -4.976  -4.289  0.00  0.00    -0.303 N 
ATOM     10  C   UNL     1      -6.621  -4.396  -4.540  0.00  0.00    +0.037 A 
ATOM     11  C   UNL     1      -7.444  -4.917  -5.529  0.00  0.00    +0.023 A 
ATOM     12  C   UNL     1      -8.668  -4.335  -5.790  0.00  0.00    +0.002 A 
ATOM     13  C   UNL     1      -9.065  -3.230  -5.059  0.00  0.00    +0.000 A 
ATOM     14  C   UNL     1      -8.251  -2.717  -4.072  0.00  0.00    +0.007 A 
ATOM     15  C   UNL     1      -7.017  -3.296  -3.790  0.00  0.00    -0.012 A 
ATOM     16  C   UNL     1      -6.218  -2.681  -2.670  0.00  0.00    +0.119 C 
ATOM     17  N   UNL     1      -4.768  -2.817  -2.866  0.00  0.00    -0.299 NA
ATOM     18  N   UNL     1      -5.263  -6.319  -2.389  0.00  0.00    -0.371 N 
ATOM     19  H   UNL     1      -4.274  -2.033  -2.467  0.00  0.00    +0.123 HD
ATOM     20  H   UNL     1      -4.985  -6.452  -1.469  0.00  0.00    +0.161 HD
ATOM     21  H   UNL     1      -4.792  -5.215  -5.022  0.00  0.00    +0.153 HD
ENDROOT
BRANCH   1  25
ATOM     22  C   UNL     1      -0.018   1.503   0.010  0.00  0.00    +0.067 C 
ATOM     23  C   UNL     1       0.002  -0.004   0.002  0.00  0.00    +0.059 C 
ATOM     24  C   UNL     1      -1.086  -0.777   0.003  0.00  0.00    +0.035 C 
ATOM     25  C   UNL     1      -0.531  -2.190  -0.007  0.00  0.00    +0.238 C 
ATOM     26  N   UNL     1       0.926  -1.973  -0.013  0.00  0.00    -0.170 NA
ATOM     27  N   UNL     1       1.125  -0.756  -0.013  0.00  0.00    -0.159 NA
ENDBRANCH   1  25
BRANCH  18  28
ATOM     28  C   UNL     1      -5.976  -7.383  -3.100  0.00  0.00    +0.149 C 
BRANCH  28  29
ATOM     29  C   UNL     1      -6.150  -8.569  -2.186  0.00  0.00    -0.028 A 
ATOM     30  C   UNL     1      -5.183  -9.556  -2.143  0.00  0.00    +0.005 A 
ATOM     31  C   UNL     1      -5.342 -10.643  -1.304  0.00  0.00    +0.000 A 
ATOM     32  C   UNL     1      -6.468 -10.743  -0.509  0.00  0.00    +0.000 A 
ATOM     33  C   UNL     1      -7.435  -9.756  -0.552  0.00  0.00    +0.000 A 
ATOM     34  C   UNL     1      -7.273  -8.666  -1.387  0.00  0.00    +0.005 A 
ENDBRANCH  28  29
ENDBRANCH  18  28
TORSDOF 3
