REMARK  Name = ZINC64477765
REMARK  5 active torsions:
REMARK  status: ('A' for Active; 'I' for Inactive)
REMARK    1  A    between atoms: C_1  and  N_2
REMARK    2  A    between atoms: C_6  and  N_13
REMARK    3  A    between atoms: N_9  and  C_12
REMARK    4  A    between atoms: N_13  and  S_14
REMARK    5  A    between atoms: S_14  and  C_17
REMARK                            x       y       z     vdW  Elec       q    Type
REMARK                         _______ _______ _______ _____ _____    ______ ____
ROOT
ATOM      1  N   UNL     1      -3.808  -4.024  -0.002  0.00  0.00    -0.216 N 
ATOM      2  H   UNL     1      -3.667  -4.781   0.588  0.00  0.00    +0.174 HD
ENDROOT
BRANCH   1   8
ATOM      3  C   UNL     1      -0.018   1.461   0.010  0.00  0.00    +0.154 C 
ATOM      4  N   UNL     1       0.002  -0.004   0.002  0.00  0.00    -0.295 N 
ATOM      5  C   UNL     1      -1.118  -0.836   0.003  0.00  0.00    +0.070 A 
ATOM      6  C   UNL     1      -2.483  -0.592   0.011  0.00  0.00    +0.030 A 
ATOM      7  C   UNL     1      -3.372  -1.649   0.009  0.00  0.00    +0.026 A 
ATOM      8  C   UNL     1      -2.903  -2.958  -0.001  0.00  0.00    +0.050 A 
ATOM      9  C   UNL     1      -1.539  -3.208  -0.009  0.00  0.00    +0.052 A 
ATOM     10  C   UNL     1      -0.644  -2.150  -0.007  0.00  0.00    +0.071 A 
ATOM     11  N   UNL     1       0.747  -2.075  -0.014  0.00  0.00    -0.295 N 
ATOM     12  C   UNL     1       1.104  -0.777  -0.013  0.00  0.00    +0.330 A 
ATOM     13  O   UNL     1       2.249  -0.365  -0.022  0.00  0.00    -0.246 OA
ATOM     14  C   UNL     1       1.666  -3.217  -0.025  0.00  0.00    +0.154 C 
ENDBRANCH   1   8
BRANCH   1  15
ATOM     15  S   UNL     1      -5.123  -3.993  -1.008  0.00  0.00    +0.072 S 
ATOM     16  O   UNL     1      -5.825  -5.210  -0.798  0.00  0.00    -0.150 OA
ATOM     17  O   UNL     1      -5.735  -2.721  -0.839  0.00  0.00    -0.150 OA
BRANCH  15  18
ATOM     18  C   UNL     1      -4.514  -4.042  -2.661  0.00  0.00    +0.109 A 
ATOM     19  C   UNL     1      -4.227  -2.865  -3.328  0.00  0.00    +0.029 A 
ATOM     20  C   UNL     1      -3.750  -2.906  -4.623  0.00  0.00    +0.006 A 
ATOM     21  C   UNL     1      -3.558  -4.122  -5.258  0.00  0.00    -0.044 A 
ATOM     22  C   UNL     1      -3.846  -5.299  -4.591  0.00  0.00    -0.042 A 
ATOM     23  C   UNL     1      -4.319  -5.256  -3.290  0.00  0.00    +0.032 A 
ATOM     24  C   UNL     1      -3.556  -6.481  -5.491  0.00  0.00    +0.036 C 
ATOM     25  C   UNL     1      -3.479  -5.894  -6.917  0.00  0.00    +0.009 C 
ATOM     26  C   UNL     1      -3.055  -4.433  -6.651  0.00  0.00    +0.036 C 
ENDBRANCH  15  18
ENDBRANCH   1  15
TORSDOF 3
