REMARK  Name = ZINC59409191
REMARK  8 active torsions:
REMARK  status: ('A' for Active; 'I' for Inactive)
REMARK    1  A    between atoms: C_1  and  O_2
REMARK    2  A    between atoms: O_2  and  C_3
REMARK    3  A    between atoms: C_5  and  C_21
REMARK    4  A    between atoms: C_8  and  O_9
REMARK    5  A    between atoms: O_9  and  C_10
REMARK    6  A    between atoms: C_10  and  C_11
REMARK    7  A    between atoms: C_15  and  N_17
REMARK    8  A    between atoms: C_25  and  C_27
REMARK                            x       y       z     vdW  Elec       q    Type
REMARK                         _______ _______ _______ _____ _____    ______ ____
ROOT
ATOM      1  C   UNL     1      -1.201  -0.638   0.010  0.00  0.00    +0.163 A 
ATOM      2  C   UNL     1      -2.374   0.100   0.019  0.00  0.00    +0.055 A 
ATOM      3  C   UNL     1      -3.597  -0.546   0.028  0.00  0.00    -0.011 A 
ATOM      4  C   UNL     1      -3.653  -1.927   0.028  0.00  0.00    +0.025 A 
ATOM      5  C   UNL     1      -2.486  -2.669   0.018  0.00  0.00    +0.063 A 
ATOM      6  C   UNL     1      -1.257  -2.028   0.003  0.00  0.00    +0.176 A 
ATOM      7 BR   UNL     1      -2.567  -4.559   0.019  0.00  0.00    -0.046 Br
ENDROOT
BRANCH   3   8
ATOM      8  C   UNL     1      -4.871   0.258   0.039  0.00  0.00    +0.183 C 
ATOM      9  N   UNL     1      -5.984  -0.504   0.650  0.00  0.00    -0.250 N 
ATOM     10  N   UNL     1      -7.045  -0.766  -0.187  0.00  0.00    -0.178 NA
ATOM     11  C   UNL     1      -7.087  -0.381  -1.427  0.00  0.00    +0.124 C 
ATOM     12  S   UNL     1      -5.538   0.480  -1.662  0.00  0.00    -0.075 S 
ATOM     13  H   UNL     1      -5.966  -0.797   1.574  0.00  0.00    +0.170 HD
BRANCH  11  14
ATOM     14  C   UNL     1      -8.165  -0.602  -2.414  0.00  0.00    +0.008 A 
ATOM     15  C   UNL     1      -8.033  -0.116  -3.716  0.00  0.00    +0.010 A 
ATOM     16  C   UNL     1      -9.042  -0.326  -4.633  0.00  0.00    +0.001 A 
ATOM     17  C   UNL     1     -10.184  -1.016  -4.264  0.00  0.00    +0.000 A 
ATOM     18  C   UNL     1     -10.320  -1.500  -2.975  0.00  0.00    +0.001 A 
ATOM     19  C   UNL     1      -9.316  -1.302  -2.050  0.00  0.00    +0.010 A 
ENDBRANCH  11  14
ENDBRANCH   3   8
BRANCH   1  21
ATOM     20  C   UNL     1      -0.017   1.425   0.010  0.00  0.00    +0.277 C 
ATOM     21  O   UNL     1       0.002  -0.004   0.002  0.00  0.00    -0.491 OA
ENDBRANCH   1  21
BRANCH   6  22
ATOM     22  O   UNL     1      -0.108  -2.756  -0.012  0.00  0.00    -0.483 OA
BRANCH  22  23
ATOM     23  C   UNL     1       0.452  -3.110   1.254  0.00  0.00    +0.264 C 
BRANCH  23  24
ATOM     24  C   UNL     1       1.712  -3.909   1.040  0.00  0.00    -0.008 A 
ATOM     25  C   UNL     1       1.648  -5.286   0.938  0.00  0.00    +0.007 A 
ATOM     26  C   UNL     1       2.804  -6.019   0.741  0.00  0.00    +0.003 A 
ATOM     27  C   UNL     1       4.024  -5.374   0.648  0.00  0.00    +0.033 A 
ATOM     28  C   UNL     1       4.087  -3.997   0.750  0.00  0.00    +0.127 A 
ATOM     29  C   UNL     1       2.931  -3.264   0.942  0.00  0.00    +0.039 A 
BRANCH  28  30
ATOM     30  N   UNL     1       5.393  -3.307   0.650  0.00  0.00    +0.056 N 
ATOM     31  O   UNL     1       6.404  -3.948   0.480  0.00  0.00    -0.126 OA
ATOM     32  O   UNL     1       5.448  -2.103   0.740  0.00  0.00    -0.126 OA
ENDBRANCH  28  30
ENDBRANCH  23  24
ENDBRANCH  22  23
ENDBRANCH   6  22
TORSDOF 7
