REMARK  Name = ZINC40845569
REMARK  7 active torsions:
REMARK  status: ('A' for Active; 'I' for Inactive)
REMARK    1  A    between atoms: C_1  and  C_2
REMARK    2  A    between atoms: C_2  and  C_4
REMARK    3  A    between atoms: C_2  and  O_20
REMARK    4  A    between atoms: N_6  and  N_7
REMARK    5  A    between atoms: C_8  and  C_9
REMARK    6  A    between atoms: C_18  and  O_19
REMARK    7  A    between atoms: O_20  and  C_21
REMARK                            x       y       z     vdW  Elec       q    Type
REMARK                         _______ _______ _______ _____ _____    ______ ____
ROOT
ATOM      1  C   UNL     1      -1.437  -0.319  -0.517  0.00  0.00    +0.273 C 
ATOM      2  O   UNL     1      -1.801  -0.688  -1.614  0.00  0.00    -0.270 OA
ATOM      3  N   UNL     1      -2.316  -0.268   0.503  0.00  0.00    -0.204 N 
ATOM      4  H   UNL     1      -2.011  -0.041   1.395  0.00  0.00    +0.177 HD
ENDROOT
BRANCH   1   6
ATOM      5  C   UNL     1       0.069   1.581   0.003  0.00  0.00    +0.062 C 
ATOM      6  C   UNL     1      -0.001   0.083  -0.296  0.00  0.00    +0.257 C 
BRANCH   6   7
ATOM      7  O   UNL     1       0.760  -0.205  -1.470  0.00  0.00    -0.480 OA
BRANCH   7   8
ATOM      8  C   UNL     1       2.098  -0.383  -1.310  0.00  0.00    +0.122 A 
ATOM      9  C   UNL     1       2.672  -0.241  -0.055  0.00  0.00    +0.047 A 
ATOM     10  C   UNL     1       4.032  -0.423   0.106  0.00  0.00    +0.023 A 
ATOM     11  C   UNL     1       4.822  -0.744  -0.984  0.00  0.00    +0.041 A 
ATOM     12  C   UNL     1       4.252  -0.885  -2.236  0.00  0.00    +0.023 A 
ATOM     13  C   UNL     1       2.891  -0.711  -2.400  0.00  0.00    +0.047 A 
ATOM     14 CL   UNL     1       6.531  -0.971  -0.779  0.00  0.00    -0.084 Cl
ENDBRANCH   7   8
ENDBRANCH   6   7
ENDBRANCH   1   6
BRANCH   3  15
ATOM     15  N   UNL     1      -3.671  -0.543   0.275  0.00  0.00    -0.187 NA
ATOM     16  C   UNL     1      -4.535  -0.389   1.233  0.00  0.00    +0.142 C 
BRANCH  16  17
ATOM     17  C   UNL     1      -4.117   0.201   2.513  0.00  0.00    +0.044 A 
ATOM     18  C   UNL     1      -4.327  -0.515   3.769  0.00  0.00    -0.006 A 
ATOM     19  C   UNL     1      -4.930  -1.778   3.798  0.00  0.00    +0.009 A 
ATOM     20  C   UNL     1      -5.108  -2.413   4.992  0.00  0.00    +0.001 A 
ATOM     21  C   UNL     1      -4.698  -1.821   6.184  0.00  0.00    +0.001 A 
ATOM     22  C   UNL     1      -4.108  -0.594   6.192  0.00  0.00    +0.008 A 
ATOM     23  C   UNL     1      -3.909   0.089   4.980  0.00  0.00    -0.017 A 
ATOM     24  C   UNL     1      -3.303   1.358   4.949  0.00  0.00    +0.012 A 
ATOM     25  C   UNL     1      -3.115   2.010   3.771  0.00  0.00    +0.046 A 
ATOM     26  C   UNL     1      -3.506   1.454   2.553  0.00  0.00    +0.126 A 
BRANCH  26  27
ATOM     27  O   UNL     1      -3.293   2.139   1.400  0.00  0.00    -0.506 OA
ATOM     28  H   UNL     1      -3.988   2.777   1.188  0.00  0.00    +0.292 HD
ENDBRANCH  26  27
ENDBRANCH  16  17
ENDBRANCH   3  15
TORSDOF 6
