REMARK  Name = ZINC23595283
REMARK  8 active torsions:
REMARK  status: ('A' for Active; 'I' for Inactive)
REMARK    1  A    between atoms: C_1  and  C_2
REMARK    2  A    between atoms: C_2  and  C_3
REMARK    3  A    between atoms: C_8  and  N_9
REMARK    4  A    between atoms: C_12  and  C_17
REMARK    5  A    between atoms: C_17  and  S_18
REMARK    6  A    between atoms: S_18  and  C_19
REMARK    7  A    between atoms: C_22  and  C_25
REMARK    8  A    between atoms: N_23  and  C_24
REMARK                            x       y       z     vdW  Elec       q    Type
REMARK                         _______ _______ _______ _____ _____    ______ ____
ROOT
ATOM      1  N   UNL     1       8.091   3.145   1.923  0.00  0.00    -0.283 N 
ATOM      2  C   UNL     1       7.435   3.175   0.708  0.00  0.00    +0.224 A 
ATOM      3  N   UNL     1       6.201   2.687   0.605  0.00  0.00    -0.198 NA
ATOM      4  C   UNL     1       5.574   2.709  -0.558  0.00  0.00    +0.146 A 
ATOM      5  N   UNL     1       6.165   3.226  -1.621  0.00  0.00    -0.199 NA
ATOM      6  C   UNL     1       7.397   3.721  -1.525  0.00  0.00    +0.217 A 
ATOM      7  N   UNL     1       8.032   3.695  -0.358  0.00  0.00    -0.181 NA
ATOM      8  N   UNL     1       8.014   4.260  -2.636  0.00  0.00    -0.327 N 
ATOM      9  H   UNL     1       7.563   2.802   2.825  0.00  0.00    +0.155 HD
ATOM     10  H   UNL     1       9.032   4.669  -2.555  0.00  0.00    +0.145 HD
ATOM     11  H   UNL     1       7.487   4.281  -3.601  0.00  0.00    +0.145 HD
ENDROOT
BRANCH   1  17
ATOM     12  C   UNL     1       9.914   4.105   3.183  0.00  0.00    -0.026 A 
ATOM     13  C   UNL     1      11.233   4.504   3.262  0.00  0.00    +0.005 A 
ATOM     14  C   UNL     1      12.070   4.353   2.172  0.00  0.00    +0.000 A 
ATOM     15  C   UNL     1      11.588   3.801   0.998  0.00  0.00    +0.002 A 
ATOM     16  C   UNL     1      10.271   3.396   0.914  0.00  0.00    +0.023 A 
ATOM     17  C   UNL     1       9.427   3.551   2.006  0.00  0.00    +0.037 A 
BRANCH  12  19
ATOM     18  C   UNL     1       8.967   2.967   5.173  0.00  0.00    +0.009 C 
ATOM     19  C   UNL     1       9.003   4.270   4.372  0.00  0.00    +0.033 C 
ENDBRANCH  12  19
ENDBRANCH   1  17
BRANCH   4  20
ATOM     20  C   UNL     1       4.179   2.150  -0.672  0.00  0.00    +0.153 C 
BRANCH  20  21
ATOM     21  S   UNL     1       4.267   0.394  -1.103  0.00  0.00    -0.078 S 
BRANCH  21  22
ATOM     22  C   UNL     1       2.549   0.009  -1.168  0.00  0.00    +0.192 A 
ATOM     23  N   UNL     1       1.555   0.840  -0.948  0.00  0.00    -0.122 NA
ATOM     24  N   UNL     1       0.431   0.230  -1.079  0.00  0.00    -0.128 NA
ATOM     25  C   UNL     1       0.639  -1.029  -1.390  0.00  0.00    +0.167 A 
ATOM     26  N   UNL     1       2.001  -1.209  -1.457  0.00  0.00    -0.305 N 
ATOM     27  C   UNL     1       2.716  -2.448  -1.773  0.00  0.00    +0.153 C 
BRANCH  25  28
ATOM     28  C   UNL     1      -0.396  -2.058  -1.626  0.00  0.00    +0.054 A 
ATOM     29  C   UNL     1      -0.238  -2.989  -2.654  0.00  0.00    +0.014 A 
ATOM     30  C   UNL     1      -1.207  -3.946  -2.868  0.00  0.00    +0.001 A 
ATOM     31  C   UNL     1      -2.335  -3.987  -2.067  0.00  0.00    +0.003 A 
ATOM     32  C   UNL     1      -2.499  -3.069  -1.046  0.00  0.00    +0.039 A 
ATOM     33  C   UNL     1      -1.534  -2.107  -0.816  0.00  0.00    +0.134 A 
ATOM     34  F   UNL     1      -1.692  -1.213   0.185  0.00  0.00    -0.205 F 
ENDBRANCH  25  28
ENDBRANCH  21  22
ENDBRANCH  20  21
ENDBRANCH   4  20
TORSDOF 6
