REMARK  Name = ZINC22455960
REMARK  5 active torsions:
REMARK  status: ('A' for Active; 'I' for Inactive)
REMARK    1  A    between atoms: C_1  and  C_2
REMARK    2  A    between atoms: C_2  and  C_3
REMARK    3  A    between atoms: C_6  and  N_9
REMARK    4  A    between atoms: N_13  and  C_15
REMARK    5  A    between atoms: C_23  and  C_28
REMARK                            x       y       z     vdW  Elec       q    Type
REMARK                         _______ _______ _______ _____ _____    ______ ____
ROOT
ATOM      1  N   UNL     1       0.002  -0.004   0.002  0.00  0.00    -0.297 N 
ATOM      2  C   UNL     1      -0.017   1.390   0.005  0.00  0.00    +0.156 A 
ATOM      3  C   UNL     1       1.133   2.272   0.009  0.00  0.00    +0.080 A 
ATOM      4  C   UNL     1       0.645   3.578   0.009  0.00  0.00    +0.058 A 
ATOM      5  N   UNL     1      -0.685   3.505   0.007  0.00  0.00    -0.234 N 
ATOM      6  N   UNL     1      -1.083   2.161  -0.002  0.00  0.00    -0.150 NA
ATOM      7  C   UNL     1       1.545   4.787   0.009  0.00  0.00    +0.068 C 
ATOM      8  C   UNL     1       2.934   4.381  -0.493  0.00  0.00    +0.068 C 
ATOM      9  C   UNL     1       3.467   3.181   0.296  0.00  0.00    +0.091 C 
ATOM     10  C   UNL     1       2.571   1.984   0.017  0.00  0.00    +0.169 C 
ATOM     11  O   UNL     1       3.013   0.872  -0.185  0.00  0.00    -0.292 OA
ATOM     12  H   UNL     1       0.958  -0.541  -0.089  0.00  0.00    +0.154 HD
ENDROOT
BRANCH   5  13
ATOM     13  C   UNL     1      -1.553   4.604   0.008  0.00  0.00    +0.066 A 
ATOM     14  C   UNL     1      -1.215   5.757   0.705  0.00  0.00    +0.029 A 
ATOM     15  C   UNL     1      -2.071   6.841   0.700  0.00  0.00    +0.022 A 
ATOM     16  C   UNL     1      -3.269   6.775   0.010  0.00  0.00    +0.041 A 
ATOM     17  C   UNL     1      -3.611   5.625  -0.680  0.00  0.00    +0.022 A 
ATOM     18  C   UNL     1      -2.756   4.541  -0.683  0.00  0.00    +0.029 A 
ATOM     19 CL   UNL     1      -4.345   8.138   0.011  0.00  0.00    -0.084 Cl
ENDBRANCH   5  13
BRANCH   1  23
ATOM     20  C   UNL     1      -3.559  -2.136   0.339  0.00  0.00    -0.048 A 
ATOM     21  C   UNL     1      -2.465  -2.714  -0.279  0.00  0.00    +0.005 A 
ATOM     22  C   UNL     1      -1.282  -2.010  -0.392  0.00  0.00    +0.023 A 
ATOM     23  C   UNL     1      -1.193  -0.720   0.115  0.00  0.00    +0.032 A 
ATOM     24  C   UNL     1      -2.292  -0.144   0.740  0.00  0.00    +0.023 A 
ATOM     25  C   UNL     1      -3.473  -0.852   0.845  0.00  0.00    +0.005 A 
BRANCH  20  27
ATOM     26  C   UNL     1      -4.847  -3.699   1.770  0.00  0.00    +0.009 C 
ATOM     27  C   UNL     1      -4.848  -2.908   0.460  0.00  0.00    +0.032 C 
ENDBRANCH  20  27
ENDBRANCH   1  23
BRANCH   8  28
ATOM     28  C   UNL     1       3.879   5.543  -0.329  0.00  0.00    +0.109 A 
ATOM     29  C   UNL     1       4.535   6.170  -1.322  0.00  0.00    +0.045 A 
ATOM     30  C   UNL     1       5.305   7.192  -0.723  0.00  0.00    +0.041 A 
ATOM     31  C   UNL     1       5.074   7.130   0.601  0.00  0.00    +0.195 A 
ATOM     32  O   UNL     1       4.205   6.132   0.833  0.00  0.00    -0.468 OA
ENDBRANCH   8  28
TORSDOF 4
