REMARK  Name = ZINC38687536
REMARK  12 active torsions:
REMARK  status: ('A' for Active; 'I' for Inactive)
REMARK    1  A    between atoms: C_1  and  C_2
REMARK    2  A    between atoms: C_2  and  C_3
REMARK    3  A    between atoms: C_3  and  O_4
REMARK    4  A    between atoms: O_4  and  C_5
REMARK    5  A    between atoms: C_8  and  C_11
REMARK    6  A    between atoms: C_16  and  O_25
REMARK    7  A    between atoms: C_20  and  N_24
REMARK    8  A    between atoms: C_21  and  C_22
REMARK    9  A    between atoms: O_25  and  C_26
REMARK   10  A    between atoms: C_26  and  C_28
REMARK   11  A    between atoms: C_29  and  C_38
REMARK   12  A    between atoms: C_32  and  C_37
REMARK                            x       y       z     vdW  Elec       q    Type
REMARK                         _______ _______ _______ _____ _____    ______ ____
ROOT
ATOM      1  C   UNL     1       3.279  -4.476  -5.644  0.00  0.00    +0.098 C 
ATOM      2  C   UNL     1       2.266  -5.321  -6.371  0.00  0.00    +0.008 A 
ATOM      3  C   UNL     1       1.273  -4.705  -7.112  0.00  0.00    +0.012 A 
ATOM      4  C   UNL     1       0.336  -5.463  -7.785  0.00  0.00    +0.047 A 
ATOM      5  C   UNL     1       0.388  -6.849  -7.719  0.00  0.00    +0.136 A 
ATOM      6  C   UNL     1       1.380  -7.468  -6.977  0.00  0.00    +0.093 A 
ATOM      7  C   UNL     1       2.322  -6.704  -6.301  0.00  0.00    +0.138 A 
ATOM      8  O   UNL     1       3.287  -7.326  -5.579  0.00  0.00    -0.441 OA
ATOM      9  C   UNL     1       4.407  -6.662  -5.247  0.00  0.00    +0.199 C 
ATOM     10  C   UNL     1       4.467  -5.313  -5.257  0.00  0.00    +0.098 C 
ENDROOT
BRANCH   1  14
ATOM     11  C   UNL     1       1.494  -2.838  -2.124  0.00  0.00    +0.121 A 
ATOM     12  C   UNL     1       1.989  -1.996  -3.108  0.00  0.00    +0.046 A 
ATOM     13  C   UNL     1       2.566  -2.528  -4.245  0.00  0.00    +0.008 A 
ATOM     14  C   UNL     1       2.650  -3.899  -4.403  0.00  0.00    -0.034 A 
ATOM     15  C   UNL     1       2.157  -4.741  -3.423  0.00  0.00    +0.008 A 
ATOM     16  C   UNL     1       1.584  -4.214  -2.282  0.00  0.00    +0.046 A 
BRANCH  11  17
ATOM     17  O   UNL     1       0.926  -2.318  -1.005  0.00  0.00    -0.492 OA
BRANCH  17  18
ATOM     18  C   UNL     1       0.867  -0.893  -0.910  0.00  0.00    +0.229 C 
BRANCH  18  20
ATOM     19  C   UNL     1       0.137   1.028   0.510  0.00  0.00    +0.007 C 
ATOM     20  C   UNL     1       0.200  -0.497   0.409  0.00  0.00    +0.038 C 
ENDBRANCH  18  20
ENDBRANCH  17  18
ENDBRANCH  11  17
ENDBRANCH   1  14
BRANCH   9  21
ATOM     21  N   UNL     1       5.522  -7.377  -4.885  0.00  0.00    -0.328 N 
ATOM     22  H   UNL     1       5.494  -8.346  -4.872  0.00  0.00    +0.145 HD
ATOM     23  H   UNL     1       6.338  -6.912  -4.643  0.00  0.00    +0.145 HD
ENDBRANCH   9  21
BRANCH  10  24
ATOM     24  C   UNL     1       5.691  -4.666  -4.891  0.00  0.00    +0.101 C 
ATOM     25  N   UNL     1       6.662  -4.153  -4.601  0.00  0.00    -0.191 NA
ENDBRANCH  10  24
BRANCH   5  26
ATOM     26  O   UNL     1      -0.534  -7.597  -8.381  0.00  0.00    -0.420 OA
BRANCH  26  27
ATOM     27  C   UNL     1      -1.440  -8.278  -7.650  0.00  0.00    +0.380 C 
ATOM     28  O   UNL     1      -1.482  -8.131  -6.444  0.00  0.00    -0.241 OA
BRANCH  27  29
ATOM     29  C   UNL     1      -2.374  -9.197  -8.310  0.00  0.00    +0.216 A 
ATOM     30  C   UNL     1      -3.329  -9.930  -7.679  0.00  0.00    +0.010 A 
ATOM     31  C   UNL     1      -4.013 -10.691  -8.723  0.00  0.00    +0.024 A 
ATOM     32  C   UNL     1      -5.065 -11.610  -8.728  0.00  0.00    +0.015 A 
ATOM     33  C   UNL     1      -5.479 -12.159  -9.909  0.00  0.00    -0.050 A 
ATOM     34  C   UNL     1      -4.862 -11.810 -11.102  0.00  0.00    +0.007 A 
ATOM     35  C   UNL     1      -3.822 -10.906 -11.119  0.00  0.00    +0.047 A 
ATOM     36  C   UNL     1      -3.383 -10.334  -9.930  0.00  0.00    +0.136 A 
ATOM     37  O   UNL     1      -2.419  -9.439  -9.638  0.00  0.00    -0.448 OA
ATOM     38  C   UNL     1      -6.614 -13.151  -9.915  0.00  0.00    +0.044 C 
ATOM     39  C   UNL     1      -3.624  -9.953  -6.201  0.00  0.00    +0.048 C 
ENDBRANCH  27  29
ENDBRANCH  26  27
ENDBRANCH   5  26
TORSDOF 9
