REMARK  Name = ZINC15067763
REMARK  9 active torsions:
REMARK  status: ('A' for Active; 'I' for Inactive)
REMARK    1  A    between atoms: C_2  and  C_3
REMARK    2  A    between atoms: C_3  and  N_4
REMARK    3  A    between atoms: C_5  and  C_7
REMARK    4  A    between atoms: N_9  and  C_30
REMARK    5  A    between atoms: C_11  and  C_14
REMARK    6  A    between atoms: N_16  and  C_17
REMARK    7  A    between atoms: C_17  and  C_18
REMARK    8  A    between atoms: C_18  and  N_71
REMARK    9  A    between atoms: C_21  and  C_24
REMARK                            x       y       z     vdW  Elec       q    Type
REMARK                         _______ _______ _______ _____ _____    ______ ____
ROOT
ATOM      1  C   UNL     1      -0.767   4.413   9.837  0.00  0.00    +0.100 A 
ATOM      2  C   UNL     1      -1.973   5.067   9.705  0.00  0.00    +0.102 A 
ATOM      3  N   UNL     1      -2.566   5.208   8.508  0.00  0.00    -0.349 N 
ATOM      4  C   UNL     1      -2.041   4.739   7.364  0.00  0.00    +0.102 A 
ATOM      5  C   UNL     1      -0.842   4.059   7.350  0.00  0.00    +0.100 A 
ATOM      6  C   UNL     1      -0.133   3.866   8.626  0.00  0.00    +0.206 A 
ATOM      7  O   UNL     1       0.934   3.277   8.677  0.00  0.00    -0.286 OA
ENDROOT
BRANCH   3   8
ATOM      8  C   UNL     1      -3.847   5.915   8.446  0.00  0.00    +0.087 C 
ATOM      9  C   UNL     1      -3.693   7.340   9.016  0.00  0.00    +0.025 C 
ATOM     10  C   UNL     1      -5.024   7.594   9.767  0.00  0.00    +0.002 C 
ATOM     11  C   UNL     1      -5.329   6.214  10.400  0.00  0.00    +0.002 C 
ATOM     12  C   UNL     1      -4.888   5.199   9.325  0.00  0.00    +0.025 C 
ENDBRANCH   3   8
BRANCH   1  14
ATOM     13  N   UNL     1      -0.723   4.775  12.253  0.00  0.00    -0.308 N 
ATOM     14  C   UNL     1      -0.128   4.267  11.156  0.00  0.00    +0.249 C 
ATOM     15  O   UNL     1       0.937   3.687  11.254  0.00  0.00    -0.270 OA
ATOM     16  H   UNL     1      -1.572   5.237  12.174  0.00  0.00    +0.149 HD
BRANCH  13  17
ATOM     17  C   UNL     1      -0.087   4.629  13.565  0.00  0.00    +0.131 C 
BRANCH  17  19
ATOM     18  C   UNL     1      -1.343   4.590  15.659  0.00  0.00    +0.005 C 
ATOM     19  C   UNL     1      -0.950   5.279  14.616  0.00  0.00    -0.016 C 
ENDBRANCH  17  19
ENDBRANCH  13  17
ENDBRANCH   1  14
BRANCH   5  20
ATOM     20  C   UNL     1      -0.281   3.544   6.089  0.00  0.00    +0.249 C 
ATOM     21  O   UNL     1       0.780   2.951   6.093  0.00  0.00    -0.270 OA
ATOM     22  N   UNL     1      -0.945   3.731   4.930  0.00  0.00    -0.313 N 
ATOM     23  H   UNL     1      -1.791   4.204   4.927  0.00  0.00    +0.149 HD
BRANCH  22  24
ATOM     24  C   UNL     1      -0.387   3.218   3.676  0.00  0.00    +0.086 C 
BRANCH  24  25
ATOM     25  C   UNL     1      -1.329   3.562   2.521  0.00  0.00    -0.060 C 
BRANCH  25  31
ATOM     26  C   UNL     1      -0.731   1.580   1.266  0.00  0.00    -0.078 C 
ATOM     27  C   UNL     1      -0.013   1.086   0.008  0.00  0.00    -0.011 C 
ATOM     28  C   UNL     1      -0.755   1.594  -1.231  0.00  0.00    +0.016 C 
ATOM     29  C   UNL     1      -0.823   3.123  -1.184  0.00  0.00    -0.011 C 
ATOM     30  C   UNL     1      -1.519   3.558   0.108  0.00  0.00    -0.078 C 
ATOM     31  N   UNL     1      -0.742   3.059   1.262  0.00  0.00    +0.381 N 
ATOM     32  H   UNL     1       0.224   3.399   1.186  0.00  0.00    -0.082 HD
BRANCH  28  33
ATOM     33  C   UNL     1      -0.019   1.159  -2.472  0.00  0.00    -0.044 A 
ATOM     34  C   UNL     1       1.286   1.566  -2.681  0.00  0.00    +0.004 A 
ATOM     35  C   UNL     1       1.962   1.164  -3.817  0.00  0.00    +0.000 A 
ATOM     36  C   UNL     1       1.331   0.362  -4.750  0.00  0.00    +0.000 A 
ATOM     37  C   UNL     1       0.025  -0.041  -4.544  0.00  0.00    +0.000 A 
ATOM     38  C   UNL     1      -0.650   0.358  -3.405  0.00  0.00    +0.004 A 
ENDBRANCH  28  33
ENDBRANCH  25  31
ENDBRANCH  24  25
ENDBRANCH  22  24
ENDBRANCH   5  20
TORSDOF 9
