REMARK  Name = ZINC03892783
REMARK  13 active torsions:
REMARK  status: ('A' for Active; 'I' for Inactive)
REMARK    1  A    between atoms: C_1  and  C_2
REMARK    2  A    between atoms: C_5  and  S_8
REMARK    3  A    between atoms: S_8  and  C_11
REMARK    4  A    between atoms: C_11  and  N_12
REMARK    5  A    between atoms: C_13  and  C_14
REMARK    6  A    between atoms: C_17  and  O_20
REMARK    7  A    between atoms: O_20  and  C_21
REMARK    8  A    between atoms: N_22  and  C_23
REMARK    9  A    between atoms: C_23  and  N_25
REMARK   10  A    between atoms: N_25  and  C_26
REMARK   11  A    between atoms: C_29  and  C_32
REMARK   12  A    between atoms: C_32  and  O_34
REMARK   13  A    between atoms: O_34  and  C_35
REMARK                            x       y       z     vdW  Elec       q    Type
REMARK                         _______ _______ _______ _____ _____    ______ ____
ROOT
ATOM      1  N   UNL     1       2.593  -4.534   1.172  0.00  0.00    -0.312 N 
ATOM      2  C   UNL     1       2.540  -5.381   2.246  0.00  0.00    +0.119 C 
ATOM      3  N   UNL     1       1.855  -6.509   2.164  0.00  0.00    -0.177 NA
ATOM      4  H   UNL     1       3.096  -3.707   1.232  0.00  0.00    +0.149 HD
ENDROOT
BRANCH   2   5
ATOM      5  C   UNL     1       3.246  -5.036   3.493  0.00  0.00    +0.013 A 
ATOM      6  C   UNL     1       3.290  -3.708   3.929  0.00  0.00    +0.014 A 
ATOM      7  C   UNL     1       3.950  -3.390   5.095  0.00  0.00    +0.046 A 
ATOM      8  C   UNL     1       4.573  -4.387   5.837  0.00  0.00    +0.120 A 
ATOM      9  C   UNL     1       4.532  -5.708   5.407  0.00  0.00    +0.046 A 
ATOM     10  C   UNL     1       3.869  -6.036   4.246  0.00  0.00    +0.014 A 
BRANCH   8  11
ATOM     11  O   UNL     1       5.223  -4.069   6.985  0.00  0.00    -0.495 OA
ATOM     12  C   UNL     1       5.841  -5.142   7.699  0.00  0.00    +0.277 C 
ENDBRANCH   8  11
ENDBRANCH   2   5
BRANCH   3  13
ATOM     13  C   UNL     1       1.695  -7.276   3.253  0.00  0.00    +0.160 C 
ATOM     14  S   UNL     1       0.802  -6.689   4.590  0.00  0.00    -0.016 S 
BRANCH  13  15
ATOM     15  N   UNL     1       2.237  -8.510   3.294  0.00  0.00    -0.295 N 
ATOM     16  H   UNL     1       3.065  -8.660   3.776  0.00  0.00    +0.154 HD
BRANCH  15  17
ATOM     17  C   UNL     1       1.609  -9.568   2.643  0.00  0.00    +0.033 A 
ATOM     18  C   UNL     1       0.483  -9.332   1.859  0.00  0.00    +0.024 A 
ATOM     19  C   UNL     1      -0.141 -10.376   1.215  0.00  0.00    +0.017 A 
ATOM     20  C   UNL     1       0.357 -11.675   1.348  0.00  0.00    +0.059 A 
ATOM     21  C   UNL     1       1.489 -11.909   2.136  0.00  0.00    +0.017 A 
ATOM     22  C   UNL     1       2.111 -10.860   2.773  0.00  0.00    +0.024 A 
BRANCH  20  23
ATOM     23  C   UNL     1      -0.308 -12.796   0.660  0.00  0.00    +0.339 C 
ATOM     24  O   UNL     1      -1.291 -12.591  -0.024  0.00  0.00    -0.245 OA
BRANCH  23  25
ATOM     25  O   UNL     1       0.173 -14.048   0.789  0.00  0.00    -0.464 OA
ATOM     26  C   UNL     1      -0.521 -15.085   0.094  0.00  0.00    +0.280 C 
ENDBRANCH  23  25
ENDBRANCH  20  23
ENDBRANCH  15  17
ENDBRANCH  13  15
ENDBRANCH   3  13
BRANCH   1  27
ATOM     27  C   UNL     1       1.892  -4.878  -0.067  0.00  0.00    +0.276 C 
BRANCH  27  28
ATOM     28  S   UNL     1       0.258  -4.088  -0.076  0.00  0.00    +0.013 S 
ATOM     29  O   UNL     1      -0.394  -4.300   1.168  0.00  0.00    -0.168 OA
ATOM     30  O   UNL     1      -0.410  -4.360  -1.300  0.00  0.00    -0.168 OA
BRANCH  28  35
ATOM     31  C   UNL     1       1.396   1.835  -0.227  0.00  0.00    +0.044 C 
ATOM     32  C   UNL     1       1.112   0.356  -0.189  0.00  0.00    -0.050 A 
ATOM     33  C   UNL     1       0.975  -0.352  -1.368  0.00  0.00    +0.005 A 
ATOM     34  C   UNL     1       0.714  -1.709  -1.334  0.00  0.00    +0.027 A 
ATOM     35  C   UNL     1       0.592  -2.359  -0.120  0.00  0.00    +0.090 A 
ATOM     36  C   UNL     1       0.730  -1.651   1.060  0.00  0.00    +0.027 A 
ATOM     37  C   UNL     1       0.994  -0.295   1.025  0.00  0.00    +0.005 A 
ENDBRANCH  28  35
ENDBRANCH  27  28
ENDBRANCH   1  27
TORSDOF 10
