REMARK  Name = ZINC39661114
REMARK  4 active torsions:
REMARK  status: ('A' for Active; 'I' for Inactive)
REMARK    1  A    between atoms: C_4  and  C_30
REMARK    2  A    between atoms: C_6  and  C_7
REMARK    3  A    between atoms: C_11  and  C_20
REMARK    4  A    between atoms: N_22  and  C_23
REMARK                            x       y       z     vdW  Elec       q    Type
REMARK                         _______ _______ _______ _____ _____    ______ ____
ROOT
ATOM      1  C   UNL     1      -1.264  -0.761   0.010  0.00  0.00    +0.247 C 
ATOM      2  O   UNL     1      -1.248  -1.971  -0.105  0.00  0.00    -0.270 OA
ATOM      3  N   UNL     1      -2.438  -0.110   0.127  0.00  0.00    -0.296 N 
ATOM      4  C   UNL     1      -2.667   1.354   0.148  0.00  0.00    +0.121 C 
ATOM      5  C   UNL     1      -3.960   1.558  -0.674  0.00  0.00    +0.100 C 
ATOM      6  C   UNL     1      -4.694   0.209  -0.592  0.00  0.00    -0.004 C 
ATOM      7  C   UNL     1      -3.793  -0.697   0.259  0.00  0.00    +0.115 C 
ATOM      8  C   UNL     1      -4.865  -0.385  -1.986  0.00  0.00    -0.010 C 
ATOM      9  C   UNL     1      -5.648  -1.697  -1.884  0.00  0.00    -0.082 C 
ATOM     10  N   UNL     1      -6.959  -1.441  -1.275  0.00  0.00    +0.379 N 
ATOM     11  C   UNL     1      -6.787  -0.956   0.100  0.00  0.00    -0.082 C 
ATOM     12  C   UNL     1      -6.052   0.387   0.082  0.00  0.00    -0.010 C 
ATOM     13  H   UNL     1      -7.450  -0.745  -1.817  0.00  0.00    -0.086 HD
ATOM     14  H   UNL     1      -7.497  -2.295  -1.264  0.00  0.00    -0.086 HD
ENDROOT
BRANCH   1  20
ATOM     15  C   UNL     1       0.069   1.246   0.640  0.00  0.00    +0.016 A 
ATOM     16  C   UNL     1       1.255   1.949   0.647  0.00  0.00    +0.039 A 
ATOM     17  C   UNL     1       2.383   1.417   0.041  0.00  0.00    +0.135 A 
ATOM     18  C   UNL     1       2.324   0.176  -0.577  0.00  0.00    +0.091 A 
ATOM     19  C   UNL     1       1.143  -0.534  -0.590  0.00  0.00    +0.028 A 
ATOM     20  C   UNL     1       0.005  -0.003   0.020  0.00  0.00    +0.038 A 
ATOM     21  F   UNL     1       3.543   2.110   0.050  0.00  0.00    -0.205 F 
BRANCH  18  22
ATOM     22  C   UNL     1       3.554  -0.396  -1.234  0.00  0.00    +0.420 C 
ATOM     23  F   UNL     1       3.250  -1.646  -1.784  0.00  0.00    -0.166 F 
ATOM     24  F   UNL     1       3.984   0.467  -2.248  0.00  0.00    -0.166 F 
ATOM     25  F   UNL     1       4.568  -0.539  -0.282  0.00  0.00    -0.166 F 
ENDBRANCH  18  22
ENDBRANCH   1  20
BRANCH   5  26
ATOM     26  C   UNL     1      -4.799   2.653  -0.068  0.00  0.00    +0.219 C 
ATOM     27  O   UNL     1      -4.694   2.916   1.111  0.00  0.00    -0.275 OA
ATOM     28  N   UNL     1      -5.667   3.340  -0.837  0.00  0.00    -0.304 N 
ATOM     29  H   UNL     1      -5.752   3.130  -1.780  0.00  0.00    +0.149 HD
BRANCH  28  30
ATOM     30  C   UNL     1      -6.483   4.405  -0.248  0.00  0.00    +0.151 C 
ATOM     31  C   UNL     1      -6.837   5.421  -1.336  0.00  0.00    +0.042 C 
ATOM     32  C   UNL     1      -8.112   6.171  -0.883  0.00  0.00    +0.079 C 
ATOM     33  S   UNL     1      -8.956   4.894   0.128  0.00  0.00    -0.086 S 
ATOM     34  C   UNL     1      -7.716   3.792   0.374  0.00  0.00    +0.209 C 
ATOM     35  O   UNL     1      -7.794   2.721   0.938  0.00  0.00    -0.283 OA
ENDBRANCH  28  30
ENDBRANCH   5  26
TORSDOF 4
