REMARK  Name = ZINC02486182
REMARK  13 active torsions:
REMARK  status: ('A' for Active; 'I' for Inactive)
REMARK    1  A    between atoms: C_1  and  C_2
REMARK    2  A    between atoms: C_4  and  C_32
REMARK    3  A    between atoms: C_5  and  S_9
REMARK    4  A    between atoms: C_6  and  C_8
REMARK    5  A    between atoms: S_9  and  N_12
REMARK    6  A    between atoms: N_12  and  C_13
REMARK    7  A    between atoms: C_13  and  C_14
REMARK    8  A    between atoms: C_14  and  N_68
REMARK    9  A    between atoms: N_17  and  S_20
REMARK   10  A    between atoms: S_20  and  C_23
REMARK   11  A    between atoms: C_24  and  C_31
REMARK   12  A    between atoms: C_26  and  C_30
REMARK   13  A    between atoms: C_28  and  C_29
REMARK                            x       y       z     vdW  Elec       q    Type
REMARK                         _______ _______ _______ _____ _____    ______ ____
ROOT
ATOM      1  C   UNL     1      -3.658   2.003  -6.754  0.00  0.00    -0.061 C 
ATOM      2  C   UNL     1      -3.574   0.493  -6.998  0.00  0.00    +0.091 C 
ATOM      3  N   UNL     1      -3.793   0.237  -8.430  0.00  0.00    -0.180 NA
ATOM      4  C   UNL     1      -4.976   0.832  -9.070  0.00  0.00    +0.091 C 
ATOM      5  C   UNL     1      -5.005   2.329  -8.745  0.00  0.00    -0.061 C 
ATOM      6  N   UNL     1      -4.950   2.498  -7.276  0.00  0.00    +0.382 N 
ATOM      7  H   UNL     1      -5.711   1.954  -6.851  0.00  0.00    -0.082 HD
ENDROOT
BRANCH   3   8
ATOM      8  S   UNL     1      -2.735  -0.694  -9.298  0.00  0.00    +0.061 S 
ATOM      9  O   UNL     1      -2.102  -1.563  -8.369  0.00  0.00    -0.153 OA
ATOM     10  O   UNL     1      -3.450  -1.177 -10.427  0.00  0.00    -0.153 OA
BRANCH   8  11
ATOM     11  C   UNL     1      -1.482   0.379  -9.917  0.00  0.00    +0.111 A 
ATOM     12  C   UNL     1      -0.250   0.436  -9.294  0.00  0.00    -0.024 A 
ATOM     13  C   UNL     1       0.734   1.275  -9.782  0.00  0.00    +0.008 A 
ATOM     14  C   UNL     1       0.483   2.064 -10.888  0.00  0.00    -0.050 A 
ATOM     15  C   UNL     1      -0.751   2.012 -11.509  0.00  0.00    +0.008 A 
ATOM     16  C   UNL     1      -1.734   1.169 -11.023  0.00  0.00    -0.024 A 
ATOM     17  C   UNL     1      -3.079   1.112 -11.700  0.00  0.00    +0.046 C 
ATOM     18  C   UNL     1       1.554   2.983 -11.418  0.00  0.00    +0.044 C 
ATOM     19  C   UNL     1       0.022  -0.421  -8.084  0.00  0.00    +0.046 C 
ENDBRANCH   8  11
ENDBRANCH   3   8
BRANCH   6  20
ATOM     20  C   UNL     1      -5.125   3.922  -6.925  0.00  0.00    -0.062 C 
BRANCH  20  21
ATOM     21  C   UNL     1      -5.287   4.039  -5.408  0.00  0.00    +0.087 C 
BRANCH  21  22
ATOM     22  N   UNL     1      -5.484   5.445  -5.045  0.00  0.00    -0.192 NA
ATOM     23  H   UNL     1      -5.281   6.144  -5.686  0.00  0.00    +0.148 HD
BRANCH  22  24
ATOM     24  S   UNL     1      -6.052   5.840  -3.541  0.00  0.00    +0.059 S 
ATOM     25  O   UNL     1      -7.192   5.024  -3.310  0.00  0.00    -0.153 OA
ATOM     26  O   UNL     1      -6.107   7.259  -3.487  0.00  0.00    -0.153 OA
BRANCH  24  31
ATOM     27  C   UNL     1      -1.867   4.123   0.452  0.00  0.00    +0.044 C 
ATOM     28  C   UNL     1      -2.913   4.552  -0.545  0.00  0.00    -0.050 A 
ATOM     29  C   UNL     1      -4.004   3.742  -0.793  0.00  0.00    +0.008 A 
ATOM     30  C   UNL     1      -4.961   4.133  -1.712  0.00  0.00    -0.024 A 
ATOM     31  C   UNL     1      -4.830   5.339  -2.374  0.00  0.00    +0.111 A 
ATOM     32  C   UNL     1      -3.739   6.150  -2.125  0.00  0.00    -0.024 A 
ATOM     33  C   UNL     1      -2.780   5.756  -1.210  0.00  0.00    +0.008 A 
ATOM     34  C   UNL     1      -3.594   7.462  -2.851  0.00  0.00    +0.046 C 
ATOM     35  C   UNL     1      -6.148   3.246  -1.987  0.00  0.00    +0.046 C 
ENDBRANCH  24  31
ENDBRANCH  22  24
ENDBRANCH  21  22
ENDBRANCH  20  21
ENDBRANCH   6  20
TORSDOF 7
