REMARK  Name = ZINC36969460
REMARK  6 active torsions:
REMARK  status: ('A' for Active; 'I' for Inactive)
REMARK    1  A    between atoms: C_1  and  C_2
REMARK    2  A    between atoms: C_5  and  C_7
REMARK    3  A    between atoms: C_7  and  C_9
REMARK    4  A    between atoms: C_7  and  N_10
REMARK    5  A    between atoms: N_10  and  C_11
REMARK    6  A    between atoms: C_20  and  C_23
REMARK                            x       y       z     vdW  Elec       q    Type
REMARK                         _______ _______ _______ _____ _____    ______ ____
ROOT
ATOM      1  C   UNL     1       2.566  -5.374   1.427  0.00  0.00    +0.030 A 
ATOM      2  C   UNL     1       1.816  -6.511   1.154  0.00  0.00    +0.026 A 
ATOM      3  C   UNL     1       2.165  -7.724   1.717  0.00  0.00    +0.049 A 
ATOM      4  C   UNL     1       3.263  -7.808   2.555  0.00  0.00    +0.143 A 
ATOM      5  C   UNL     1       4.017  -6.669   2.831  0.00  0.00    +0.077 A 
ATOM      6  C   UNL     1       3.672  -5.454   2.263  0.00  0.00    +0.050 A 
ATOM      7  N   UNL     1       5.125  -6.771   3.684  0.00  0.00    -0.279 N 
ATOM      8  C   UNL     1       5.627  -7.993   3.963  0.00  0.00    +0.258 C 
ATOM      9  O   UNL     1       6.566  -8.107   4.723  0.00  0.00    -0.271 OA
ATOM     10  C   UNL     1       5.014  -9.216   3.329  0.00  0.00    +0.256 C 
ATOM     11  O   UNL     1       3.617  -8.997   3.115  0.00  0.00    -0.478 OA
ATOM     12  C   UNL     1       5.697  -9.489   1.987  0.00  0.00    +0.062 C 
ATOM     13  H   UNL     1       5.526  -5.975   4.067  0.00  0.00    +0.155 HD
ENDROOT
BRANCH   1  14
ATOM     14  N   UNL     1       2.210  -4.147   0.855  0.00  0.00    -0.337 N 
ATOM     15  H   UNL     1       2.735  -3.354   1.042  0.00  0.00    +0.147 HD
BRANCH  14  16
ATOM     16  C   UNL     1       1.043  -4.062  -0.027  0.00  0.00    +0.104 C 
ATOM     17  C   UNL     1       1.452  -4.441  -1.452  0.00  0.00    +0.033 C 
BRANCH  16  22
ATOM     18  C   UNL     1      -0.018   1.503   0.010  0.00  0.00    +0.051 C 
ATOM     19  C   UNL     1       0.002  -0.004   0.002  0.00  0.00    -0.013 A 
ATOM     20  C   UNL     1      -1.039  -0.872   0.002  0.00  0.00    +0.011 A 
ATOM     21  C   UNL     1      -0.780  -2.230  -0.007  0.00  0.00    +0.013 A 
ATOM     22  C   UNL     1       0.507  -2.653  -0.016  0.00  0.00    +0.010 A 
ATOM     23  S   UNL     1       1.404  -1.109  -0.018  0.00  0.00    -0.097 S 
ENDBRANCH  16  22
ENDBRANCH  14  16
ENDBRANCH   1  14
TORSDOF 3
