REMARK  Name = ZINC05660792
REMARK  6 active torsions:
REMARK  status: ('A' for Active; 'I' for Inactive)
REMARK    1  A    between atoms: N_7  and  C_15
REMARK    2  A    between atoms: C_15  and  C_16
REMARK    3  A    between atoms: C_18  and  O_29
REMARK    4  A    between atoms: C_20  and  N_45
REMARK    5  A    between atoms: C_22  and  O_28
REMARK    6  A    between atoms: C_24  and  O_27
REMARK                            x       y       z     vdW  Elec       q    Type
REMARK                         _______ _______ _______ _____ _____    ______ ____
ROOT
ATOM      1  C   UNL     1       0.028   1.159  -2.486  0.00  0.00    +0.166 C 
ATOM      2  C   UNL     1      -0.744   1.595  -1.238  0.00  0.00    +0.133 C 
ATOM      3  C   UNL     1      -0.013   1.086   0.008  0.00  0.00    -0.010 C 
ATOM      4  C   UNL     1       1.424   1.618  -0.003  0.00  0.00    +0.158 C 
ATOM      5  C   UNL     1       2.111   1.181  -1.299  0.00  0.00    +0.275 C 
ATOM      6  O   UNL     1       1.364   1.661  -2.418  0.00  0.00    -0.342 OA
ENDROOT
BRANCH   3   9
ATOM      7  H   UNL     1      -0.237   1.240   2.049  0.00  0.00    -0.089 HD
ATOM      8  H   UNL     1      -0.787   2.567   1.210  0.00  0.00    -0.089 HD
ATOM      9  N   UNL     1      -0.726   1.550   1.211  0.00  0.00    +0.383 N 
ATOM     10  H   UNL     1      -1.675   1.158   1.213  0.00  0.00    -0.089 HD
ENDBRANCH   3   9
BRANCH   5  11
ATOM     11  O   UNL     1       3.434   1.721  -1.342  0.00  0.00    -0.365 OA
ATOM     12  H   UNL     1       3.930   1.484  -2.138  0.00  0.00    +0.213 HD
ENDBRANCH   5  11
BRANCH   4  13
ATOM     13  O   UNL     1       2.136   1.091   1.118  0.00  0.00    -0.388 OA
ATOM     14  H   UNL     1       3.055   1.387   1.174  0.00  0.00    +0.210 HD
ENDBRANCH   4  13
BRANCH   2  15
ATOM     15  O   UNL     1      -2.062   1.046  -1.276  0.00  0.00    -0.391 OA
ATOM     16  H   UNL     1      -2.607   1.278  -0.511  0.00  0.00    +0.210 HD
ENDBRANCH   2  15
BRANCH   1  17
ATOM     17  C   UNL     1      -0.663   1.716  -3.733  0.00  0.00    +0.145 C 
BRANCH  17  24
ATOM     18  C   UNL     1      -2.228  -1.485  -6.086  0.00  0.00    +0.002 A 
ATOM     19  C   UNL     1      -1.320  -2.378  -6.625  0.00  0.00    +0.001 A 
ATOM     20  C   UNL     1       0.034  -2.087  -6.604  0.00  0.00    +0.017 A 
ATOM     21  C   UNL     1       0.472  -0.903  -6.043  0.00  0.00    +0.034 A 
ATOM     22  C   UNL     1      -0.441   0.003  -5.497  0.00  0.00    +0.048 A 
ATOM     23  C   UNL     1      -1.794  -0.298  -5.524  0.00  0.00    +0.024 A 
ATOM     24  N   UNL     1       0.005   1.202  -4.932  0.00  0.00    -0.296 N 
ATOM     25  C   UNL     1       1.067   1.929  -5.481  0.00  0.00    +0.048 A 
ATOM     26  C   UNL     1       1.043   3.312  -5.487  0.00  0.00    +0.024 A 
ATOM     27  C   UNL     1       2.100   4.021  -6.030  0.00  0.00    +0.002 A 
ATOM     28  C   UNL     1       3.187   3.357  -6.566  0.00  0.00    +0.001 A 
ATOM     29  C   UNL     1       3.225   1.972  -6.562  0.00  0.00    +0.017 A 
ATOM     30  C   UNL     1       2.172   1.260  -6.020  0.00  0.00    +0.034 A 
ATOM     31  S   UNL     1       2.192  -0.506  -6.000  0.00  0.00    -0.086 S 
ENDBRANCH  17  24
ENDBRANCH   1  17
TORSDOF 6
