REMARK  Name = ZINC08567964
REMARK  9 active torsions:
REMARK  status: ('A' for Active; 'I' for Inactive)
REMARK    1  A    between atoms: C_1  and  O_2
REMARK    2  A    between atoms: O_2  and  C_3
REMARK    3  A    between atoms: C_6  and  C_17
REMARK    4  A    between atoms: C_8  and  O_9
REMARK    5  A    between atoms: O_9  and  C_10
REMARK    6  A    between atoms: C_10  and  C_11
REMARK    7  A    between atoms: C_20  and  C_31
REMARK    8  A    between atoms: C_26  and  N_30
REMARK    9  A    between atoms: C_27  and  C_28
REMARK                            x       y       z     vdW  Elec       q    Type
REMARK                         _______ _______ _______ _____ _____    ______ ____
ROOT
ATOM      1  C   UNL     1      -5.065  -2.730   0.044  0.00  0.00    +0.102 C 
ATOM      2  C   UNL     1      -5.863  -2.175  -1.108  0.00  0.00    +0.054 A 
ATOM      3  C   UNL     1      -5.696  -2.381  -2.480  0.00  0.00    +0.100 A 
ATOM      4  N   UNL     1      -6.628  -1.691  -3.111  0.00  0.00    -0.171 NA
ATOM      5  N   UNL     1      -7.412  -1.029  -2.153  0.00  0.00    -0.246 N 
ATOM      6  H   UNL     1      -8.168  -0.450  -2.337  0.00  0.00    +0.192 HD
ATOM      7  C   UNL     1      -6.928  -1.339  -0.932  0.00  0.00    +0.223 A 
ATOM      8  O   UNL     1      -7.354  -0.943   0.293  0.00  0.00    -0.423 OA
ATOM      9  C   UNL     1      -6.877  -1.608   1.365  0.00  0.00    +0.200 C 
ATOM     10  C   UNL     1      -5.822  -2.453   1.319  0.00  0.00    +0.098 C 
ENDROOT
BRANCH   1  14
ATOM     11  C   UNL     1      -1.239  -0.825   0.196  0.00  0.00    +0.162 A 
ATOM     12  C   UNL     1      -2.397  -0.064   0.220  0.00  0.00    +0.050 A 
ATOM     13  C   UNL     1      -3.632  -0.683   0.170  0.00  0.00    +0.008 A 
ATOM     14  C   UNL     1      -3.716  -2.061   0.097  0.00  0.00    -0.031 A 
ATOM     15  C   UNL     1      -2.565  -2.826   0.074  0.00  0.00    +0.054 A 
ATOM     16  C   UNL     1      -1.324  -2.212   0.117  0.00  0.00    +0.163 A 
BRANCH  11  18
ATOM     17  C   UNL     1      -0.013   1.208   0.325  0.00  0.00    +0.277 C 
ATOM     18  O   UNL     1      -0.024  -0.218   0.245  0.00  0.00    -0.491 OA
ENDBRANCH  11  18
BRANCH  16  19
ATOM     19  O   UNL     1      -0.191  -2.963   0.088  0.00  0.00    -0.484 OA
BRANCH  19  20
ATOM     20  C   UNL     1      -0.353  -4.380   0.006  0.00  0.00    +0.264 C 
BRANCH  20  21
ATOM     21  C   UNL     1       1.001  -5.041  -0.016  0.00  0.00    -0.010 A 
ATOM     22  C   UNL     1       1.638  -5.272  -1.220  0.00  0.00    +0.007 A 
ATOM     23  C   UNL     1       2.880  -5.878  -1.240  0.00  0.00    +0.000 A 
ATOM     24  C   UNL     1       3.485  -6.253  -0.055  0.00  0.00    +0.000 A 
ATOM     25  C   UNL     1       2.848  -6.022   1.150  0.00  0.00    +0.000 A 
ATOM     26  C   UNL     1       1.608  -5.412   1.170  0.00  0.00    +0.007 A 
ENDBRANCH  20  21
ENDBRANCH  19  20
ENDBRANCH  16  19
ENDBRANCH   1  14
BRANCH   3  27
ATOM     27  C   UNL     1      -4.654  -3.225  -3.116  0.00  0.00    +0.003 A 
ATOM     28  C   UNL     1      -3.988  -2.775  -4.255  0.00  0.00    +0.010 A 
ATOM     29  C   UNL     1      -3.020  -3.564  -4.842  0.00  0.00    +0.001 A 
ATOM     30  C   UNL     1      -2.711  -4.800  -4.303  0.00  0.00    +0.000 A 
ATOM     31  C   UNL     1      -3.369  -5.252  -3.173  0.00  0.00    +0.001 A 
ATOM     32  C   UNL     1      -4.334  -4.468  -2.574  0.00  0.00    +0.010 A 
ENDBRANCH   3  27
BRANCH   9  33
ATOM     33  N   UNL     1      -7.498  -1.415   2.574  0.00  0.00    -0.328 N 
ATOM     34  H   UNL     1      -8.257  -0.816   2.639  0.00  0.00    +0.145 HD
ATOM     35  H   UNL     1      -7.177  -1.880   3.363  0.00  0.00    +0.145 HD
ENDBRANCH   9  33
BRANCH  10  36
ATOM     36  C   UNL     1      -5.407  -3.108   2.523  0.00  0.00    +0.101 C 
ATOM     37  N   UNL     1      -5.079  -3.627   3.478  0.00  0.00    -0.191 NA
ENDBRANCH  10  36
TORSDOF 8
