REMARK  Name = ZINC23257540
REMARK  6 active torsions:
REMARK  status: ('A' for Active; 'I' for Inactive)
REMARK    1  A    between atoms: C_1  and  C_2
REMARK    2  A    between atoms: C_2  and  C_27
REMARK    3  A    between atoms: N_5  and  C_9
REMARK    4  A    between atoms: C_9  and  N_10
REMARK    5  A    between atoms: N_13  and  C_16
REMARK    6  A    between atoms: C_16  and  C_17
REMARK                            x       y       z     vdW  Elec       q    Type
REMARK                         _______ _______ _______ _____ _____    ______ ____
ROOT
ATOM      1  C   UNL     1       1.921   3.933  -5.735  0.00  0.00    +0.047 C 
ATOM      2  C   UNL     1       1.767   5.355  -6.277  0.00  0.00    +0.135 C 
ATOM      3  C   UNL     1       0.428   5.939  -5.871  0.00  0.00    +0.252 C 
ATOM      4  O   UNL     1      -0.672   5.520  -6.163  0.00  0.00    -0.272 OA
ATOM      5  N   UNL     1       0.714   7.019  -5.118  0.00  0.00    -0.210 N 
ATOM      6  C   UNL     1       2.034   7.200  -4.997  0.00  0.00    +0.311 C 
ATOM      7  O   UNL     1       2.536   8.110  -4.367  0.00  0.00    -0.252 OA
ATOM      8  N   UNL     1       2.744   6.259  -5.646  0.00  0.00    -0.281 N 
ATOM      9  H   UNL     1       3.822   6.076  -5.769  0.00  0.00    +0.152 HD
ENDROOT
BRANCH   2  10
ATOM     10  C   UNL     1       1.919   5.369  -7.777  0.00  0.00    -0.012 A 
ATOM     11  C   UNL     1       0.802   5.260  -8.584  0.00  0.00    +0.010 A 
ATOM     12  C   UNL     1       0.936   5.272  -9.960  0.00  0.00    +0.050 A 
ATOM     13  C   UNL     1       2.191   5.395 -10.533  0.00  0.00    +0.166 A 
ATOM     14  C   UNL     1       3.316   5.505  -9.720  0.00  0.00    +0.167 A 
ATOM     15  C   UNL     1       3.174   5.496  -8.342  0.00  0.00    +0.055 A 
ATOM     16  O   UNL     1       4.420   5.612 -10.515  0.00  0.00    -0.453 OA
ATOM     17  C   UNL     1       4.003   5.157 -11.816  0.00  0.00    +0.466 C 
ATOM     18  O   UNL     1       2.590   5.434 -11.838  0.00  0.00    -0.453 OA
ENDBRANCH   2  10
BRANCH   5  19
ATOM     19  C   UNL     1      -0.295   7.890  -4.511  0.00  0.00    +0.205 C 
BRANCH  19  20
ATOM     20  N   UNL     1      -0.634   7.389  -3.173  0.00  0.00    -0.284 NA
ATOM     21  C   UNL     1      -1.983   7.817  -2.777  0.00  0.00    +0.101 C 
ATOM     22  C   UNL     1      -2.267   7.343  -1.349  0.00  0.00    +0.100 C 
ATOM     23  N   UNL     1      -2.141   5.880  -1.287  0.00  0.00    -0.296 NA
ATOM     24  C   UNL     1      -0.792   5.453  -1.683  0.00  0.00    +0.100 C 
ATOM     25  C   UNL     1      -0.509   5.926  -3.111  0.00  0.00    +0.101 C 
BRANCH  23  26
ATOM     26  C   UNL     1      -2.480   5.380   0.052  0.00  0.00    +0.120 C 
BRANCH  26  27
ATOM     27  C   UNL     1      -2.720   3.893  -0.014  0.00  0.00    -0.026 A 
ATOM     28  C   UNL     1      -1.787   3.028   0.469  0.00  0.00    +0.005 A 
ATOM     29  C   UNL     1      -1.991   1.650   0.417  0.00  0.00    +0.001 A 
ATOM     30  C   UNL     1      -3.129   1.130  -0.119  0.00  0.00    +0.008 A 
ATOM     31  C   UNL     1      -4.118   1.993  -0.622  0.00  0.00    -0.018 A 
ATOM     32  C   UNL     1      -3.908   3.394  -0.574  0.00  0.00    -0.013 A 
ATOM     33  C   UNL     1      -4.894   4.256  -1.083  0.00  0.00    +0.009 A 
ATOM     34  C   UNL     1      -6.031   3.736  -1.620  0.00  0.00    +0.001 A 
ATOM     35  C   UNL     1      -6.235   2.358  -1.672  0.00  0.00    +0.001 A 
ATOM     36  C   UNL     1      -5.303   1.493  -1.188  0.00  0.00    +0.008 A 
ENDBRANCH  26  27
ENDBRANCH  23  26
ENDBRANCH  19  20
ENDBRANCH   5  19
TORSDOF 5
