REMARK  Name = ZINC63271050
REMARK  9 active torsions:
REMARK  status: ('A' for Active; 'I' for Inactive)
REMARK    1  A    between atoms: C_1  and  C_2
REMARK    2  A    between atoms: C_4  and  C_27
REMARK    3  A    between atoms: N_6  and  S_8
REMARK    4  A    between atoms: S_8  and  C_11
REMARK    5  A    between atoms: C_14  and  C_17
REMARK    6  A    between atoms: N_19  and  N_20
REMARK    7  A    between atoms: N_23  and  C_24
REMARK    8  A    between atoms: C_24  and  C_25
REMARK    9  A    between atoms: C_24  and  C_26
REMARK                            x       y       z     vdW  Elec       q    Type
REMARK                         _______ _______ _______ _____ _____    ______ ____
ROOT
ATOM      1  C   UNL     1       2.626   2.447   2.072  0.00  0.00    +0.106 A 
ATOM      2  C   UNL     1       3.558   3.147   1.326  0.00  0.00    +0.029 A 
ATOM      3  C   UNL     1       3.375   4.490   1.072  0.00  0.00    +0.015 A 
ATOM      4  C   UNL     1       2.246   5.144   1.569  0.00  0.00    +0.038 A 
ATOM      5  C   UNL     1       1.310   4.433   2.320  0.00  0.00    +0.015 A 
ATOM      6  C   UNL     1       1.502   3.088   2.562  0.00  0.00    +0.029 A 
ENDROOT
BRANCH   4   7
ATOM      7  C   UNL     1       2.044   6.584   1.301  0.00  0.00    +0.260 C 
ATOM      8  O   UNL     1       2.861   7.201   0.646  0.00  0.00    -0.269 OA
ATOM      9  N   UNL     1       0.953   7.212   1.782  0.00  0.00    -0.229 N 
ATOM     10  H   UNL     1       0.300   6.720   2.304  0.00  0.00    +0.173 HD
BRANCH   9  11
ATOM     11  N   UNL     1       0.761   8.576   1.528  0.00  0.00    -0.218 N 
ATOM     12  C   UNL     1      -0.330   9.205   2.009  0.00  0.00    +0.316 C 
ATOM     13  O   UNL     1      -0.497  10.389   1.789  0.00  0.00    -0.251 OA
ATOM     14  N   UNL     1      -1.237   8.520   2.735  0.00  0.00    -0.296 N 
ATOM     15  H   UNL     1       1.413   9.069   1.006  0.00  0.00    +0.174 HD
ATOM     16  H   UNL     1      -1.104   7.576   2.911  0.00  0.00    +0.151 HD
BRANCH  14  17
ATOM     17  C   UNL     1      -2.423   9.203   3.258  0.00  0.00    +0.068 C 
ATOM     18  C   UNL     1      -3.514   9.224   2.186  0.00  0.00    +0.027 C 
ATOM     19  C   UNL     1      -2.936   8.460   4.493  0.00  0.00    +0.027 C 
ENDBRANCH  14  17
ENDBRANCH   9  11
ENDBRANCH   4   7
BRANCH   1  20
ATOM     20  S   UNL     1       2.867   0.732   2.392  0.00  0.00    +0.061 S 
ATOM     21  O   UNL     1       2.127   0.430   3.567  0.00  0.00    -0.153 OA
ATOM     22  O   UNL     1       4.264   0.492   2.288  0.00  0.00    -0.153 OA
BRANCH  20  28
ATOM     23  C   UNL     1      -0.019   1.526   0.010  0.00  0.00    +0.009 C 
ATOM     24  C   UNL     1       0.002  -0.004   0.002  0.00  0.00    +0.002 C 
ATOM     25  C   UNL     1       0.722  -0.498  -1.255  0.00  0.00    +0.009 C 
ATOM     26  C   UNL     1       2.147   0.059  -1.281  0.00  0.00    +0.002 C 
ATOM     27  C   UNL     1       2.912  -0.448  -0.055  0.00  0.00    +0.112 C 
ATOM     28  N   UNL     1       2.151  -0.103   1.154  0.00  0.00    -0.176 NA
ATOM     29  C   UNL     1       0.743  -0.512   1.243  0.00  0.00    +0.112 C 
ATOM     30  C   UNL     1       2.855  -0.409  -2.554  0.00  0.00    +0.009 C 
ENDBRANCH  20  28
ENDBRANCH   1  20
TORSDOF 5
