REMARK  Name = ZINC40826592
REMARK  10 active torsions:
REMARK  status: ('A' for Active; 'I' for Inactive)
REMARK    1  A    between atoms: C_1  and  C_2
REMARK    2  A    between atoms: C_6  and  C_12
REMARK    3  A    between atoms: C_10  and  C_11
REMARK    4  A    between atoms: C_12  and  C_13
REMARK    5  A    between atoms: N_15  and  N_16
REMARK    6  A    between atoms: C_23  and  C_37
REMARK    7  A    between atoms: C_24  and  C_26
REMARK    8  A    between atoms: N_28  and  C_29
REMARK    9  A    between atoms: N_28  and  C_30
REMARK   10  A    between atoms: N_33  and  C_36
REMARK                            x       y       z     vdW  Elec       q    Type
REMARK                         _______ _______ _______ _____ _____    ______ ____
ROOT
ATOM      1  N   UNL     1       2.930  -6.351  -3.475  0.00  0.00    -0.184 NA
ATOM      2  C   UNL     1       3.232  -7.348  -4.248  0.00  0.00    +0.070 C 
ATOM      3  C   UNL     1       2.179  -8.133  -5.017  0.00  0.00    +0.058 C 
ATOM      4  C   UNL     1       2.523  -9.622  -4.919  0.00  0.00    +0.014 C 
ATOM      5  C   UNL     1       3.854  -9.916  -5.617  0.00  0.00    +0.075 C 
ATOM      6  C   UNL     1       4.916  -8.991  -5.079  0.00  0.00    +0.115 A 
ATOM      7  C   UNL     1       4.625  -7.802  -4.450  0.00  0.00    +0.042 A 
ATOM      8  C   UNL     1       5.841  -7.208  -4.090  0.00  0.00    +0.009 A 
ATOM      9  C   UNL     1       6.823  -8.055  -4.521  0.00  0.00    +0.193 A 
ATOM     10  O   UNL     1       6.239  -9.127  -5.109  0.00  0.00    -0.454 OA
ATOM     11  C   UNL     1       6.028  -5.896  -3.371  0.00  0.00    +0.048 C 
ENDROOT
BRANCH   1  14
ATOM     12  C   UNL     1       1.279  -4.929  -2.517  0.00  0.00    +0.237 C 
ATOM     13  O   UNL     1       2.155  -4.331  -1.928  0.00  0.00    -0.274 OA
ATOM     14  N   UNL     1       1.592  -5.965  -3.320  0.00  0.00    -0.206 N 
ATOM     15  H   UNL     1       0.892  -6.443  -3.791  0.00  0.00    +0.177 HD
BRANCH  12  16
ATOM     16  C   UNL     1      -0.160  -4.513  -2.350  0.00  0.00    +0.136 C 
BRANCH  16  22
ATOM     17  C   UNL     1       0.232   2.335  -1.713  0.00  0.00    +0.044 C 
ATOM     18  C   UNL     1       0.122   0.832  -1.718  0.00  0.00    -0.044 A 
ATOM     19  C   UNL     1       0.279   0.137  -2.909  0.00  0.00    +0.004 A 
ATOM     20  C   UNL     1       0.182  -1.227  -2.931  0.00  0.00    +0.012 A 
ATOM     21  C   UNL     1      -0.075  -1.922  -1.750  0.00  0.00    +0.024 A 
ATOM     22  C   UNL     1      -0.238  -3.340  -1.408  0.00  0.00    +0.007 A 
ATOM     23  C   UNL     1      -0.471  -3.381  -0.089  0.00  0.00    +0.200 A 
ATOM     24  O   UNL     1      -0.469  -2.137   0.421  0.00  0.00    -0.462 OA
ATOM     25  C   UNL     1      -0.234  -1.223  -0.542  0.00  0.00    +0.138 A 
ATOM     26  C   UNL     1      -0.127   0.162  -0.540  0.00  0.00    -0.005 A 
ATOM     27  C   UNL     1      -0.289   0.931   0.747  0.00  0.00    +0.048 C 
ENDBRANCH  16  22
ENDBRANCH  12  16
ENDBRANCH   1  14
BRANCH   9  28
ATOM     28  C   UNL     1       8.267  -7.844  -4.363  0.00  0.00    +0.282 C 
ATOM     29  O   UNL     1       8.683  -6.787  -3.927  0.00  0.00    -0.267 OA
ATOM     30  N   UNL     1       9.131  -8.822  -4.700  0.00  0.00    -0.295 N 
ATOM     31  C   UNL     1       8.635 -10.066  -5.292  0.00  0.00    +0.132 C 
BRANCH  30  32
ATOM     32  C   UNL     1      10.567  -8.639  -4.473  0.00  0.00    +0.073 C 
ATOM     33  C   UNL     1      11.081  -9.734  -3.534  0.00  0.00    +0.004 C 
ATOM     34  C   UNL     1      12.594  -9.585  -3.365  0.00  0.00    -0.077 C 
ATOM     35  N   UNL     1      13.251  -9.713  -4.672  0.00  0.00    +0.378 N 
ATOM     36  C   UNL     1      12.817  -8.623  -5.555  0.00  0.00    -0.077 C 
ATOM     37  C   UNL     1      11.312  -8.735  -5.808  0.00  0.00    +0.004 C 
ATOM     38  C   UNL     1      14.708  -9.647  -4.495  0.00  0.00    -0.096 C 
ATOM     39  H   UNL     1      13.004 -10.599  -5.087  0.00  0.00    -0.082 HD
ENDBRANCH  30  32
ENDBRANCH   9  28
TORSDOF 5
