REMARK  Name = ZINC59113919
REMARK  9 active torsions:
REMARK  status: ('A' for Active; 'I' for Inactive)
REMARK    1  A    between atoms: C_1  and  O_2
REMARK    2  A    between atoms: O_2  and  C_3
REMARK    3  A    between atoms: C_6  and  N_11
REMARK    4  A    between atoms: C_7  and  O_9
REMARK    5  A    between atoms: O_9  and  C_10
REMARK    6  A    between atoms: N_11  and  C_12
REMARK    7  A    between atoms: C_12  and  N_14
REMARK    8  A    between atoms: N_14  and  N_15
REMARK    9  A    between atoms: N_15  and  C_16
REMARK                            x       y       z     vdW  Elec       q    Type
REMARK                         _______ _______ _______ _____ _____    ______ ____
ROOT
ATOM      1  C   UNL     1      -6.037  -1.853   0.227  0.00  0.00    +0.151 C 
ATOM      2  S   UNL     1      -5.970  -0.146   0.338  0.00  0.00    -0.017 S 
ENDROOT
BRANCH   1   3
ATOM      3  N   UNL     1      -4.909  -2.561   0.020  0.00  0.00    -0.293 N 
ATOM      4  H   UNL     1      -4.955  -3.520  -0.115  0.00  0.00    +0.154 HD
BRANCH   3   8
ATOM      5  C   UNL     1      -1.212  -0.622  -0.040  0.00  0.00    +0.124 A 
ATOM      6  C   UNL     1      -2.205  -0.198   0.830  0.00  0.00    +0.047 A 
ATOM      7  C   UNL     1      -3.429  -0.840   0.850  0.00  0.00    +0.030 A 
ATOM      8  C   UNL     1      -3.666  -1.909  -0.001  0.00  0.00    +0.075 A 
ATOM      9  C   UNL     1      -2.670  -2.335  -0.875  0.00  0.00    +0.145 A 
ATOM     10  C   UNL     1      -1.446  -1.687  -0.896  0.00  0.00    +0.093 A 
BRANCH   5  12
ATOM     11  C   UNL     1       0.164   1.101   0.851  0.00  0.00    +0.277 C 
ATOM     12  O   UNL     1      -0.009   0.012  -0.057  0.00  0.00    -0.495 OA
ENDBRANCH   5  12
BRANCH   9  13
ATOM     13  O   UNL     1      -2.900  -3.384  -1.710  0.00  0.00    -0.493 OA
ATOM     14  C   UNL     1      -1.832  -3.766  -2.580  0.00  0.00    +0.277 C 
ENDBRANCH   9  13
ENDBRANCH   3   8
ENDBRANCH   1   3
BRANCH   1  15
ATOM     15  N   UNL     1      -7.219  -2.490   0.346  0.00  0.00    -0.248 N 
ATOM     16  H   UNL     1      -8.031  -1.981   0.495  0.00  0.00    +0.172 HD
BRANCH  15  17
ATOM     17  N   UNL     1      -7.275  -3.887   0.255  0.00  0.00    -0.262 N 
ATOM     18  H   UNL     1      -6.455  -4.402   0.186  0.00  0.00    +0.170 HD
BRANCH  17  19
ATOM     19  C   UNL     1      -8.512  -4.540   0.263  0.00  0.00    +0.081 A 
ATOM     20  C   UNL     1      -8.638  -5.784   0.869  0.00  0.00    +0.066 A 
ATOM     21  C   UNL     1      -9.862  -6.427   0.876  0.00  0.00    +0.042 A 
ATOM     22  C   UNL     1     -10.961  -5.832   0.281  0.00  0.00    +0.044 A 
ATOM     23  C   UNL     1     -10.838  -4.593  -0.322  0.00  0.00    +0.042 A 
ATOM     24  C   UNL     1      -9.618  -3.943  -0.328  0.00  0.00    +0.066 A 
ATOM     25 CL   UNL     1      -9.467  -2.386  -1.080  0.00  0.00    -0.081 Cl
ATOM     26 CL   UNL     1     -12.496  -6.643   0.292  0.00  0.00    -0.083 Cl
ATOM     27 CL   UNL     1      -7.260  -6.532   1.615  0.00  0.00    -0.081 Cl
ENDBRANCH  17  19
ENDBRANCH  15  17
ENDBRANCH   1  15
TORSDOF 7
