REMARK  Name = ZINC39357178
REMARK  9 active torsions:
REMARK  status: ('A' for Active; 'I' for Inactive)
REMARK    1  A    between atoms: C_1  and  C_2
REMARK    2  A    between atoms: C_2  and  O_3
REMARK    3  A    between atoms: O_3  and  C_4
REMARK    4  A    between atoms: C_6  and  C_20
REMARK    5  A    between atoms: C_9  and  O_10
REMARK    6  A    between atoms: O_10  and  C_11
REMARK    7  A    between atoms: C_11  and  C_12
REMARK    8  A    between atoms: C_21  and  C_22
REMARK    9  A    between atoms: C_21  and  C_24
REMARK                            x       y       z     vdW  Elec       q    Type
REMARK                         _______ _______ _______ _____ _____    ______ ____
ROOT
ATOM      1  C   UNL     1      -1.787  -2.090  -0.383  0.00  0.00    +0.164 A 
ATOM      2  C   UNL     1      -0.618  -2.795  -0.175  0.00  0.00    +0.057 A 
ATOM      3  C   UNL     1      -0.626  -4.193  -0.239  0.00  0.00    -0.019 A 
ATOM      4  C   UNL     1      -1.820  -4.869  -0.514  0.00  0.00    +0.027 A 
ATOM      5  C   UNL     1      -2.983  -4.158  -0.720  0.00  0.00    +0.064 A 
ATOM      6  C   UNL     1      -2.974  -2.771  -0.650  0.00  0.00    +0.176 A 
ATOM      7 BR   UNL     1      -4.596  -5.073  -1.091  0.00  0.00    -0.046 Br
ENDROOT
BRANCH   3   8
ATOM      8  C   UNL     1       0.615  -4.949  -0.019  0.00  0.00    +0.026 C 
ATOM      9  C   UNL     1       0.582  -6.123   0.646  0.00  0.00    +0.072 C 
BRANCH   9  10
ATOM     10  C   UNL     1       1.821  -6.977   0.730  0.00  0.00    +0.216 C 
ATOM     11  N   UNL     1       1.549  -8.315   0.188  0.00  0.00    -0.359 N 
ATOM     12  C   UNL     1       1.748  -9.172   1.147  0.00  0.00    +0.060 A 
ATOM     13  C   UNL     1       1.640 -10.636   1.216  0.00  0.00    +0.027 A 
ATOM     14  C   UNL     1       1.917 -11.269   2.374  0.00  0.00    +0.002 A 
ATOM     15  C   UNL     1       2.309 -10.584   3.538  0.00  0.00    +0.002 A 
ATOM     16  C   UNL     1       2.439  -9.243   3.583  0.00  0.00    +0.027 A 
ATOM     17  C   UNL     1       2.165  -8.447   2.378  0.00  0.00    +0.060 A 
ATOM     18  N   UNL     1       2.206  -7.169   2.134  0.00  0.00    -0.359 N 
ATOM     19  H   UNL     1       1.271  -8.521  -0.718  0.00  0.00    +0.162 HD
ATOM     20  H   UNL     1       2.448  -6.472   2.763  0.00  0.00    +0.162 HD
ENDBRANCH   9  10
BRANCH   9  21
ATOM     21  C   UNL     1      -0.631  -6.557   1.271  0.00  0.00    +0.099 C 
ATOM     22  N   UNL     1      -1.593  -6.902   1.768  0.00  0.00    -0.191 NA
ENDBRANCH   9  21
ENDBRANCH   3   8
BRANCH   1  23
ATOM     23  O   UNL     1      -1.782  -0.732  -0.321  0.00  0.00    -0.489 OA
BRANCH  23  25
ATOM     24  C   UNL     1      -0.721   1.418  -0.013  0.00  0.00    +0.048 C 
ATOM     25  C   UNL     1      -0.531  -0.100  -0.043  0.00  0.00    +0.226 C 
ENDBRANCH  23  25
ENDBRANCH   1  23
BRANCH   6  26
ATOM     26  O   UNL     1      -4.124  -2.075  -0.849  0.00  0.00    -0.483 OA
BRANCH  26  27
ATOM     27  C   UNL     1      -4.424  -1.687  -2.191  0.00  0.00    +0.267 C 
BRANCH  27  28
ATOM     28  C   UNL     1      -5.727  -0.930  -2.216  0.00  0.00    +0.025 A 
ATOM     29  C   UNL     1      -6.421  -0.710  -1.041  0.00  0.00    +0.010 A 
ATOM     30  C   UNL     1      -7.617  -0.017  -1.063  0.00  0.00    +0.001 A 
ATOM     31  C   UNL     1      -8.119   0.459  -2.261  0.00  0.00    +0.003 A 
ATOM     32  C   UNL     1      -7.426   0.240  -3.436  0.00  0.00    +0.039 A 
ATOM     33  C   UNL     1      -6.226  -0.450  -3.414  0.00  0.00    +0.130 A 
ATOM     34  F   UNL     1      -5.546  -0.660  -4.562  0.00  0.00    -0.205 F 
ENDBRANCH  27  28
ENDBRANCH  26  27
ENDBRANCH   6  26
TORSDOF 8
