REMARK  Name = ZINC02052499
REMARK  5 active torsions:
REMARK  status: ('A' for Active; 'I' for Inactive)
REMARK    1  A    between atoms: C_4  and  C_7
REMARK    2  A    between atoms: C_18  and  S_20
REMARK    3  A    between atoms: S_20  and  C_21
REMARK    4  A    between atoms: C_21  and  C_22
REMARK    5  A    between atoms: N_32  and  C_33
REMARK                            x       y       z     vdW  Elec       q    Type
REMARK                         _______ _______ _______ _____ _____    ______ ____
ROOT
ATOM      1  C   UNL     1      -0.791   4.713   2.815  0.00  0.00    +0.164 A 
ATOM      2  N   UNL     1       0.192   4.133   3.455  0.00  0.00    -0.227 NA
ATOM      3  C   UNL     1       0.149   2.833   3.805  0.00  0.00    +0.077 A 
ATOM      4  C   UNL     1       1.208   2.227   4.490  0.00  0.00    +0.028 A 
ATOM      5  C   UNL     1       1.130   0.907   4.830  0.00  0.00    +0.002 A 
ATOM      6  C   UNL     1       0.011   0.149   4.506  0.00  0.00    +0.001 A 
ATOM      7  C   UNL     1      -1.048   0.717   3.832  0.00  0.00    +0.014 A 
ATOM      8  C   UNL     1      -0.990   2.062   3.475  0.00  0.00    +0.045 A 
ATOM      9  C   UNL     1      -2.087   2.726   2.762  0.00  0.00    +0.168 A 
ATOM     10  N   UNL     1      -1.933   4.051   2.453  0.00  0.00    -0.193 N 
ATOM     11  N   UNL     1      -3.102   4.430   1.780  0.00  0.00    -0.136 NA
ATOM     12  C   UNL     1      -3.872   3.364   1.712  0.00  0.00    +0.210 A 
ATOM     13  N   UNL     1      -3.257   2.337   2.301  0.00  0.00    -0.201 NA
ENDROOT
BRANCH   1  17
ATOM     14  C   UNL     1      -0.423   8.825   1.818  0.00  0.00    +0.000 A 
ATOM     15  C   UNL     1       0.702   8.097   2.162  0.00  0.00    +0.001 A 
ATOM     16  C   UNL     1       0.590   6.760   2.486  0.00  0.00    +0.011 A 
ATOM     17  C   UNL     1      -0.663   6.144   2.468  0.00  0.00    +0.019 A 
ATOM     18  C   UNL     1      -1.793   6.884   2.115  0.00  0.00    +0.011 A 
ATOM     19  C   UNL     1      -1.667   8.220   1.798  0.00  0.00    +0.001 A 
ENDBRANCH   1  17
BRANCH  12  20
ATOM     20  S   UNL     1      -5.464   3.304   0.959  0.00  0.00    -0.077 S 
BRANCH  20  21
ATOM     21  C   UNL     1      -5.663   4.949   0.221  0.00  0.00    +0.152 C 
BRANCH  21  22
ATOM     22  C   UNL     1      -7.047   5.073  -0.362  0.00  0.00    +0.128 A 
ATOM     23  N   UNL     1      -7.818   4.029  -0.347  0.00  0.00    -0.232 NA
ATOM     24  C   UNL     1      -9.078   4.068  -0.850  0.00  0.00    +0.078 A 
ATOM     25  C   UNL     1      -9.909   2.946  -0.829  0.00  0.00    +0.028 A 
ATOM     26  C   UNL     1     -11.179   3.029  -1.355  0.00  0.00    +0.002 A 
ATOM     27  C   UNL     1     -11.645   4.215  -1.906  0.00  0.00    +0.001 A 
ATOM     28  C   UNL     1     -10.844   5.335  -1.938  0.00  0.00    +0.015 A 
ATOM     29  C   UNL     1      -9.555   5.273  -1.411  0.00  0.00    +0.065 A 
ATOM     30  C   UNL     1      -8.655   6.435  -1.418  0.00  0.00    +0.266 A 
ATOM     31  O   UNL     1      -9.005   7.503  -1.888  0.00  0.00    -0.267 OA
ATOM     32  N   UNL     1      -7.423   6.273  -0.883  0.00  0.00    -0.264 N 
BRANCH  32  33
ATOM     33  C   UNL     1      -6.526   7.349  -0.865  0.00  0.00    +0.051 A 
ATOM     34  C   UNL     1      -6.519   8.230   0.209  0.00  0.00    +0.026 A 
ATOM     35  C   UNL     1      -5.630   9.287   0.226  0.00  0.00    +0.002 A 
ATOM     36  C   UNL     1      -4.757   9.475  -0.829  0.00  0.00    +0.000 A 
ATOM     37  C   UNL     1      -4.765   8.603  -1.901  0.00  0.00    +0.002 A 
ATOM     38  C   UNL     1      -5.647   7.540  -1.923  0.00  0.00    +0.026 A 
ENDBRANCH  32  33
ENDBRANCH  21  22
ENDBRANCH  20  21
ENDBRANCH  12  20
TORSDOF 5
