REMARK  Name = ZINC41007040
REMARK  13 active torsions:
REMARK  status: ('A' for Active; 'I' for Inactive)
REMARK    1  A    between atoms: C_1  and  C_2
REMARK    2  A    between atoms: C_2  and  C_3
REMARK    3  A    between atoms: C_3  and  C_4
REMARK    4  A    between atoms: C_4  and  C_5
REMARK    5  A    between atoms: C_5  and  O_6
REMARK    6  A    between atoms: O_6  and  C_7
REMARK    7  A    between atoms: C_12  and  C_13
REMARK    8  A    between atoms: C_15  and  C_34
REMARK    9  A    between atoms: C_20  and  C_32
REMARK   10  A    between atoms: C_20  and  O_33
REMARK   11  A    between atoms: C_21  and  C_23
REMARK   12  A    between atoms: N_25  and  C_26
REMARK   13  A    between atoms: N_36  and  C_37
REMARK                            x       y       z     vdW  Elec       q    Type
REMARK                         _______ _______ _______ _____ _____    ______ ____
ROOT
ATOM      1  C   UNL     1      -3.397  -6.900   0.220  0.00  0.00    +0.056 C 
ATOM      2  C   UNL     1      -3.253  -7.700   1.519  0.00  0.00    +0.150 C 
ATOM      3  C   UNL     1      -1.828  -8.196   1.623  0.00  0.00    +0.148 C 
ATOM      4  O   UNL     1      -1.178  -8.008   2.623  0.00  0.00    -0.296 OA
ATOM      5  C   UNL     1      -1.237  -8.934   0.442  0.00  0.00    +0.110 C 
ATOM      6  C   UNL     1      -1.454  -8.090  -0.818  0.00  0.00    +0.082 C 
ATOM      7  C   UNL     1      -2.941  -7.761  -0.960  0.00  0.00    +0.116 C 
ATOM      8  C   UNL     1      -0.653  -6.791  -0.706  0.00  0.00    +0.042 C 
ENDROOT
BRANCH   1  14
ATOM      9  C   UNL     1      -5.335  -5.366   0.641  0.00  0.00    +0.124 A 
ATOM     10  C   UNL     1      -6.662  -5.004   0.459  0.00  0.00    +0.046 A 
ATOM     11  C   UNL     1      -7.487  -5.784  -0.328  0.00  0.00    +0.004 A 
ATOM     12  C   UNL     1      -6.992  -6.925  -0.933  0.00  0.00    +0.001 A 
ATOM     13  C   UNL     1      -5.670  -7.287  -0.752  0.00  0.00    +0.007 A 
ATOM     14  C   UNL     1      -4.839  -6.507   0.029  0.00  0.00    -0.001 A 
BRANCH   9  15
ATOM     15  O   UNL     1      -4.520  -4.600   1.414  0.00  0.00    -0.492 OA
BRANCH  15  16
ATOM     16  C   UNL     1      -5.099  -3.438   2.013  0.00  0.00    +0.229 C 
BRANCH  16  17
ATOM     17  C   UNL     1      -4.037  -2.709   2.839  0.00  0.00    +0.041 C 
BRANCH  17  18
ATOM     18  C   UNL     1      -4.657  -1.465   3.481  0.00  0.00    +0.003 C 
BRANCH  18  20
ATOM     19  C   UNL     1      -4.215   0.508   4.948  0.00  0.00    +0.004 C 
ATOM     20  C   UNL     1      -3.596  -0.736   4.307  0.00  0.00    -0.003 C 
ENDBRANCH  18  20
ENDBRANCH  17  18
ENDBRANCH  16  17
ENDBRANCH  15  16
ENDBRANCH   9  15
ENDBRANCH   1  14
BRANCH   7  21
ATOM     21  C   UNL     1      -3.168  -7.008  -2.245  0.00  0.00    +0.224 C 
ATOM     22  O   UNL     1      -3.172  -5.795  -2.245  0.00  0.00    -0.275 OA
ATOM     23  N   UNL     1      -3.365  -7.682  -3.396  0.00  0.00    -0.285 N 
ATOM     24  H   UNL     1      -3.288  -8.649  -3.410  0.00  0.00    +0.155 HD
BRANCH  23  25
ATOM     25  C   UNL     1      -3.682  -6.988  -4.568  0.00  0.00    +0.033 A 
ATOM     26  C   UNL     1      -4.557  -7.545  -5.492  0.00  0.00    +0.023 A 
ATOM     27  C   UNL     1      -4.867  -6.857  -6.649  0.00  0.00    +0.002 A 
ATOM     28  C   UNL     1      -4.309  -5.615  -6.887  0.00  0.00    +0.000 A 
ATOM     29  C   UNL     1      -3.437  -5.058  -5.970  0.00  0.00    +0.002 A 
ATOM     30  C   UNL     1      -3.127  -5.738  -4.808  0.00  0.00    +0.023 A 
ENDBRANCH  23  25
ENDBRANCH   7  21
BRANCH   2  31
ATOM     31  C   UNL     1      -4.201  -8.871   1.500  0.00  0.00    +0.228 C 
ATOM     32  O   UNL     1      -4.817  -9.136   0.490  0.00  0.00    -0.275 OA
ATOM     33  N   UNL     1      -4.364  -9.624   2.606  0.00  0.00    -0.285 N 
ATOM     34  H   UNL     1      -3.915  -9.379   3.430  0.00  0.00    +0.155 HD
BRANCH  33  35
ATOM     35  C   UNL     1      -5.180 -10.760   2.565  0.00  0.00    +0.033 A 
ATOM     36  C   UNL     1      -5.925 -11.122   3.679  0.00  0.00    +0.023 A 
ATOM     37  C   UNL     1      -6.731 -12.243   3.636  0.00  0.00    +0.002 A 
ATOM     38  C   UNL     1      -6.795 -13.005   2.484  0.00  0.00    +0.000 A 
ATOM     39  C   UNL     1      -6.054 -12.648   1.372  0.00  0.00    +0.002 A 
ATOM     40  C   UNL     1      -5.252 -11.524   1.408  0.00  0.00    +0.023 A 
ENDBRANCH  33  35
ENDBRANCH   2  31
BRANCH   6  41
ATOM     41  O   UNL     1      -1.017  -8.823  -1.964  0.00  0.00    -0.388 OA
ATOM     42  H   UNL     1      -0.082  -9.067  -1.942  0.00  0.00    +0.210 HD
ENDBRANCH   6  41
TORSDOF 11
