REMARK  Name = ZINC00781107
REMARK  10 active torsions:
REMARK  status: ('A' for Active; 'I' for Inactive)
REMARK    1  A    between atoms: C_1  and  C_2
REMARK    2  A    between atoms: C_2  and  O_3
REMARK    3  A    between atoms: O_3  and  C_4
REMARK    4  A    between atoms: C_6  and  C_11
REMARK    5  A    between atoms: C_9  and  O_10
REMARK    6  A    between atoms: C_16  and  C_21
REMARK    7  A    between atoms: C_24  and  O_29
REMARK    8  A    between atoms: C_25  and  O_27
REMARK    9  A    between atoms: O_27  and  C_28
REMARK   10  A    between atoms: O_29  and  C_30
REMARK                            x       y       z     vdW  Elec       q    Type
REMARK                         _______ _______ _______ _____ _____    ______ ____
ROOT
ATOM      1  C   UNL     1       1.195   2.242   0.003  0.00  0.00    +0.136 C 
ATOM      2  C   UNL     1       0.009   1.306  -0.006  0.00  0.00    +0.036 C 
ATOM      3  C   UNL     1       0.065  -0.036  -0.010  0.00  0.00    +0.017 C 
ATOM      4  C   UNL     1      -1.214  -0.857  -0.058  0.00  0.00    +0.059 C 
ATOM      5  C   UNL     1      -2.322  -0.133   0.704  0.00  0.00    +0.032 C 
ATOM      6  C   UNL     1      -2.543   1.225   0.027  0.00  0.00    +0.088 C 
ATOM      7  C   UNL     1      -1.241   1.967   0.003  0.00  0.00    +0.163 C 
ATOM      8  O   UNL     1      -1.261   3.182  -0.010  0.00  0.00    -0.292 OA
ATOM      9  N   UNL     1       1.208  -0.768   0.012  0.00  0.00    -0.316 N 
ATOM     10  C   UNL     1       2.314  -0.532  -0.796  0.00  0.00    +0.052 A 
ATOM     11  C   UNL     1       2.740  -1.440  -1.750  0.00  0.00    +0.025 A 
ATOM     12  C   UNL     1       3.877  -1.163  -2.491  0.00  0.00    +0.002 A 
ATOM     13  C   UNL     1       4.581   0.008  -2.277  0.00  0.00    +0.002 A 
ATOM     14  C   UNL     1       4.146   0.924  -1.336  0.00  0.00    +0.025 A 
ATOM     15  C   UNL     1       2.997   0.660  -0.608  0.00  0.00    +0.049 A 
ATOM     16  N   UNL     1       2.463   1.599   0.273  0.00  0.00    -0.331 N 
ATOM     17  H   UNL     1       1.256  -1.508   0.637  0.00  0.00    +0.152 HD
ATOM     18  H   UNL     1       2.949   1.825   1.081  0.00  0.00    +0.147 HD
ENDROOT
BRANCH   1  21
ATOM     19  C   UNL     1       1.205   4.914  -2.668  0.00  0.00    +0.162 A 
ATOM     20  C   UNL     1       1.128   4.290  -1.433  0.00  0.00    +0.055 A 
ATOM     21  C   UNL     1       1.279   2.919  -1.341  0.00  0.00    -0.019 A 
ATOM     22  C   UNL     1       1.512   2.168  -2.478  0.00  0.00    +0.009 A 
ATOM     23  C   UNL     1       1.584   2.784  -3.714  0.00  0.00    +0.049 A 
ATOM     24  C   UNL     1       1.434   4.158  -3.813  0.00  0.00    +0.158 A 
BRANCH  24  25
ATOM     25  O   UNL     1       1.511   4.766  -5.027  0.00  0.00    -0.503 OA
ATOM     26  H   UNL     1       2.404   5.045  -5.272  0.00  0.00    +0.292 HD
ENDBRANCH  24  25
BRANCH  19  27
ATOM     27  O   UNL     1       1.057   6.263  -2.760  0.00  0.00    -0.489 OA
BRANCH  27  29
ATOM     28  C   UNL     1       0.685   8.468  -1.844  0.00  0.00    +0.048 C 
ATOM     29  C   UNL     1       0.825   6.975  -1.543  0.00  0.00    +0.226 C 
ENDBRANCH  27  29
ENDBRANCH  19  27
ENDBRANCH   1  21
BRANCH   5  30
ATOM     30  C   UNL     1      -3.592  -0.944   0.651  0.00  0.00    -0.040 A 
ATOM     31  C   UNL     1      -4.170  -1.242  -0.569  0.00  0.00    +0.008 A 
ATOM     32  C   UNL     1      -5.334  -1.986  -0.622  0.00  0.00    +0.049 A 
ATOM     33  C   UNL     1      -5.924  -2.434   0.548  0.00  0.00    +0.161 A 
ATOM     34  C   UNL     1      -5.342  -2.134   1.776  0.00  0.00    +0.162 A 
ATOM     35  C   UNL     1      -4.173  -1.392   1.823  0.00  0.00    +0.053 A 
BRANCH  34  36
ATOM     36  O   UNL     1      -5.918  -2.571   2.928  0.00  0.00    -0.491 OA
ATOM     37  C   UNL     1      -5.265  -2.225   4.152  0.00  0.00    +0.277 C 
ENDBRANCH  34  36
BRANCH  33  38
ATOM     38  O   UNL     1      -7.068  -3.167   0.497  0.00  0.00    -0.491 OA
ATOM     39  C   UNL     1      -7.608  -3.437  -0.797  0.00  0.00    +0.277 C 
ENDBRANCH  33  38
ENDBRANCH   5  30
TORSDOF 7
