REMARK  Name = ZINC16022249
REMARK  11 active torsions:
REMARK  status: ('A' for Active; 'I' for Inactive)
REMARK    1  A    between atoms: C_1  and  C_2
REMARK    2  A    between atoms: C_2  and  C_3
REMARK    3  A    between atoms: C_2  and  C_4
REMARK    4  A    between atoms: C_4  and  C_5
REMARK    5  A    between atoms: N_13  and  C_16
REMARK    6  A    between atoms: C_16  and  C_17
REMARK    7  A    between atoms: C_17  and  C_18
REMARK    8  A    between atoms: C_21  and  O_26
REMARK    9  A    between atoms: C_22  and  O_24
REMARK   10  A    between atoms: O_24  and  C_25
REMARK   11  A    between atoms: O_26  and  C_27
REMARK                            x       y       z     vdW  Elec       q    Type
REMARK                         _______ _______ _______ _____ _____    ______ ____
ROOT
ATOM      1  C   UNL     1      -1.416  -2.058  -0.121  0.00  0.00    +0.068 C 
ATOM      2  C   UNL     1      -2.849  -2.622  -0.025  0.00  0.00    +0.107 C 
ATOM      3  C   UNL     1      -2.888  -3.789  -1.049  0.00  0.00    +0.122 C 
ATOM      4  C   UNL     1      -3.887  -3.313  -2.080  0.00  0.00    +0.228 C 
ATOM      5  O   UNL     1      -4.226  -3.933  -3.066  0.00  0.00    -0.275 OA
ATOM      6  N   UNL     1      -4.339  -2.102  -1.736  0.00  0.00    -0.241 N 
ATOM      7  C   UNL     1      -3.822  -1.611  -0.586  0.00  0.00    +0.227 C 
ATOM      8  O   UNL     1      -4.089  -0.541  -0.083  0.00  0.00    -0.275 OA
ATOM      9  C   UNL     1      -1.479  -3.820  -1.653  0.00  0.00    +0.136 C 
ATOM     10  N   UNL     1      -0.937  -2.452  -1.473  0.00  0.00    -0.295 NA
ATOM     11  C   UNL     1      -0.622  -4.865  -0.997  0.00  0.00    +0.006 A 
ATOM     12  C   UNL     1      -0.210  -5.075   0.301  0.00  0.00    +0.046 A 
ATOM     13  C   UNL     1       0.599  -6.157   0.604  0.00  0.00    +0.124 A 
ATOM     14  C   UNL     1       0.992  -7.026  -0.400  0.00  0.00    +0.040 A 
ATOM     15  C   UNL     1       0.582  -6.817  -1.701  0.00  0.00    +0.026 A 
ATOM     16  C   UNL     1      -0.232  -5.731  -2.014  0.00  0.00    +0.039 A 
ATOM     17  N   UNL     1      -0.768  -5.314  -3.235  0.00  0.00    -0.283 N 
ATOM     18  C   UNL     1      -1.512  -4.198  -3.108  0.00  0.00    +0.243 C 
ATOM     19  O   UNL     1      -2.095  -3.612  -3.996  0.00  0.00    -0.273 OA
ATOM     20  F   UNL     1       1.004  -6.365   1.876  0.00  0.00    -0.205 F 
ATOM     21  H   UNL     1      -1.284  -1.820  -2.178  0.00  0.00    +0.123 HD
ATOM     22  H   UNL     1      -0.621  -5.774  -4.076  0.00  0.00    +0.155 HD
ENDROOT
BRANCH   1  23
ATOM     23  C   UNL     1      -1.433  -0.534   0.013  0.00  0.00    +0.022 C 
BRANCH  23  25
ATOM     24  C   UNL     1      -0.019   1.526   0.010  0.00  0.00    +0.007 C 
ATOM     25  C   UNL     1       0.002  -0.004   0.002  0.00  0.00    -0.016 C 
ATOM     26  C   UNL     1       0.742  -0.511   1.242  0.00  0.00    +0.007 C 
ENDBRANCH  23  25
ENDBRANCH   1  23
BRANCH   6  27
ATOM     27  C   UNL     1      -5.321  -1.365  -2.536  0.00  0.00    +0.121 C 
BRANCH  27  28
ATOM     28  C   UNL     1      -6.732  -1.721  -2.065  0.00  0.00    +0.054 C 
BRANCH  28  29
ATOM     29  C   UNL     1      -7.742  -0.963  -2.888  0.00  0.00    -0.042 A 
ATOM     30  C   UNL     1      -8.165   0.288  -2.480  0.00  0.00    +0.007 A 
ATOM     31  C   UNL     1      -9.091   0.987  -3.232  0.00  0.00    +0.049 A 
ATOM     32  C   UNL     1      -9.597   0.434  -4.397  0.00  0.00    +0.161 A 
ATOM     33  C   UNL     1      -9.171  -0.826  -4.808  0.00  0.00    +0.162 A 
ATOM     34  C   UNL     1      -8.239  -1.519  -4.052  0.00  0.00    +0.053 A 
BRANCH  33  35
ATOM     35  O   UNL     1      -9.666  -1.373  -5.950  0.00  0.00    -0.491 OA
ATOM     36  C   UNL     1      -9.183  -2.669  -6.310  0.00  0.00    +0.277 C 
ENDBRANCH  33  35
BRANCH  32  37
ATOM     37  O   UNL     1     -10.509   1.120  -5.137  0.00  0.00    -0.491 OA
ATOM     38  C   UNL     1     -10.900   2.407  -4.654  0.00  0.00    +0.277 C 
ENDBRANCH  32  37
ENDBRANCH  28  29
ENDBRANCH  27  28
ENDBRANCH   6  27
TORSDOF 7
