REMARK  Name = ZINC62913002
REMARK  4 active torsions:
REMARK  status: ('A' for Active; 'I' for Inactive)
REMARK    1  A    between atoms: C_1  and  C_2
REMARK    2  A    between atoms: C_2  and  C_16
REMARK    3  A    between atoms: C_7  and  C_9
REMARK    4  A    between atoms: N_13  and  C_14
REMARK                            x       y       z     vdW  Elec       q    Type
REMARK                         _______ _______ _______ _____ _____    ______ ____
ROOT
ATOM      1  C   UNL     1      -1.330  -0.070  -0.835  0.00  0.00    +0.024 C 
ATOM      2  C   UNL     1      -0.884  -1.495  -0.498  0.00  0.00    +0.086 C 
ATOM      3  C   UNL     1      -0.003  -2.065  -1.633  0.00  0.00    +0.038 C 
ATOM      4  C   UNL     1       1.435  -1.808  -1.115  0.00  0.00    +0.109 C 
ATOM      5  N   UNL     1       1.321  -2.057   0.340  0.00  0.00    -0.295 N 
ATOM      6  C   UNL     1       0.021  -1.491   0.748  0.00  0.00    +0.126 C 
ATOM      7  C   UNL     1       2.220  -2.676   1.131  0.00  0.00    +0.263 C 
ATOM      8  O   UNL     1       2.025  -2.755   2.329  0.00  0.00    -0.268 OA
ENDROOT
BRANCH   7   9
ATOM      9  C   UNL     1       3.435  -3.254   0.546  0.00  0.00    +0.106 A 
ATOM     10  C   UNL     1       3.981  -2.936  -0.680  0.00  0.00    +0.052 A 
ATOM     11  C   UNL     1       5.129  -3.720  -0.835  0.00  0.00    +0.059 A 
ATOM     12  C   UNL     1       5.262  -4.486   0.275  0.00  0.00    +0.106 A 
ATOM     13  N   UNL     1       4.241  -4.208   1.124  0.00  0.00    -0.345 N 
ATOM     14  C   UNL     1       4.030  -4.824   2.436  0.00  0.00    +0.149 C 
ATOM     15 CL   UNL     1       6.194  -3.712  -2.205  0.00  0.00    -0.082 Cl
ENDBRANCH   7   9
BRANCH   2  16
ATOM     16  C   UNL     1      -2.084  -2.377  -0.271  0.00  0.00    +0.363 C 
ATOM     17  O   UNL     1      -3.208  -1.918  -0.380  0.00  0.00    -0.246 OA
ATOM     18  O   UNL     1      -1.931  -3.551   0.023  0.00  0.00    -0.246 OA
ENDBRANCH   2  16
TORSDOF 2
