REMARK  Name = ZINC36341669
REMARK  12 active torsions:
REMARK  status: ('A' for Active; 'I' for Inactive)
REMARK    1  A    between atoms: C_1  and  C_2
REMARK    2  A    between atoms: C_2  and  O_3
REMARK    3  A    between atoms: O_3  and  C_4
REMARK    4  A    between atoms: C_4  and  C_6
REMARK    5  A    between atoms: N_11  and  C_13
REMARK    6  A    between atoms: C_13  and  C_14
REMARK    7  A    between atoms: C_17  and  C_29
REMARK    8  A    between atoms: C_20  and  C_22
REMARK    9  A    between atoms: C_31  and  O_37
REMARK   10  A    between atoms: C_34  and  O_35
REMARK   11  A    between atoms: O_35  and  C_36
REMARK   12  A    between atoms: O_37  and  C_38
REMARK                            x       y       z     vdW  Elec       q    Type
REMARK                         _______ _______ _______ _____ _____    ______ ____
ROOT
ATOM      1  C   UNL     1       2.968  -6.452  -4.723  0.00  0.00    +0.219 C 
ATOM      2  O   UNL     1       3.455  -5.701  -5.543  0.00  0.00    -0.276 OA
ATOM      3  N   UNL     1       3.146  -7.782  -4.839  0.00  0.00    -0.187 N 
ATOM      4  C   UNL     1       3.910  -8.455  -5.902  0.00  0.00    +0.140 C 
ATOM      5  C   UNL     1       3.785  -9.950  -5.546  0.00  0.00    +0.087 C 
ATOM      6  C   UNL     1       2.943  -9.956  -4.290  0.00  0.00    +0.069 C 
ATOM      7  N   UNL     1       2.642  -8.746  -3.968  0.00  0.00    -0.181 NA
ENDROOT
BRANCH   6   8
ATOM      8  C   UNL     1       2.535 -11.162  -3.546  0.00  0.00    -0.002 A 
ATOM      9  C   UNL     1       2.933 -12.427  -3.987  0.00  0.00    +0.012 A 
ATOM     10  C   UNL     1       2.548 -13.550  -3.287  0.00  0.00    +0.039 A 
ATOM     11  C   UNL     1       1.767 -13.427  -2.148  0.00  0.00    +0.123 A 
ATOM     12  C   UNL     1       1.369 -12.175  -1.706  0.00  0.00    +0.039 A 
ATOM     13  C   UNL     1       1.753 -11.044  -2.394  0.00  0.00    +0.012 A 
ATOM     14  F   UNL     1       1.393 -14.532  -1.466  0.00  0.00    -0.205 F 
ENDBRANCH   6   8
BRANCH   4  15
ATOM     15  C   UNL     1       3.301  -8.174  -7.251  0.00  0.00    +0.020 A 
ATOM     16  C   UNL     1       2.001  -7.715  -7.340  0.00  0.00    +0.054 A 
ATOM     17  C   UNL     1       1.440  -7.456  -8.582  0.00  0.00    +0.121 A 
ATOM     18  C   UNL     1       2.185  -7.659  -9.735  0.00  0.00    +0.049 A 
ATOM     19  C   UNL     1       3.484  -8.118  -9.646  0.00  0.00    +0.049 A 
ATOM     20  C   UNL     1       4.047  -8.372  -8.403  0.00  0.00    +0.125 A 
BRANCH  20  21
ATOM     21  O   UNL     1       5.328  -8.819  -8.316  0.00  0.00    -0.495 OA
ATOM     22  C   UNL     1       6.037  -9.000  -9.543  0.00  0.00    +0.277 C 
ENDBRANCH  20  21
BRANCH  17  23
ATOM     23  O   UNL     1       0.161  -7.004  -8.669  0.00  0.00    -0.495 OA
ATOM     24  C   UNL     1      -0.352  -6.759  -9.980  0.00  0.00    +0.277 C 
ENDBRANCH  17  23
ENDBRANCH   4  15
BRANCH   1  25
ATOM     25  C   UNL     1       2.165  -5.896  -3.576  0.00  0.00    +0.021 C 
BRANCH  25  30
ATOM     26  C   UNL     1       1.468  -2.353  -2.550  0.00  0.00    +0.081 C 
ATOM     27  C   UNL     1       0.740  -1.887  -3.814  0.00  0.00    +0.011 C 
ATOM     28  C   UNL     1       1.403  -2.524  -5.038  0.00  0.00    -0.018 C 
ATOM     29  C   UNL     1       1.385  -4.046  -4.887  0.00  0.00    -0.078 C 
ATOM     30  N   UNL     1       2.119  -4.431  -3.675  0.00  0.00    +0.386 N 
ATOM     31  C   UNL     1       1.448  -3.882  -2.490  0.00  0.00    -0.064 C 
ATOM     32  H   UNL     1       3.059  -4.069  -3.724  0.00  0.00    -0.081 HD
BRANCH  26  33
ATOM     33  C   UNL     1       0.775  -1.794  -1.334  0.00  0.00    +0.308 C 
ATOM     34  O   UNL     1       0.314  -2.540  -0.504  0.00  0.00    -0.251 OA
BRANCH  33  35
ATOM     35  O   UNL     1       0.671  -0.465  -1.174  0.00  0.00    -0.465 OA
BRANCH  35  37
ATOM     36  C   UNL     1      -0.019   1.526   0.010  0.00  0.00    +0.048 C 
ATOM     37  C   UNL     1       0.002  -0.004   0.002  0.00  0.00    +0.229 C 
ENDBRANCH  35  37
ENDBRANCH  33  35
ENDBRANCH  26  33
ENDBRANCH  25  30
ENDBRANCH   1  25
TORSDOF 9
