REMARK  Name = ZINC06578039
REMARK  4 active torsions:
REMARK  status: ('A' for Active; 'I' for Inactive)
REMARK    1  A    between atoms: C_6  and  S_7
REMARK    2  A    between atoms: S_7  and  N_10
REMARK    3  A    between atoms: C_13  and  C_16
REMARK    4  A    between atoms: N_18  and  C_19
REMARK                            x       y       z     vdW  Elec       q    Type
REMARK                         _______ _______ _______ _____ _____    ______ ____
ROOT
ATOM      1  N   UNL     1      -1.949  -1.145  -1.567  0.00  0.00    -0.177 NA
ATOM      2  C   UNL     1      -2.787  -0.165  -2.270  0.00  0.00    +0.110 C 
ATOM      3  C   UNL     1      -4.000  -0.888  -2.865  0.00  0.00    +0.030 C 
ATOM      4  C   UNL     1      -3.518  -2.047  -3.741  0.00  0.00    +0.077 C 
ATOM      5  C   UNL     1      -2.733  -3.043  -2.886  0.00  0.00    +0.030 C 
ATOM      6  C   UNL     1      -1.501  -2.341  -2.293  0.00  0.00    +0.110 C 
ENDROOT
BRANCH   4   7
ATOM      7  C   UNL     1      -4.707  -2.740  -4.355  0.00  0.00    +0.216 C 
ATOM      8  O   UNL     1      -5.829  -2.346  -4.115  0.00  0.00    -0.276 OA
ATOM      9  N   UNL     1      -4.524  -3.797  -5.170  0.00  0.00    -0.312 N 
ATOM     10  H   UNL     1      -3.627  -4.112  -5.362  0.00  0.00    +0.149 HD
BRANCH   9  11
ATOM     11  C   UNL     1      -5.680  -4.471  -5.767  0.00  0.00    +0.073 C 
ATOM     12  C   UNL     1      -6.228  -5.509  -4.786  0.00  0.00    +0.022 C 
ATOM     13  C   UNL     1      -7.636  -5.925  -5.217  0.00  0.00    +0.002 C 
ATOM     14  C   UNL     1      -8.437  -4.682  -5.609  0.00  0.00    +0.000 C 
ATOM     15  C   UNL     1      -8.728  -4.716  -7.111  0.00  0.00    +0.000 C 
ATOM     16  C   UNL     1      -7.462  -4.341  -7.884  0.00  0.00    +0.000 C 
ATOM     17  C   UNL     1      -6.493  -5.525  -7.881  0.00  0.00    +0.002 C 
ATOM     18  C   UNL     1      -5.252  -5.168  -7.060  0.00  0.00    +0.022 C 
ENDBRANCH   9  11
ENDBRANCH   4   7
BRANCH   1  19
ATOM     19  S   UNL     1      -1.513  -0.904   0.012  0.00  0.00    +0.061 S 
ATOM     20  O   UNL     1      -1.221  -2.185   0.553  0.00  0.00    -0.153 OA
ATOM     21  O   UNL     1      -2.492  -0.043   0.577  0.00  0.00    -0.153 OA
BRANCH  19  27
ATOM     22  C   UNL     1      -0.017   1.378   0.010  0.00  0.00    +0.030 A 
ATOM     23  C   UNL     1       1.169   2.087   0.002  0.00  0.00    +0.025 A 
ATOM     24  C   UNL     1       2.380   1.409  -0.013  0.00  0.00    +0.037 A 
ATOM     25  C   UNL     1       2.396   0.020  -0.020  0.00  0.00    -0.024 A 
ATOM     26  C   UNL     1       1.208  -0.682  -0.013  0.00  0.00    +0.034 A 
ATOM     27  C   UNL     1       0.002  -0.004   0.002  0.00  0.00    +0.106 A 
ATOM     28  C   UNL     1       3.711  -0.715  -0.036  0.00  0.00    +0.046 C 
ATOM     29  C   UNL     1       4.733   0.084  -0.846  0.00  0.00    +0.101 C 
ATOM     30  C   UNL     1       4.727   1.522  -0.402  0.00  0.00    +0.218 C 
ATOM     31  O   UNL     1       5.766   2.148  -0.389  0.00  0.00    -0.275 OA
ATOM     32  N   UNL     1       3.584   2.120  -0.020  0.00  0.00    -0.285 N 
ATOM     33  H   UNL     1       3.595   3.051   0.251  0.00  0.00    +0.155 HD
ENDBRANCH  19  27
ENDBRANCH   1  19
TORSDOF 4
