REMARK  Name = ZINC15018064
REMARK  7 active torsions:
REMARK  status: ('A' for Active; 'I' for Inactive)
REMARK    1  A    between atoms: C_1  and  C_2
REMARK    2  A    between atoms: C_2  and  O_3
REMARK    3  A    between atoms: O_3  and  C_4
REMARK    4  A    between atoms: C_6  and  C_13
REMARK    5  A    between atoms: C_9  and  O_10
REMARK    6  A    between atoms: O_10  and  C_11
REMARK    7  A    between atoms: C_25  and  C_30
REMARK                            x       y       z     vdW  Elec       q    Type
REMARK                         _______ _______ _______ _____ _____    ______ ____
ROOT
ATOM      1  C   UNL     1       4.971   4.051  -0.028  0.00  0.00    +0.107 C 
ATOM      2  C   UNL     1       6.088   3.038  -0.295  0.00  0.00    +0.047 C 
ATOM      3  C   UNL     1       6.031   1.908   0.729  0.00  0.00    +0.011 C 
ATOM      4  C   UNL     1       6.353   2.460   2.121  0.00  0.00    +0.028 C 
ATOM      5  C   UNL     1       7.725   3.140   2.076  0.00  0.00    +0.160 C 
ATOM      6  O   UNL     1       7.696   4.186   1.105  0.00  0.00    -0.372 OA
ATOM      7  C   UNL     1       7.437   3.750  -0.232  0.00  0.00    +0.155 C 
ATOM      8  C   UNL     1       7.424   4.957  -1.138  0.00  0.00    +0.003 A 
ATOM      9  C   UNL     1       8.629   5.473  -1.582  0.00  0.00    +0.011 A 
ATOM     10  C   UNL     1       8.650   6.580  -2.409  0.00  0.00    -0.050 A 
ATOM     11  C   UNL     1       7.466   7.178  -2.798  0.00  0.00    +0.005 A 
ATOM     12  C   UNL     1       6.260   6.668  -2.361  0.00  0.00    +0.023 A 
ATOM     13  C   UNL     1       6.236   5.552  -1.530  0.00  0.00    +0.033 A 
ATOM     14  N   UNL     1       5.001   5.045  -1.110  0.00  0.00    -0.336 N 
ATOM     15  C   UNL     1       9.967   7.136  -2.887  0.00  0.00    +0.044 C 
ATOM     16  H   UNL     1       4.178   5.345  -1.526  0.00  0.00    +0.147 HD
ENDROOT
BRANCH   1  19
ATOM     17  C   UNL     1       1.812   2.382   1.202  0.00  0.00    +0.163 A 
ATOM     18  C   UNL     1       3.041   3.023   1.188  0.00  0.00    +0.055 A 
ATOM     19  C   UNL     1       3.637   3.349  -0.015  0.00  0.00    -0.022 A 
ATOM     20  C   UNL     1       3.013   3.034  -1.208  0.00  0.00    +0.024 A 
ATOM     21  C   UNL     1       1.789   2.389  -1.202  0.00  0.00    +0.063 A 
ATOM     22  C   UNL     1       1.186   2.059   0.002  0.00  0.00    +0.175 A 
ATOM     23 BR   UNL     1       0.939   1.959  -2.835  0.00  0.00    -0.046 Br
BRANCH  22  24
ATOM     24  O   UNL     1      -0.017   1.425   0.010  0.00  0.00    -0.490 OA
ATOM     25  C   UNL     1       0.002  -0.004   0.002  0.00  0.00    +0.277 C 
ENDBRANCH  22  24
BRANCH  17  26
ATOM     26  O   UNL     1       1.221   2.066   2.385  0.00  0.00    -0.489 OA
BRANCH  26  28
ATOM     27  C   UNL     1       1.108   1.995   4.798  0.00  0.00    +0.048 C 
ATOM     28  C   UNL     1       1.921   2.429   3.577  0.00  0.00    +0.226 C 
ENDBRANCH  26  28
ENDBRANCH  17  26
ENDBRANCH   1  19
TORSDOF 4
