REMARK  Name = ZINC31809045
REMARK  5 active torsions:
REMARK  status: ('A' for Active; 'I' for Inactive)
REMARK    1  A    between atoms: C_1  and  C_2
REMARK    2  A    between atoms: N_21  and  C_22
REMARK    3  A    between atoms: C_22  and  C_23
REMARK    4  A    between atoms: C_23  and  C_24
REMARK    5  A    between atoms: C_23  and  C_25
REMARK                            x       y       z     vdW  Elec       q    Type
REMARK                         _______ _______ _______ _____ _____    ______ ____
ROOT
ATOM      1  C   UNL     1      -0.018   1.503   0.010  0.00  0.00    +0.044 C 
ATOM      2  C   UNL     1       0.002  -0.004   0.002  0.00  0.00    -0.050 A 
ATOM      3  C   UNL     1       0.005  -0.673  -1.205  0.00  0.00    +0.005 A 
ATOM      4  C   UNL     1       0.024  -2.057  -1.277  0.00  0.00    +0.024 A 
ATOM      5  C   UNL     1       0.040  -2.759  -0.071  0.00  0.00    +0.041 A 
ATOM      6  C   UNL     1       0.036  -2.068   1.148  0.00  0.00    -0.006 A 
ATOM      7  C   UNL     1       0.023  -0.691   1.211  0.00  0.00    +0.010 A 
ATOM      8  C   UNL     1       0.053  -3.111   2.219  0.00  0.00    +0.112 C 
ATOM      9  C   UNL     1      -1.193  -3.019   3.098  0.00  0.00    +0.122 C 
ATOM     10  C   UNL     1      -1.053  -1.931   4.127  0.00  0.00    +0.220 C 
ATOM     11  O   UNL     1      -2.026  -1.266   4.414  0.00  0.00    -0.275 OA
ATOM     12  N   UNL     1       0.121  -1.672   4.741  0.00  0.00    -0.270 N 
ATOM     13  C   UNL     1       1.271  -2.301   4.266  0.00  0.00    +0.125 A 
ATOM     14  C   UNL     1       1.279  -2.991   3.080  0.00  0.00    +0.032 A 
ATOM     15  C   UNL     1       2.556  -3.497   2.889  0.00  0.00    +0.141 A 
ATOM     16  N   UNL     1       3.299  -3.124   3.905  0.00  0.00    -0.180 NA
ATOM     17  N   UNL     1       2.508  -2.362   4.779  0.00  0.00    -0.264 N 
ATOM     18  H   UNL     1       2.803  -1.952   5.607  0.00  0.00    +0.190 HD
ATOM     19  C   UNL     1       0.067  -4.424   1.467  0.00  0.00    +0.235 C 
ATOM     20  O   UNL     1       0.081  -5.534   1.955  0.00  0.00    -0.274 OA
ATOM     21  N   UNL     1       0.059  -4.125   0.151  0.00  0.00    -0.270 N 
ATOM     22  H   UNL     1       0.163  -1.062   5.494  0.00  0.00    +0.156 HD
ENDROOT
BRANCH  21  23
ATOM     23  C   UNL     1       0.070  -5.128  -0.917  0.00  0.00    +0.116 C 
BRANCH  23  24
ATOM     24  C   UNL     1       1.516  -5.457  -1.293  0.00  0.00    +0.001 C 
ATOM     25  C   UNL     1       1.531  -6.592  -2.318  0.00  0.00    +0.009 C 
ATOM     26  C   UNL     1       2.181  -4.218  -1.895  0.00  0.00    +0.009 C 
ENDBRANCH  23  24
ENDBRANCH  21  23
TORSDOF 2
