REMARK  Name = ZINC36697855
REMARK  9 active torsions:
REMARK  status: ('A' for Active; 'I' for Inactive)
REMARK    1  A    between atoms: C_1  and  C_2
REMARK    2  A    between atoms: N_4  and  C_5
REMARK    3  A    between atoms: C_7  and  C_15
REMARK    4  A    between atoms: C_9  and  N_11
REMARK    5  A    between atoms: C_12  and  C_14
REMARK    6  A    between atoms: N_17  and  C_18
REMARK    7  A    between atoms: C_18  and  C_19
REMARK    8  A    between atoms: C_19  and  C_21
REMARK    9  A    between atoms: C_19  and  C_27
REMARK                            x       y       z     vdW  Elec       q    Type
REMARK                         _______ _______ _______ _____ _____    ______ ____
ROOT
ATOM      1  C   UNL     1      -3.405  -5.032   0.156  0.00  0.00    +0.244 C 
ATOM      2  O   UNL     1      -4.487  -4.483   0.075  0.00  0.00    -0.270 OA
ATOM      3  N   UNL     1      -3.335  -6.375   0.243  0.00  0.00    -0.310 N 
ATOM      4  H   UNL     1      -2.472  -6.812   0.308  0.00  0.00    +0.149 HD
ENDROOT
BRANCH   1   7
ATOM      5  C   UNL     1      -1.072  -2.082   0.069  0.00  0.00    +0.036 A 
ATOM      6  C   UNL     1      -2.236  -2.835   0.067  0.00  0.00    +0.036 A 
ATOM      7  C   UNL     1      -2.166  -4.225   0.158  0.00  0.00    +0.040 A 
ATOM      8  C   UNL     1      -0.923  -4.853   0.251  0.00  0.00    +0.036 A 
ATOM      9  C   UNL     1       0.237  -4.093   0.253  0.00  0.00    +0.036 A 
ATOM     10  C   UNL     1       0.163  -2.710   0.156  0.00  0.00    +0.046 A 
BRANCH   5  14
ATOM     11  C   UNL     1      -2.173   1.484   0.562  0.00  0.00    +0.109 C 
ATOM     12  C   UNL     1      -2.154  -0.023   0.570  0.00  0.00    +0.214 C 
ATOM     13  O   UNL     1      -3.049  -0.638   1.110  0.00  0.00    -0.276 OA
ATOM     14  N   UNL     1      -1.141  -0.687  -0.022  0.00  0.00    -0.286 N 
ATOM     15  H   UNL     1      -0.461  -0.198  -0.511  0.00  0.00    +0.155 HD
ENDBRANCH   5  14
BRANCH   9  16
ATOM     16  N   UNL     1       1.484  -4.722   0.346  0.00  0.00    -0.286 N 
ATOM     17  C   UNL     1       2.487  -4.131   1.025  0.00  0.00    +0.214 C 
ATOM     18  O   UNL     1       2.337  -3.018   1.483  0.00  0.00    -0.276 OA
ATOM     19  C   UNL     1       3.796  -4.854   1.215  0.00  0.00    +0.109 C 
ATOM     20  H   UNL     1       1.626  -5.583  -0.077  0.00  0.00    +0.155 HD
ENDBRANCH   9  16
ENDBRANCH   1   7
BRANCH   3  21
ATOM     21  C   UNL     1      -4.563  -7.174   0.242  0.00  0.00    +0.117 C 
BRANCH  21  22
ATOM     22  C   UNL     1      -4.206  -8.658   0.350  0.00  0.00    +0.068 C 
BRANCH  22  23
ATOM     23  C   UNL     1      -5.459  -9.486   0.225  0.00  0.00    -0.013 A 
ATOM     24  C   UNL     1      -6.536  -9.431   1.025  0.00  0.00    +0.088 A 
ATOM     25  N   UNL     1      -7.476 -10.331   0.603  0.00  0.00    -0.360 N 
ATOM     26  H   UNL     1      -8.339 -10.473   1.023  0.00  0.00    +0.165 HD
ATOM     27  C   UNL     1      -7.016 -11.003  -0.507  0.00  0.00    +0.047 A 
ATOM     28  C   UNL     1      -5.735 -10.499  -0.796  0.00  0.00    +0.003 A 
ATOM     29  C   UNL     1      -5.020 -10.998  -1.886  0.00  0.00    +0.010 A 
ATOM     30  C   UNL     1      -5.571 -11.972  -2.671  0.00  0.00    +0.001 A 
ATOM     31  C   UNL     1      -6.836 -12.470  -2.392  0.00  0.00    +0.002 A 
ATOM     32  C   UNL     1      -7.555 -11.998  -1.316  0.00  0.00    +0.026 A 
ENDBRANCH  22  23
BRANCH  22  33
ATOM     33  C   UNL     1      -3.561  -8.922   1.686  0.00  0.00    -0.038 A 
ATOM     34  C   UNL     1      -4.255  -8.664   2.853  0.00  0.00    +0.004 A 
ATOM     35  C   UNL     1      -3.663  -8.907   4.078  0.00  0.00    +0.000 A 
ATOM     36  C   UNL     1      -2.376  -9.408   4.136  0.00  0.00    +0.000 A 
ATOM     37  C   UNL     1      -1.681  -9.667   2.970  0.00  0.00    +0.000 A 
ATOM     38  C   UNL     1      -2.275  -9.428   1.744  0.00  0.00    +0.004 A 
ENDBRANCH  22  33
ENDBRANCH  21  22
ENDBRANCH   3  21
TORSDOF 7
