REMARK  Name = ZINC04854956
REMARK  5 active torsions:
REMARK  status: ('A' for Active; 'I' for Inactive)
REMARK    1  A    between atoms: C_3  and  N_22
REMARK    2  A    between atoms: C_4  and  C_8
REMARK    3  A    between atoms: C_10  and  C_20
REMARK    4  A    between atoms: C_15  and  N_19
REMARK    5  A    between atoms: C_16  and  C_17
REMARK                            x       y       z     vdW  Elec       q    Type
REMARK                         _______ _______ _______ _____ _____    ______ ____
ROOT
ATOM      1  C   UNL     1       3.723  -0.686   0.012  0.00  0.00    +0.087 C 
ATOM      2  C   UNL     1       3.900  -1.389  -1.328  0.00  0.00    +0.159 C 
ATOM      3  C   UNL     1       2.884  -2.514  -1.429  0.00  0.00    +0.089 C 
ATOM      4  N   UNL     1       1.954  -2.522  -2.327  0.00  0.00    -0.296 NA
ATOM      5  S   UNL     1       3.054  -3.815  -0.236  0.00  0.00    -0.058 S 
ATOM      6  C   UNL     1       3.472  -2.914   1.224  0.00  0.00    +0.079 C 
ATOM      7  C   UNL     1       3.753  -1.602   1.182  0.00  0.00    +0.066 C 
ATOM      8  H   UNL     1       1.321  -3.256  -2.363  0.00  0.00    +0.187 HD
ENDROOT
BRANCH   1  12
ATOM      9  C   UNL     1      -0.023   1.369  -0.015  0.00  0.00    +0.022 A 
ATOM     10  C   UNL     1       1.078   1.928  -0.638  0.00  0.00    +0.034 A 
ATOM     11  C   UNL     1       2.289   1.263  -0.629  0.00  0.00    +0.130 A 
ATOM     12  C   UNL     1       2.402   0.038   0.003  0.00  0.00    -0.006 A 
ATOM     13  C   UNL     1       1.303  -0.521   0.626  0.00  0.00    +0.026 A 
ATOM     14  C   UNL     1       0.089   0.143   0.617  0.00  0.00    +0.041 A 
ATOM     15 CL   UNL     1      -1.292  -0.559   1.399  0.00  0.00    -0.084 Cl
BRANCH  11  16
ATOM     16  N   UNL     1       3.467   1.862  -1.296  0.00  0.00    +0.057 N 
ATOM     17  O   UNL     1       3.346   2.882  -1.934  0.00  0.00    -0.126 OA
ATOM     18  O   UNL     1       4.550   1.332  -1.203  0.00  0.00    -0.126 OA
ENDBRANCH  11  16
ENDBRANCH   1  12
BRANCH   6  19
ATOM     19  N   UNL     1       3.511  -3.572   2.430  0.00  0.00    -0.352 N 
ATOM     20  H   UNL     1       3.309  -4.520   2.472  0.00  0.00    +0.143 HD
ATOM     21  H   UNL     1       3.739  -3.089   3.239  0.00  0.00    +0.143 HD
ENDBRANCH   6  19
BRANCH   7  22
ATOM     22  C   UNL     1       4.130  -1.009   2.430  0.00  0.00    +0.098 C 
ATOM     23  N   UNL     1       4.429  -0.539   3.420  0.00  0.00    -0.191 NA
ENDBRANCH   7  22
BRANCH   2  24
ATOM     24  C   UNL     1       5.262  -1.940  -1.420  0.00  0.00    +0.074 C 
ATOM     25  N   UNL     1       6.312  -2.366  -1.492  0.00  0.00    -0.196 NA
ENDBRANCH   2  24
TORSDOF 5
