REMARK  Name = ZINC09409337
REMARK  14 active torsions:
REMARK  status: ('A' for Active; 'I' for Inactive)
REMARK    1  A    between atoms: C_1  and  C_2
REMARK    2  A    between atoms: C_5  and  N_8
REMARK    3  A    between atoms: C_9  and  C_34
REMARK    4  A    between atoms: C_10  and  C_31
REMARK    5  A    between atoms: C_15  and  O_17
REMARK    6  A    between atoms: O_17  and  C_18
REMARK    7  A    between atoms: C_18  and  C_19
REMARK    8  A    between atoms: C_19  and  C_21
REMARK    9  A    between atoms: C_19  and  O_30
REMARK   10  A    between atoms: C_21  and  N_66
REMARK   11  A    between atoms: C_22  and  N_66
REMARK   12  A    between atoms: C_23  and  C_24
REMARK   13  A    between atoms: C_23  and  N_66
REMARK   14  A    between atoms: C_31  and  C_33
REMARK                            x       y       z     vdW  Elec       q    Type
REMARK                         _______ _______ _______ _____ _____    ______ ____
ROOT
ATOM      1  N   UNL     1      -4.613  -0.401   1.885  0.00  0.00    -0.313 N 
ATOM      2  C   UNL     1      -4.289   0.657   1.106  0.00  0.00    +0.032 A 
ATOM      3  C   UNL     1      -3.276   0.300   0.242  0.00  0.00    +0.046 A 
ATOM      4  C   UNL     1      -2.966  -1.115   0.529  0.00  0.00    +0.014 A 
ATOM      5  C   UNL     1      -3.829  -1.496   1.568  0.00  0.00    +0.055 A 
ATOM      6  C   UNL     1      -3.769  -2.794   2.064  0.00  0.00    +0.030 A 
ATOM      7  C   UNL     1      -2.863  -3.691   1.541  0.00  0.00    +0.048 A 
ATOM      8  C   UNL     1      -2.003  -3.312   0.515  0.00  0.00    +0.121 A 
ATOM      9  C   UNL     1      -2.050  -2.025   0.010  0.00  0.00    +0.056 A 
ATOM     10  C   UNL     1      -4.937   2.016   1.172  0.00  0.00    +0.064 C 
ENDROOT
BRANCH   1  15
ATOM     11  C   UNL     1      -8.628  -0.355   5.894  0.00  0.00    +0.044 C 
ATOM     12  C   UNL     1      -7.562  -0.367   4.830  0.00  0.00    -0.050 A 
ATOM     13  C   UNL     1      -7.911  -0.203   3.502  0.00  0.00    +0.005 A 
ATOM     14  C   UNL     1      -6.936  -0.214   2.523  0.00  0.00    +0.026 A 
ATOM     15  C   UNL     1      -5.604  -0.390   2.875  0.00  0.00    +0.047 A 
ATOM     16  C   UNL     1      -5.257  -0.559   4.209  0.00  0.00    +0.026 A 
ATOM     17  C   UNL     1      -6.236  -0.542   5.183  0.00  0.00    +0.005 A 
ENDBRANCH   1  15
BRANCH   3  18
ATOM     18  C   UNL     1      -2.659   1.125  -0.731  0.00  0.00    +0.162 C 
ATOM     19  O   UNL     1      -1.651   1.742  -0.453  0.00  0.00    -0.292 OA
ATOM     20  C   UNL     1      -3.254   1.236  -2.111  0.00  0.00    +0.091 C 
ENDBRANCH   3  18
BRANCH   8  21
ATOM     21  O   UNL     1      -1.115  -4.207   0.009  0.00  0.00    -0.489 OA
BRANCH  21  22
ATOM     22  C   UNL     1      -1.120  -5.519   0.577  0.00  0.00    +0.258 C 
BRANCH  22  23
ATOM     23  C   UNL     1      -0.062  -6.379  -0.115  0.00  0.00    +0.135 C 
BRANCH  23  24
ATOM     24  O   UNL     1      -0.418  -6.560  -1.487  0.00  0.00    -0.390 OA
ATOM     25  H   UNL     1      -1.271  -6.997  -1.617  0.00  0.00    +0.210 HD
ENDBRANCH  23  24
BRANCH  23  26
ATOM     26  C   UNL     1       0.019  -7.742   0.575  0.00  0.00    -0.044 C 
BRANCH  26  28
ATOM     27  C   UNL     1       0.841  -9.990   0.211  0.00  0.00    -0.096 C 
ATOM     28  N   UNL     1       1.039  -8.562  -0.113  0.00  0.00    +0.382 N 
ATOM     29  H   UNL     1       0.941  -8.433  -1.127  0.00  0.00    -0.082 HD
BRANCH  28  30
ATOM     30  C   UNL     1       2.393  -8.133   0.297  0.00  0.00    -0.043 C 
BRANCH  30  31
ATOM     31  C   UNL     1       3.407  -8.826  -0.576  0.00  0.00    -0.064 A 
ATOM     32  C   UNL     1       3.941 -10.040  -0.185  0.00  0.00    +0.002 A 
ATOM     33  C   UNL     1       4.867 -10.678  -0.988  0.00  0.00    +0.000 A 
ATOM     34  C   UNL     1       5.268 -10.098  -2.177  0.00  0.00    +0.000 A 
ATOM     35  C   UNL     1       4.738  -8.882  -2.565  0.00  0.00    +0.000 A 
ATOM     36  C   UNL     1       3.807  -8.246  -1.765  0.00  0.00    +0.002 A 
ENDBRANCH  30  31
ENDBRANCH  28  30
ENDBRANCH  26  28
ENDBRANCH  23  26
ENDBRANCH  22  23
ENDBRANCH  21  22
ENDBRANCH   8  21
TORSDOF 10
