REMARK  Name = ZINC03259459
REMARK  9 active torsions:
REMARK  status: ('A' for Active; 'I' for Inactive)
REMARK    1  A    between atoms: C_1  and  C_2
REMARK    2  A    between atoms: C_2  and  N_60
REMARK    3  A    between atoms: C_3  and  C_4
REMARK    4  A    between atoms: C_3  and  N_60
REMARK    5  A    between atoms: C_5  and  C_6
REMARK    6  A    between atoms: C_5  and  N_60
REMARK    7  A    between atoms: C_6  and  C_7
REMARK    8  A    between atoms: C_7  and  N_8
REMARK    9  A    between atoms: C_20  and  C_23
REMARK                            x       y       z     vdW  Elec       q    Type
REMARK                         _______ _______ _______ _____ _____    ______ ____
ROOT
ATOM      1  N   UNL     1       1.918   6.620  -5.529  0.00  0.00    -0.327 N 
ATOM      2  C   UNL     1       2.832   6.200  -4.574  0.00  0.00    +0.148 A 
ATOM      3  C   UNL     1       4.131   6.875  -4.457  0.00  0.00    +0.027 A 
ATOM      4  C   UNL     1       4.483   7.940  -5.285  0.00  0.00    +0.012 A 
ATOM      5  C   UNL     1       5.714   8.540  -5.136  0.00  0.00    +0.001 A 
ATOM      6  C   UNL     1       6.607   8.097  -4.169  0.00  0.00    +0.001 A 
ATOM      7  C   UNL     1       6.280   7.046  -3.340  0.00  0.00    +0.012 A 
ATOM      8  C   UNL     1       5.039   6.425  -3.474  0.00  0.00    +0.030 A 
ATOM      9  C   UNL     1       4.639   5.301  -2.617  0.00  0.00    +0.167 A 
ATOM     10  N   UNL     1       5.467   4.856  -1.687  0.00  0.00    -0.220 NA
ATOM     11  C   UNL     1       5.132   3.846  -0.902  0.00  0.00    +0.116 A 
ATOM     12  C   UNL     1       3.886   3.199  -1.014  0.00  0.00    +0.082 A 
ATOM     13  C   UNL     1       3.675   2.104  -0.072  0.00  0.00    +0.004 A 
ATOM     14  C   UNL     1       4.656   1.807   0.812  0.00  0.00    +0.056 A 
ATOM     15  S   UNL     1       5.938   2.982   0.422  0.00  0.00    -0.076 S 
ATOM     16  C   UNL     1       3.013   3.699  -2.024  0.00  0.00    +0.284 A 
ATOM     17  O   UNL     1       1.914   3.195  -2.188  0.00  0.00    -0.265 OA
ATOM     18  N   UNL     1       3.408   4.732  -2.797  0.00  0.00    -0.175 N 
ATOM     19  N   UNL     1       2.534   5.208  -3.782  0.00  0.00    -0.146 NA
ATOM     20  H   UNL     1       2.138   7.359  -6.119  0.00  0.00    +0.148 HD
ENDROOT
BRANCH  13  21
ATOM     21  C   UNL     1       2.407   1.337  -0.080  0.00  0.00    -0.017 A 
ATOM     22  C   UNL     1       1.184   2.005  -0.058  0.00  0.00    +0.008 A 
ATOM     23  C   UNL     1       0.007   1.285  -0.066  0.00  0.00    +0.001 A 
ATOM     24  C   UNL     1       0.039  -0.098  -0.094  0.00  0.00    +0.000 A 
ATOM     25  C   UNL     1       1.250  -0.766  -0.115  0.00  0.00    +0.001 A 
ATOM     26  C   UNL     1       2.433  -0.057  -0.107  0.00  0.00    +0.008 A 
ENDBRANCH  13  21
BRANCH   1  27
ATOM     27  C   UNL     1       0.622   5.949  -5.648  0.00  0.00    +0.101 C 
BRANCH  27  28
ATOM     28  C   UNL     1      -0.190   6.601  -6.769  0.00  0.00    +0.000 C 
BRANCH  28  29
ATOM     29  C   UNL     1      -1.544   5.900  -6.894  0.00  0.00    -0.077 C 
BRANCH  29  30
ATOM     30  N   UNL     1      -2.367   6.630  -7.880  0.00  0.00    +0.379 N 
ATOM     31  H   UNL     1      -2.252   7.639  -7.728  0.00  0.00    -0.082 HD
BRANCH  30  33
ATOM     32  C   UNL     1      -2.636   7.229 -10.237  0.00  0.00    -0.017 C 
ATOM     33  C   UNL     1      -1.926   6.298  -9.251  0.00  0.00    -0.082 C 
ENDBRANCH  30  33
BRANCH  30  34
ATOM     34  C   UNL     1      -3.792   6.278  -7.708  0.00  0.00    -0.082 C 
ATOM     35  C   UNL     1      -4.340   7.030  -6.494  0.00  0.00    -0.017 C 
ENDBRANCH  30  34
ENDBRANCH  29  30
ENDBRANCH  28  29
ENDBRANCH  27  28
ENDBRANCH   1  27
TORSDOF 7
