REMARK  Name = ZINC28048967
REMARK  7 active torsions:
REMARK  status: ('A' for Active; 'I' for Inactive)
REMARK    1  A    between atoms: C_1  and  N_2
REMARK    2  A    between atoms: C_6  and  S_13
REMARK    3  A    between atoms: N_9  and  C_12
REMARK    4  A    between atoms: S_13  and  N_16
REMARK    5  A    between atoms: N_16  and  C_17
REMARK    6  A    between atoms: C_26  and  O_27
REMARK    7  A    between atoms: N_28  and  C_29
REMARK                            x       y       z     vdW  Elec       q    Type
REMARK                         _______ _______ _______ _____ _____    ______ ____
ROOT
ATOM      1  C   UNL     1       2.214   4.502   2.300  0.00  0.00    +0.152 A 
ATOM      2  C   UNL     1       2.147   4.547   3.681  0.00  0.00    +0.076 A 
ATOM      3  C   UNL     1       3.316   4.081   4.442  0.00  0.00    +0.042 A 
ATOM      4  C   UNL     1       3.317   4.094   5.839  0.00  0.00    +0.013 A 
ATOM      5  C   UNL     1       4.429   3.657   6.523  0.00  0.00    +0.001 A 
ATOM      6  C   UNL     1       5.544   3.206   5.832  0.00  0.00    +0.004 A 
ATOM      7  C   UNL     1       5.556   3.188   4.453  0.00  0.00    +0.047 A 
ATOM      8  C   UNL     1       4.445   3.624   3.743  0.00  0.00    +0.141 A 
ATOM      9  O   UNL     1       4.444   3.613   2.393  0.00  0.00    -0.424 OA
ATOM     10  C   UNL     1       3.385   4.029   1.680  0.00  0.00    +0.310 A 
ATOM     11  N   UNL     1       1.013   5.011   4.325  0.00  0.00    -0.380 N 
ATOM     12  H   UNL     1       0.271   4.298   4.714  0.00  0.00    +0.160 HD
ENDROOT
BRANCH  11  13
ATOM     13  C   UNL     1       1.002   6.479   4.380  0.00  0.00    +0.079 C 
ATOM     14  C   UNL     1       1.867   6.952   5.550  0.00  0.00    +0.024 C 
ATOM     15  C   UNL     1       1.855   8.481   5.606  0.00  0.00    +0.002 C 
ATOM     16  C   UNL     1       0.419   8.973   5.800  0.00  0.00    +0.000 C 
ATOM     17  C   UNL     1      -0.445   8.500   4.630  0.00  0.00    +0.002 C 
ATOM     18  C   UNL     1      -0.433   6.971   4.574  0.00  0.00    +0.024 C 
ENDBRANCH  11  13
BRANCH   1  19
ATOM     19  N   UNL     1       1.123   4.931   1.522  0.00  0.00    -0.208 N 
ATOM     20  H   UNL     1       0.758   5.964   1.611  0.00  0.00    +0.174 HD
BRANCH  19  21
ATOM     21  S   UNL     1       0.390   3.879   0.474  0.00  0.00    +0.073 S 
ATOM     22  O   UNL     1       1.419   3.328  -0.335  0.00  0.00    -0.150 OA
ATOM     23  O   UNL     1      -0.726   4.567  -0.076  0.00  0.00    -0.150 OA
BRANCH  21  29
ATOM     24  C   UNL     1      -1.643  -1.736   4.169  0.00  0.00    +0.154 C 
ATOM     25  N   UNL     1      -2.032  -0.391   3.739  0.00  0.00    -0.295 N 
ATOM     26  C   UNL     1      -1.271   0.462   2.943  0.00  0.00    +0.070 A 
ATOM     27  C   UNL     1      -0.024   0.348   2.349  0.00  0.00    +0.030 A 
ATOM     28  C   UNL     1       0.477   1.393   1.597  0.00  0.00    +0.031 A 
ATOM     29  C   UNL     1      -0.260   2.554   1.435  0.00  0.00    +0.111 A 
ATOM     30  C   UNL     1      -1.504   2.676   2.024  0.00  0.00    +0.056 A 
ATOM     31  C   UNL     1      -2.015   1.632   2.780  0.00  0.00    +0.071 A 
ATOM     32  N   UNL     1      -3.205   1.454   3.482  0.00  0.00    -0.295 N 
ATOM     33  C   UNL     1      -3.186   0.232   4.046  0.00  0.00    +0.330 A 
ATOM     34  O   UNL     1      -4.076  -0.239   4.729  0.00  0.00    -0.246 OA
ATOM     35  C   UNL     1      -4.293   2.430   3.587  0.00  0.00    +0.154 C 
ENDBRANCH  21  29
ENDBRANCH  19  21
ENDBRANCH   1  19
BRANCH  10  36
ATOM     36  O   UNL     1       3.439   3.996   0.463  0.00  0.00    -0.479 OA
ATOM     37  H   UNL     1       4.348   3.629  -0.038  0.00  0.00    +0.295 HD
ENDBRANCH  10  36
TORSDOF 5
