REMARK  Name = ZINC23858672
REMARK  15 active torsions:
REMARK  status: ('A' for Active; 'I' for Inactive)
REMARK    1  A    between atoms: C_1  and  C_2
REMARK    2  A    between atoms: C_2  and  O_3
REMARK    3  A    between atoms: O_3  and  C_4
REMARK    4  A    between atoms: C_6  and  C_16
REMARK    5  A    between atoms: C_8  and  O_13
REMARK    6  A    between atoms: C_9  and  O_10
REMARK    7  A    between atoms: O_10  and  C_11
REMARK    8  A    between atoms: C_11  and  C_12
REMARK    9  A    between atoms: O_13  and  C_14
REMARK   10  A    between atoms: C_14  and  C_15
REMARK   11  A    between atoms: N_18  and  C_19
REMARK   12  A    between atoms: C_19  and  C_20
REMARK   13  A    between atoms: C_20  and  C_22
REMARK   14  A    between atoms: C_20  and  N_33
REMARK   15  A    between atoms: N_31  and  C_32
REMARK                            x       y       z     vdW  Elec       q    Type
REMARK                         _______ _______ _______ _____ _____    ______ ____
ROOT
ATOM      1  C   UNL     1      -1.015   7.047   1.870  0.00  0.00    +0.244 C 
ATOM      2  O   UNL     1      -2.091   7.496   1.525  0.00  0.00    -0.270 OA
ATOM      3  N   UNL     1      -0.118   7.844   2.483  0.00  0.00    -0.313 N 
ATOM      4  H   UNL     1       0.855   7.437   2.796  0.00  0.00    +0.149 HD
ENDROOT
BRANCH   1   7
ATOM      5  C   UNL     1       0.843   3.783   1.778  0.00  0.00    +0.166 A 
ATOM      6  C   UNL     1       0.544   5.112   2.012  0.00  0.00    +0.062 A 
ATOM      7  C   UNL     1      -0.692   5.629   1.617  0.00  0.00    +0.044 A 
ATOM      8  C   UNL     1      -1.621   4.802   0.981  0.00  0.00    +0.062 A 
ATOM      9  C   UNL     1      -1.315   3.475   0.744  0.00  0.00    +0.166 A 
ATOM     10  C   UNL     1      -0.083   2.962   1.139  0.00  0.00    +0.204 A 
BRANCH   5  11
ATOM     11  O   UNL     1       2.044   3.277   2.168  0.00  0.00    -0.488 OA
BRANCH  11  13
ATOM     12  C   UNL     1       4.233   3.433   3.180  0.00  0.00    +0.048 C 
ATOM     13  C   UNL     1       2.946   4.176   2.818  0.00  0.00    +0.226 C 
ENDBRANCH  11  13
ENDBRANCH   5  11
BRANCH  10  14
ATOM     14  O   UNL     1       0.215   1.657   0.906  0.00  0.00    -0.485 OA
BRANCH  14  15
ATOM     15  C   UNL     1       0.851   1.348  -0.336  0.00  0.00    +0.226 C 
ATOM     16  C   UNL     1       1.106  -0.158  -0.418  0.00  0.00    +0.048 C 
ENDBRANCH  14  15
ENDBRANCH  10  14
BRANCH   9  17
ATOM     17  O   UNL     1      -2.220   2.669   0.125  0.00  0.00    -0.488 OA
BRANCH  17  18
ATOM     18  C   UNL     1      -3.464   3.261  -0.253  0.00  0.00    +0.226 C 
ATOM     19  C   UNL     1      -4.344   2.209  -0.930  0.00  0.00    +0.048 C 
ENDBRANCH  17  18
ENDBRANCH   9  17
ENDBRANCH   1   7
BRANCH   3  20
ATOM     20  C   UNL     1      -0.439   9.251   2.735  0.00  0.00    +0.094 C 
BRANCH  20  21
ATOM     21  C   UNL     1       0.684   9.892   3.553  0.00  0.00    -0.020 C 
BRANCH  21  22
ATOM     22  C   UNL     1       0.737   9.256   4.918  0.00  0.00    -0.059 A 
ATOM     23  C   UNL     1      -0.151   9.652   5.902  0.00  0.00    +0.004 A 
ATOM     24  C   UNL     1      -0.103   9.067   7.148  0.00  0.00    +0.023 A 
ATOM     25  C   UNL     1       0.846   8.083   7.431  0.00  0.00    +0.033 A 
ATOM     26  C   UNL     1       1.733   7.692   6.444  0.00  0.00    -0.026 A 
ATOM     27  C   UNL     1       1.675   8.281   5.191  0.00  0.00    +0.007 A 
ATOM     28  C   UNL     1       2.775   6.628   6.682  0.00  0.00    +0.038 C 
ATOM     29  C   UNL     1       2.931   6.386   8.185  0.00  0.00    +0.024 C 
ATOM     30  C   UNL     1       1.528   6.244   8.789  0.00  0.00    +0.105 C 
ATOM     31  N   UNL     1       0.853   7.541   8.716  0.00  0.00    -0.333 N 
ATOM     32  C   UNL     1      -0.509   7.457   9.259  0.00  0.00    +0.129 C 
ENDBRANCH  21  22
BRANCH  21  33
ATOM     33  N   UNL     1       0.427  11.332   3.692  0.00  0.00    +0.385 N 
ATOM     34  C   UNL     1       1.500  11.989   4.481  0.00  0.00    -0.078 C 
ATOM     35  C   UNL     1       1.367  13.482   4.086  0.00  0.00    -0.020 C 
ATOM     36  C   UNL     1       1.012  13.410   2.583  0.00  0.00    -0.020 C 
ATOM     37  C   UNL     1       0.428  12.001   2.374  0.00  0.00    -0.078 C 
ATOM     38  H   UNL     1      -0.553  11.414   4.186  0.00  0.00    -0.081 HD
ENDBRANCH  21  33
ENDBRANCH  20  21
ENDBRANCH   3  20
TORSDOF 11
