REMARK  Name = ZINC23274079
REMARK  6 active torsions:
REMARK  status: ('A' for Active; 'I' for Inactive)
REMARK    1  A    between atoms: C_1  and  C_2
REMARK    2  A    between atoms: C_11  and  N_32
REMARK    3  A    between atoms: C_13  and  S_15
REMARK    4  A    between atoms: S_15  and  C_16
REMARK    5  A    between atoms: C_16  and  C_17
REMARK    6  A    between atoms: C_25  and  C_27
REMARK                            x       y       z     vdW  Elec       q    Type
REMARK                         _______ _______ _______ _____ _____    ______ ____
ROOT
ATOM      1  C   UNL     1      -8.944   7.046   7.182  0.00  0.00    +0.008 C 
ATOM      2  C   UNL     1      -7.722   6.306   6.634  0.00  0.00    -0.009 C 
ATOM      3  C   UNL     1      -8.137   5.443   5.439  0.00  0.00    +0.008 C 
ATOM      4  C   UNL     1      -6.986   4.518   5.043  0.00  0.00    +0.037 C 
ATOM      5  C   UNL     1      -5.726   5.356   4.844  0.00  0.00    -0.025 A 
ATOM      6  C   UNL     1      -5.636   6.597   5.362  0.00  0.00    -0.004 A 
ATOM      7  S   UNL     1      -4.030   7.180   4.888  0.00  0.00    -0.073 S 
ATOM      8  C   UNL     1      -3.480   5.751   3.992  0.00  0.00    +0.115 A 
ATOM      9  C   UNL     1      -4.570   4.864   4.091  0.00  0.00    +0.051 A 
ATOM     10  C   UNL     1      -4.400   3.608   3.445  0.00  0.00    +0.129 A 
ATOM     11  N   UNL     1      -3.269   3.357   2.807  0.00  0.00    -0.207 NA
ATOM     12  C   UNL     1      -2.277   4.239   2.757  0.00  0.00    +0.191 A 
ATOM     13  N   UNL     1      -2.381   5.426   3.341  0.00  0.00    -0.214 NA
ATOM     14  C   UNL     1      -6.671   7.323   6.166  0.00  0.00    +0.046 C 
ENDROOT
BRANCH  10  15
ATOM     15  N   UNL     1      -5.407   2.661   3.479  0.00  0.00    -0.343 N 
ATOM     16  H   UNL     1      -5.269   1.692   2.978  0.00  0.00    +0.144 HD
ATOM     17  H   UNL     1      -6.348   2.877   4.008  0.00  0.00    +0.144 HD
ENDBRANCH  10  15
BRANCH  12  18
ATOM     18  S   UNL     1      -0.797   3.827   1.893  0.00  0.00    -0.077 S 
BRANCH  18  19
ATOM     19  C   UNL     1      -1.216   2.158   1.330  0.00  0.00    +0.173 C 
BRANCH  19  20
ATOM     20  C   UNL     1      -0.063   1.589   0.545  0.00  0.00    +0.226 C 
ATOM     21  O   UNL     1       0.941   2.249   0.377  0.00  0.00    -0.275 OA
ATOM     22  N   UNL     1      -0.149   0.349   0.024  0.00  0.00    -0.298 N 
ATOM     23  C   UNL     1      -1.357  -0.464   0.225  0.00  0.00    +0.127 C 
ATOM     24  C   UNL     1      -1.886  -0.895  -1.154  0.00  0.00    +0.127 C 
ATOM     25  N   UNL     1      -0.772  -1.461  -1.927  0.00  0.00    -0.294 N 
ATOM     26  C   UNL     1       0.438  -0.650  -2.123  0.00  0.00    +0.127 C 
ATOM     27  C   UNL     1       0.965  -0.217  -0.750  0.00  0.00    +0.127 C 
ATOM     28  C   UNL     1      -0.858  -2.701  -2.447  0.00  0.00    +0.253 C 
ATOM     29  O   UNL     1       0.083  -3.171  -3.059  0.00  0.00    -0.269 OA
BRANCH  28  30
ATOM     30  C   UNL     1      -2.085  -3.485  -2.275  0.00  0.00    +0.074 A 
ATOM     31  C   UNL     1      -2.260  -4.858  -2.337  0.00  0.00    +0.021 A 
ATOM     32  C   UNL     1      -3.531  -5.336  -2.133  0.00  0.00    +0.008 A 
ATOM     33  C   UNL     1      -4.540  -4.457  -1.895  0.00  0.00    +0.046 A 
ATOM     34  S   UNL     1      -3.743  -2.918  -1.940  0.00  0.00    -0.092 S 
ENDBRANCH  28  30
ENDBRANCH  19  20
ENDBRANCH  18  19
ENDBRANCH  12  18
TORSDOF 5
