REMARK  Name = ZINC37358979
REMARK  6 active torsions:
REMARK  status: ('A' for Active; 'I' for Inactive)
REMARK    1  A    between atoms: C_3  and  C_8
REMARK    2  A    between atoms: C_10  and  N_32
REMARK    3  A    between atoms: N_11  and  C_25
REMARK    4  A    between atoms: N_17  and  C_18
REMARK    5  A    between atoms: C_18  and  C_19
REMARK    6  A    between atoms: C_19  and  C_20
REMARK                            x       y       z     vdW  Elec       q    Type
REMARK                         _______ _______ _______ _____ _____    ______ ____
ROOT
ATOM      1  C   UNL     1       3.585   2.299   0.186  0.00  0.00    +0.089 A 
ATOM      2  C   UNL     1       4.732   1.788   0.833  0.00  0.00    +0.086 A 
ATOM      3  C   UNL     1       5.027   0.665   1.597  0.00  0.00    +0.131 A 
ATOM      4  N   UNL     1       6.329   0.737   1.938  0.00  0.00    -0.216 N 
ATOM      5  N   UNL     1       6.897   1.899   1.404  0.00  0.00    -0.144 NA
ATOM      6  C   UNL     1       5.982   2.564   0.733  0.00  0.00    +0.189 A 
ATOM      7  N   UNL     1       5.955   3.714   0.032  0.00  0.00    -0.193 NA
ATOM      8  C   UNL     1       4.839   4.117  -0.540  0.00  0.00    +0.218 A 
ATOM      9  N   UNL     1       3.695   3.443  -0.478  0.00  0.00    -0.214 NA
ATOM     10  N   UNL     1       4.861   5.305  -1.248  0.00  0.00    -0.313 N 
ATOM     11  H   UNL     1       4.054   5.627  -1.680  0.00  0.00    +0.149 HD
ENDROOT
BRANCH   1  14
ATOM     12  C   UNL     1       0.624   0.397   1.502  0.00  0.00    +0.002 A 
ATOM     13  C   UNL     1       1.827   1.072   1.455  0.00  0.00    +0.010 A 
ATOM     14  C   UNL     1       2.295   1.574   0.241  0.00  0.00    +0.003 A 
ATOM     15  C   UNL     1       1.544   1.392  -0.920  0.00  0.00    +0.030 A 
ATOM     16  C   UNL     1       0.342   0.715  -0.861  0.00  0.00    +0.042 A 
ATOM     17  C   UNL     1      -0.118   0.219   0.348  0.00  0.00    +0.020 A 
ATOM     18 CL   UNL     1      -0.596   0.487  -2.304  0.00  0.00    -0.084 Cl
ENDBRANCH   1  14
BRANCH   4  19
ATOM     19  C   UNL     1       7.011  -0.210   2.711  0.00  0.00    +0.070 A 
ATOM     20  C   UNL     1       6.354  -0.871   3.741  0.00  0.00    +0.028 A 
ATOM     21  C   UNL     1       7.028  -1.805   4.502  0.00  0.00    +0.005 A 
ATOM     22  C   UNL     1       8.357  -2.084   4.241  0.00  0.00    +0.038 A 
ATOM     23  C   UNL     1       9.016  -1.427   3.215  0.00  0.00    +0.125 A 
ATOM     24  C   UNL     1       8.344  -0.495   2.446  0.00  0.00    +0.066 A 
ATOM     25  F   UNL     1      10.314  -1.702   2.962  0.00  0.00    -0.205 F 
ENDBRANCH   4  19
BRANCH   3  26
ATOM     26  N   UNL     1       4.146  -0.341   1.944  0.00  0.00    -0.342 N 
ATOM     27  H   UNL     1       3.272  -0.388   1.524  0.00  0.00    +0.144 HD
ATOM     28  H   UNL     1       4.400  -1.001   2.608  0.00  0.00    +0.144 HD
ENDBRANCH   3  26
BRANCH  10  29
ATOM     29  C   UNL     1       6.102   6.077  -1.347  0.00  0.00    +0.109 C 
BRANCH  29  30
ATOM     30  C   UNL     1       5.854   7.337  -2.179  0.00  0.00    +0.061 C 
BRANCH  30  31
ATOM     31  C   UNL     1       7.130   8.131  -2.281  0.00  0.00    -0.009 A 
ATOM     32  C   UNL     1       8.109   8.058  -3.216  0.00  0.00    +0.011 A 
ATOM     33  C   UNL     1       9.203   8.896  -3.107  0.00  0.00    +0.008 A 
ATOM     34  C   UNL     1       9.266   9.765  -2.069  0.00  0.00    +0.045 A 
ATOM     35  S   UNL     1       7.743   9.418  -1.205  0.00  0.00    -0.102 S 
ENDBRANCH  30  31
ENDBRANCH  29  30
ENDBRANCH  10  29
TORSDOF 6
