REMARK  Name = ZINC28286594
REMARK  6 active torsions:
REMARK  status: ('A' for Active; 'I' for Inactive)
REMARK    1  A    between atoms: C_1  and  C_2
REMARK    2  A    between atoms: C_4  and  C_30
REMARK    3  A    between atoms: C_18  and  C_20
REMARK    4  A    between atoms: C_18  and  C_21
REMARK    5  A    between atoms: N_22  and  C_23
REMARK    6  A    between atoms: C_23  and  C_24
REMARK                            x       y       z     vdW  Elec       q    Type
REMARK                         _______ _______ _______ _____ _____    ______ ____
ROOT
ATOM      1  C   UNL     1      -0.665  -7.408  -1.147  0.00  0.00    +0.067 C 
ATOM      2  C   UNL     1       0.077  -6.125  -0.875  0.00  0.00    +0.061 A 
ATOM      3  C   UNL     1       1.466  -5.987  -0.774  0.00  0.00    +0.048 A 
ATOM      4  C   UNL     1       1.740  -4.686  -0.524  0.00  0.00    +0.045 A 
ATOM      5  N   UNL     1       0.556  -4.021  -0.468  0.00  0.00    -0.202 N 
ATOM      6  N   UNL     1      -0.469  -4.951  -0.686  0.00  0.00    -0.169 NA
ATOM      7  C   UNL     1       0.390  -2.656  -0.231  0.00  0.00    +0.254 A 
ATOM      8  N   UNL     1      -0.838  -2.164  -0.209  0.00  0.00    -0.195 NA
ATOM      9  C   UNL     1      -1.121  -0.882   0.008  0.00  0.00    +0.133 A 
ATOM     10  C   UNL     1      -0.003  -0.025   0.224  0.00  0.00    +0.051 A 
ATOM     11  C   UNL     1      -0.028   1.403   0.480  0.00  0.00    -0.020 A 
ATOM     12  C   UNL     1       1.169   2.013   0.655  0.00  0.00    +0.021 A 
ATOM     13  S   UNL     1       2.377   0.726   0.489  0.00  0.00    -0.071 S 
ATOM     14  C   UNL     1       1.282  -0.625   0.185  0.00  0.00    +0.116 A 
ATOM     15  N   UNL     1       1.477  -1.909  -0.036  0.00  0.00    -0.203 NA
ATOM     16  C   UNL     1       1.390   3.468   0.928  0.00  0.00    +0.203 C 
ATOM     17  O   UNL     1       0.161   4.161   0.662  0.00  0.00    -0.368 OA
ATOM     18  C   UNL     1      -0.981   3.549   1.268  0.00  0.00    +0.068 C 
ATOM     19  C   UNL     1      -1.309   2.230   0.567  0.00  0.00    +0.071 C 
ATOM     20  C   UNL     1      -0.684   3.274   2.744  0.00  0.00    +0.041 C 
ATOM     21  C   UNL     1      -2.180   4.492   1.159  0.00  0.00    +0.041 C 
ATOM     22  N   UNL     1      -2.421  -0.410   0.023  0.00  0.00    -0.328 N 
ATOM     23  C   UNL     1       3.109  -4.084  -0.341  0.00  0.00    +0.066 C 
ATOM     24  H   UNL     1      -2.613   0.669   0.113  0.00  0.00    +0.147 HD
ENDROOT
BRANCH  22  25
ATOM     25  C   UNL     1      -3.541  -1.348  -0.082  0.00  0.00    +0.106 C 
BRANCH  25  26
ATOM     26  C   UNL     1      -4.860  -0.573  -0.041  0.00  0.00    +0.006 C 
ATOM     27  C   UNL     1      -5.017   0.094   1.327  0.00  0.00    +0.005 C 
ATOM     28  C   UNL     1      -6.336   0.869   1.368  0.00  0.00    +0.000 C 
ATOM     29  C   UNL     1      -7.501  -0.095   1.133  0.00  0.00    +0.000 C 
ATOM     30  C   UNL     1      -7.344  -0.762  -0.234  0.00  0.00    +0.000 C 
ATOM     31  C   UNL     1      -6.025  -1.537  -0.275  0.00  0.00    +0.005 C 
ENDBRANCH  25  26
ENDBRANCH  22  25
TORSDOF 2
