REMARK  Name = ZINC13471556
REMARK  5 active torsions:
REMARK  status: ('A' for Active; 'I' for Inactive)
REMARK    1  A    between atoms: C_7  and  N_22
REMARK    2  A    between atoms: C_8  and  O_21
REMARK    3  A    between atoms: N_9  and  C_10
REMARK    4  A    between atoms: N_23  and  C_24
REMARK    5  A    between atoms: C_24  and  N_26
REMARK                            x       y       z     vdW  Elec       q    Type
REMARK                         _______ _______ _______ _____ _____    ______ ____
ROOT
ATOM      1  C   UNL     1      -0.017   1.375   0.010  0.00  0.00    +0.001 A 
ATOM      2  C   UNL     1       1.172   2.089   0.002  0.00  0.00    +0.002 A 
ATOM      3  C   UNL     1       2.385   1.433  -0.013  0.00  0.00    +0.027 A 
ATOM      4  C   UNL     1       2.424   0.044  -0.021  0.00  0.00    +0.058 A 
ATOM      5  C   UNL     1       1.220  -0.677  -0.013  0.00  0.00    +0.031 A 
ATOM      6  C   UNL     1       0.002  -0.004   0.002  0.00  0.00    +0.012 A 
ATOM      7  C   UNL     1       1.597  -2.105  -0.024  0.00  0.00    +0.150 A 
ATOM      8  C   UNL     1       2.993  -2.137  -0.038  0.00  0.00    +0.225 A 
ATOM      9  N   UNL     1       3.467  -0.867  -0.036  0.00  0.00    -0.270 N 
ENDROOT
BRANCH   9  10
ATOM     10  C   UNL     1       4.888  -0.507  -0.048  0.00  0.00    +0.315 C 
ATOM     11  C   UNL     1       5.468  -0.744  -1.419  0.00  0.00    +0.028 A 
ATOM     12  C   UNL     1       5.189  -0.236  -2.666  0.00  0.00    +0.010 A 
ATOM     13  C   UNL     1       5.917  -0.662  -3.765  0.00  0.00    +0.000 A 
ATOM     14  C   UNL     1       6.925  -1.599  -3.612  0.00  0.00    +0.001 A 
ATOM     15  C   UNL     1       7.213  -2.115  -2.365  0.00  0.00    +0.015 A 
ATOM     16  C   UNL     1       6.483  -1.690  -1.255  0.00  0.00    +0.068 A 
ATOM     17  C   UNL     1       6.541  -2.038   0.177  0.00  0.00    +0.342 C 
ATOM     18  O   UNL     1       7.315  -2.835   0.669  0.00  0.00    -0.245 OA
ATOM     19  O   UNL     1       5.612  -1.345   0.857  0.00  0.00    -0.433 OA
ENDBRANCH   9  10
BRANCH   7  20
ATOM     20  N   UNL     1       0.768  -3.156  -0.021  0.00  0.00    -0.175 NA
ATOM     21  N   UNL     1       1.246  -4.354  -0.032  0.00  0.00    -0.218 N 
ATOM     22  H   UNL     1       2.206  -4.494  -0.043  0.00  0.00    +0.176 HD
BRANCH  21  23
ATOM     23  C   UNL     1       0.412  -5.412  -0.029  0.00  0.00    +0.147 C 
ATOM     24  S   UNL     1       1.046  -7.003  -0.044  0.00  0.00    -0.017 S 
BRANCH  23  25
ATOM     25  N   UNL     1      -0.922  -5.219  -0.015  0.00  0.00    -0.339 N 
ATOM     26  H   UNL     1      -1.281  -4.318  -0.007  0.00  0.00    +0.144 HD
ATOM     27  H   UNL     1      -1.523  -5.981  -0.013  0.00  0.00    +0.144 HD
ENDBRANCH  23  25
ENDBRANCH  21  23
ENDBRANCH   7  20
BRANCH   8  28
ATOM     28  O   UNL     1       3.750  -3.255  -0.051  0.00  0.00    -0.492 OA
ATOM     29  H   UNL     1       3.962  -3.576  -0.938  0.00  0.00    +0.294 HD
ENDBRANCH   8  28
TORSDOF 5
