REMARK  Name = ZINC38555767
REMARK  6 active torsions:
REMARK  status: ('A' for Active; 'I' for Inactive)
REMARK    1  A    between atoms: C_1  and  C_2
REMARK    2  A    between atoms: C_8  and  C_18
REMARK    3  A    between atoms: C_10  and  C_16
REMARK    4  A    between atoms: C_11  and  N_15
REMARK    5  A    between atoms: C_22  and  O_24
REMARK    6  A    between atoms: O_24  and  C_25
REMARK                            x       y       z     vdW  Elec       q    Type
REMARK                         _______ _______ _______ _____ _____    ______ ____
ROOT
ATOM      1  C   UNL     1      -0.018   1.503   0.010  0.00  0.00    +0.063 C 
ATOM      2  C   UNL     1       0.002  -0.004   0.002  0.00  0.00    +0.034 C 
ATOM      3  N   UNL     1       0.005  -0.613  -1.159  0.00  0.00    -0.185 NA
ATOM      4  C   UNL     1       0.012  -1.942  -1.288  0.00  0.00    +0.248 C 
ATOM      5  O   UNL     1       0.033  -2.462  -2.386  0.00  0.00    -0.273 OA
ATOM      6  C   UNL     1      -0.006  -2.784  -0.028  0.00  0.00    +0.155 C 
ATOM      7  C   UNL     1       1.269  -3.632  -0.033  0.00  0.00    +0.084 C 
ATOM      8  C   UNL     1       1.459  -4.272   1.315  0.00  0.00    +0.095 C 
ATOM      9  C   UNL     1       0.886  -3.797   2.442  0.00  0.00    +0.198 C 
ATOM     10  O   UNL     1       0.078  -2.711   2.430  0.00  0.00    -0.445 OA
ATOM     11  C   UNL     1       0.000  -2.014   1.283  0.00  0.00    +0.122 C 
ATOM     12  C   UNL     1       0.023  -0.667   1.232  0.00  0.00    +0.063 C 
ENDROOT
BRANCH   7  13
ATOM     13  C   UNL     1       2.454  -2.754  -0.341  0.00  0.00    -0.031 A 
ATOM     14  C   UNL     1       3.229  -3.009  -1.457  0.00  0.00    +0.054 A 
ATOM     15  C   UNL     1       4.320  -2.204  -1.745  0.00  0.00    +0.170 A 
ATOM     16  C   UNL     1       4.635  -1.138  -0.908  0.00  0.00    +0.208 A 
ATOM     17  C   UNL     1       3.853  -0.886   0.213  0.00  0.00    +0.166 A 
ATOM     18  C   UNL     1       2.760  -1.693   0.490  0.00  0.00    +0.054 A 
ATOM     19  O   UNL     1       5.740  -0.506  -1.402  0.00  0.00    -0.449 OA
ATOM     20  C   UNL     1       6.339  -1.440  -2.320  0.00  0.00    +0.467 C 
ATOM     21  O   UNL     1       5.228  -2.241  -2.764  0.00  0.00    -0.452 OA
BRANCH  17  22
ATOM     22  O   UNL     1       4.156   0.155   1.034  0.00  0.00    -0.491 OA
ATOM     23  C   UNL     1       3.310   0.355   2.167  0.00  0.00    +0.277 C 
ENDBRANCH  17  22
ENDBRANCH   7  13
BRANCH   9  24
ATOM     24  N   UNL     1       1.129  -4.434   3.633  0.00  0.00    -0.328 N 
ATOM     25  H   UNL     1       1.705  -5.214   3.658  0.00  0.00    +0.145 HD
ATOM     26  H   UNL     1       0.724  -4.105   4.451  0.00  0.00    +0.145 HD
ENDBRANCH   9  24
BRANCH   8  27
ATOM     27  C   UNL     1       2.285  -5.439   1.407  0.00  0.00    +0.100 C 
ATOM     28  N   UNL     1       2.941  -6.364   1.480  0.00  0.00    -0.191 NA
ENDBRANCH   8  27
TORSDOF 4
