REMARK  Name = ZINC39686682
REMARK  10 active torsions:
REMARK  status: ('A' for Active; 'I' for Inactive)
REMARK    1  A    between atoms: C_1  and  C_2
REMARK    2  A    between atoms: C_4  and  C_11
REMARK    3  A    between atoms: C_5  and  C_7
REMARK    4  A    between atoms: C_15  and  C_24
REMARK    5  A    between atoms: N_26  and  C_27
REMARK    6  A    between atoms: C_27  and  C_29
REMARK    7  A    between atoms: C_27  and  C_30
REMARK    8  A    between atoms: C_30  and  C_31
REMARK    9  A    between atoms: C_36  and  O_37
REMARK   10  A    between atoms: O_37  and  C_38
REMARK                            x       y       z     vdW  Elec       q    Type
REMARK                         _______ _______ _______ _____ _____    ______ ____
ROOT
ATOM      1  C   UNL     1      -1.359  -3.402  -0.017  0.00  0.00    +0.250 C 
ATOM      2  O   UNL     1      -0.800  -4.477  -0.122  0.00  0.00    -0.270 OA
ATOM      3  N   UNL     1      -2.701  -3.349   0.095  0.00  0.00    -0.296 N 
ATOM      4  C   UNL     1      -3.564  -2.144   0.112  0.00  0.00    +0.121 C 
ATOM      5  C   UNL     1      -4.807  -2.543  -0.715  0.00  0.00    +0.100 C 
ATOM      6  C   UNL     1      -4.857  -4.078  -0.632  0.00  0.00    -0.004 C 
ATOM      7  C   UNL     1      -3.648  -4.483   0.224  0.00  0.00    +0.115 C 
ATOM      8  C   UNL     1      -6.153  -4.529   0.036  0.00  0.00    -0.010 C 
ATOM      9  C   UNL     1      -6.206  -6.059   0.054  0.00  0.00    -0.082 C 
ATOM     10  N   UNL     1      -6.138  -6.570  -1.320  0.00  0.00    +0.379 N 
ATOM     11  C   UNL     1      -4.849  -6.210  -1.924  0.00  0.00    -0.082 C 
ATOM     12  C   UNL     1      -4.738  -4.686  -2.026  0.00  0.00    -0.010 C 
ATOM     13  H   UNL     1      -6.234  -7.574  -1.310  0.00  0.00    -0.086 HD
ATOM     14  H   UNL     1      -6.886  -6.168  -1.864  0.00  0.00    -0.086 HD
ENDROOT
BRANCH   1  18
ATOM     15  C   UNL     1       0.155   1.405   0.777  0.00  0.00    +0.086 C 
ATOM     16  C   UNL     1       0.081  -0.038   0.348  0.00  0.00    +0.103 A 
ATOM     17  C   UNL     1      -0.942  -0.871   0.594  0.00  0.00    +0.058 A 
ATOM     18  C   UNL     1      -0.569  -2.158  -0.012  0.00  0.00    +0.087 A 
ATOM     19  C   UNL     1       0.660  -1.959  -0.569  0.00  0.00    +0.220 A 
ATOM     20  O   UNL     1       1.024  -0.693  -0.348  0.00  0.00    -0.455 OA
BRANCH  19  21
ATOM     21  C   UNL     1       1.468  -2.991  -1.313  0.00  0.00    +0.451 C 
ATOM     22  F   UNL     1       1.146  -2.943  -2.674  0.00  0.00    -0.163 F 
ATOM     23  F   UNL     1       2.831  -2.725  -1.147  0.00  0.00    -0.163 F 
ATOM     24  F   UNL     1       1.176  -4.263  -0.810  0.00  0.00    -0.163 F 
ENDBRANCH  19  21
ENDBRANCH   1  18
BRANCH   5  25
ATOM     25  C   UNL     1      -6.052  -1.942  -0.114  0.00  0.00    +0.218 C 
ATOM     26  O   UNL     1      -6.083  -1.666   1.067  0.00  0.00    -0.275 OA
ATOM     27  N   UNL     1      -7.130  -1.711  -0.889  0.00  0.00    -0.312 N 
ATOM     28  H   UNL     1      -7.105  -1.932  -1.833  0.00  0.00    +0.149 HD
BRANCH  27  29
ATOM     29  C   UNL     1      -8.340  -1.126  -0.305  0.00  0.00    +0.074 C 
ATOM     30  C   UNL     1      -8.211   0.398  -0.284  0.00  0.00    +0.028 C 
BRANCH  29  31
ATOM     31  C   UNL     1      -9.555  -1.524  -1.145  0.00  0.00    +0.060 C 
BRANCH  31  32
ATOM     32  C   UNL     1      -9.754  -3.016  -1.065  0.00  0.00    -0.004 A 
ATOM     33  C   UNL     1      -9.220  -3.838  -2.039  0.00  0.00    +0.007 A 
ATOM     34  C   UNL     1      -9.403  -5.206  -1.966  0.00  0.00    +0.000 A 
ATOM     35  C   UNL     1     -10.121  -5.756  -0.920  0.00  0.00    +0.004 A 
ATOM     36  C   UNL     1     -10.657  -4.938   0.056  0.00  0.00    +0.046 A 
ATOM     37  C   UNL     1     -10.470  -3.565  -0.012  0.00  0.00    +0.123 A 
BRANCH  37  38
ATOM     38  O   UNL     1     -10.992  -2.759   0.950  0.00  0.00    -0.495 OA
ATOM     39  C   UNL     1     -11.717  -3.394   2.005  0.00  0.00    +0.277 C 
ENDBRANCH  37  38
ENDBRANCH  31  32
ENDBRANCH  29  31
ENDBRANCH  27  29
ENDBRANCH   5  25
TORSDOF 7
