REMARK  Name = ZINC23601389
REMARK  12 active torsions:
REMARK  status: ('A' for Active; 'I' for Inactive)
REMARK    1  A    between atoms: C_1  and  C_2
REMARK    2  A    between atoms: C_2  and  C_3
REMARK    3  A    between atoms: C_2  and  C_4
REMARK    4  A    between atoms: C_2  and  C_5
REMARK    5  A    between atoms: C_8  and  O_11
REMARK    6  A    between atoms: O_11  and  C_12
REMARK    7  A    between atoms: C_12  and  C_13
REMARK    8  A    between atoms: C_16  and  S_19
REMARK    9  A    between atoms: N_17  and  N_18
REMARK   10  A    between atoms: S_19  and  C_20
REMARK   11  A    between atoms: C_20  and  C_21
REMARK   12  A    between atoms: N_23  and  C_24
REMARK                            x       y       z     vdW  Elec       q    Type
REMARK                         _______ _______ _______ _____ _____    ______ ____
ROOT
ATOM      1  C   UNL     1      -0.718   1.572   1.248  0.00  0.00    +0.189 A 
ATOM      2  N   UNL     1      -0.481   2.683   1.885  0.00  0.00    -0.128 NA
ATOM      3  N   UNL     1      -1.266   2.787   2.898  0.00  0.00    -0.121 NA
ATOM      4  C   UNL     1      -2.047   1.734   2.967  0.00  0.00    +0.209 A 
ATOM      5  N   UNL     1      -1.721   0.925   1.916  0.00  0.00    -0.225 N 
ENDROOT
BRANCH   5   6
ATOM      6  N   UNL     1      -2.281  -0.280   1.597  0.00  0.00    -0.295 N 
ATOM      7  H   UNL     1      -3.087  -0.693   2.221  0.00  0.00    +0.163 HD
ATOM      8  H   UNL     1      -1.925  -0.836   0.718  0.00  0.00    +0.163 HD
ENDBRANCH   5   6
BRANCH   1   9
ATOM      9  C   UNL     1      -0.013   1.086   0.008  0.00  0.00    +0.306 C 
BRANCH   9  10
ATOM     10  O   UNL     1      -0.704   1.559  -1.150  0.00  0.00    -0.484 OA
BRANCH  10  14
ATOM     11  C   UNL     1       0.844   0.492  -4.822  0.00  0.00    -0.042 A 
ATOM     12  C   UNL     1      -0.294   1.274  -4.753  0.00  0.00    +0.008 A 
ATOM     13  C   UNL     1      -0.815   1.633  -3.525  0.00  0.00    +0.046 A 
ATOM     14  C   UNL     1      -0.194   1.208  -2.359  0.00  0.00    +0.121 A 
ATOM     15  C   UNL     1       0.951   0.428  -2.431  0.00  0.00    +0.046 A 
ATOM     16  C   UNL     1       1.464   0.067  -3.662  0.00  0.00    +0.008 A 
BRANCH  11  18
ATOM     17  C   UNL     1       1.778   1.363  -6.947  0.00  0.00    +0.015 C 
ATOM     18  C   UNL     1       1.409   0.102  -6.163  0.00  0.00    -0.013 C 
ATOM     19  C   UNL     1       2.659  -0.757  -5.960  0.00  0.00    +0.015 C 
ATOM     20  C   UNL     1       0.364  -0.697  -6.945  0.00  0.00    +0.015 C 
ENDBRANCH  11  18
ENDBRANCH  10  14
ENDBRANCH   9  10
ENDBRANCH   1   9
BRANCH   4  21
ATOM     21  S   UNL     1      -3.282   1.423   4.185  0.00  0.00    -0.075 S 
BRANCH  21  22
ATOM     22  C   UNL     1      -3.107   2.913   5.197  0.00  0.00    +0.173 C 
BRANCH  22  23
ATOM     23  C   UNL     1      -4.094   2.865   6.335  0.00  0.00    +0.224 C 
ATOM     24  O   UNL     1      -4.841   1.917   6.450  0.00  0.00    -0.275 OA
ATOM     25  N   UNL     1      -4.146   3.876   7.225  0.00  0.00    -0.308 N 
ATOM     26  H   UNL     1      -3.467   4.736   7.120  0.00  0.00    +0.149 HD
BRANCH  25  27
ATOM     27  C   UNL     1      -5.105   3.830   8.331  0.00  0.00    +0.103 C 
ATOM     28  C   UNL     1      -4.585   4.686   9.484  0.00  0.00    +0.027 C 
ATOM     29  C   UNL     1      -5.692   4.801  10.539  0.00  0.00    +0.007 C 
ATOM     30  C   UNL     1      -6.810   5.673   9.970  0.00  0.00    +0.035 C 
ATOM     31  C   UNL     1      -7.224   5.183   8.608  0.00  0.00    -0.042 A 
ATOM     32  C   UNL     1      -6.439   4.339   7.853  0.00  0.00    -0.024 A 
ATOM     33  C   UNL     1      -6.877   3.930   6.601  0.00  0.00    +0.006 A 
ATOM     34  C   UNL     1      -8.093   4.357   6.108  0.00  0.00    +0.000 A 
ATOM     35  C   UNL     1      -8.883   5.200   6.867  0.00  0.00    +0.000 A 
ATOM     36  C   UNL     1      -8.448   5.610   8.111  0.00  0.00    +0.004 A 
ENDBRANCH  25  27
ENDBRANCH  22  23
ENDBRANCH  21  22
ENDBRANCH   4  21
TORSDOF 9
