REMARK  Name = ZINC08927174
REMARK  11 active torsions:
REMARK  status: ('A' for Active; 'I' for Inactive)
REMARK    1  A    between atoms: C_1  and  C_2
REMARK    2  A    between atoms: C_2  and  N_3
REMARK    3  A    between atoms: N_3  and  C_4
REMARK    4  A    between atoms: N_3  and  C_6
REMARK    5  A    between atoms: C_4  and  C_5
REMARK    6  A    between atoms: C_9  and  C_12
REMARK    7  A    between atoms: C_21  and  C_28
REMARK    8  A    between atoms: C_23  and  C_24
REMARK    9  A    between atoms: C_23  and  N_63
REMARK   10  A    between atoms: C_24  and  O_26
REMARK   11  A    between atoms: O_26  and  C_27
REMARK                            x       y       z     vdW  Elec       q    Type
REMARK                         _______ _______ _______ _____ _____    ______ ____
ROOT
ATOM      1  C   UNL     1      -4.465   3.815  -0.062  0.00  0.00    +0.049 C 
ATOM      2  N   UNL     1      -4.053   5.038   0.644  0.00  0.00    -0.353 N 
ATOM      3  C   UNL     1      -4.125   5.050   2.043  0.00  0.00    +0.028 A 
ATOM      4  C   UNL     1      -3.502   6.062   2.760  0.00  0.00    +0.024 A 
ATOM      5  C   UNL     1      -3.576   6.075   4.139  0.00  0.00    +0.017 A 
ATOM      6  C   UNL     1      -4.272   5.080   4.802  0.00  0.00    +0.018 A 
ATOM      7  C   UNL     1      -4.893   4.071   4.090  0.00  0.00    +0.019 A 
ATOM      8  C   UNL     1      -4.821   4.050   2.708  0.00  0.00    -0.035 A 
ATOM      9  C   UNL     1      -5.496   2.941   1.946  0.00  0.00    -0.001 C 
ATOM     10 BR   UNL     1      -4.376   5.101   6.691  0.00  0.00    -0.050 Br
ATOM     11  H   UNL     1      -3.739   5.814   0.155  0.00  0.00    +0.145 HD
ATOM     12  N   UNL     1      -5.734   3.359   0.550  0.00  0.00    +0.409 N 
ATOM     13  H   UNL     1      -6.406   4.136   0.544  0.00  0.00    -0.076 HD
ENDROOT
BRANCH   1  17
ATOM     14  C   UNL     1      -1.435   0.827   0.330  0.00  0.00    +0.030 A 
ATOM     15  C   UNL     1      -2.181   0.913  -0.839  0.00  0.00    +0.023 A 
ATOM     16  C   UNL     1      -3.163   1.876  -0.960  0.00  0.00    +0.005 A 
ATOM     17  C   UNL     1      -3.397   2.762   0.076  0.00  0.00    -0.044 A 
ATOM     18  C   UNL     1      -2.652   2.682   1.239  0.00  0.00    +0.005 A 
ATOM     19  C   UNL     1      -1.672   1.718   1.369  0.00  0.00    +0.023 A 
BRANCH  14  20
ATOM     20  N   UNL     1      -0.444  -0.149   0.458  0.00  0.00    -0.330 N 
BRANCH  20  22
ATOM     21  C   UNL     1      -1.073  -2.329  -0.458  0.00  0.00    +0.024 C 
ATOM     22  C   UNL     1      -0.195  -1.088  -0.639  0.00  0.00    +0.102 C 
ENDBRANCH  20  22
BRANCH  20  23
ATOM     23  C   UNL     1       0.350  -0.231   1.686  0.00  0.00    +0.102 C 
ATOM     24  C   UNL     1       1.591   0.654   1.551  0.00  0.00    +0.024 C 
ENDBRANCH  20  23
ENDBRANCH  14  20
ENDBRANCH   1  17
BRANCH   9  25
ATOM     25  C   UNL     1      -6.824   2.631   2.588  0.00  0.00    -0.057 A 
ATOM     26  C   UNL     1      -7.919   3.434   2.334  0.00  0.00    +0.002 A 
ATOM     27  C   UNL     1      -9.138   3.147   2.920  0.00  0.00    +0.000 A 
ATOM     28  C   UNL     1      -9.259   2.062   3.767  0.00  0.00    +0.000 A 
ATOM     29  C   UNL     1      -8.162   1.261   4.025  0.00  0.00    +0.000 A 
ATOM     30  C   UNL     1      -6.945   1.545   3.436  0.00  0.00    +0.002 A 
ENDBRANCH   9  25
BRANCH  12  31
ATOM     31  C   UNL     1      -6.295   2.234  -0.228  0.00  0.00    +0.048 C 
BRANCH  31  32
ATOM     32  C   UNL     1      -6.695   2.736  -1.592  0.00  0.00    +0.290 C 
ATOM     33  O   UNL     1      -6.629   3.916  -1.844  0.00  0.00    -0.253 OA
BRANCH  32  34
ATOM     34  O   UNL     1      -7.125   1.872  -2.525  0.00  0.00    -0.469 OA
ATOM     35  C   UNL     1      -7.577   2.435  -3.785  0.00  0.00    +0.280 C 
ENDBRANCH  32  34
ENDBRANCH  31  32
ENDBRANCH  12  31
TORSDOF 8
