REMARK  Name = ZINC36689012
REMARK  4 active torsions:
REMARK  status: ('A' for Active; 'I' for Inactive)
REMARK    1  A    between atoms: C_1  and  C_2
REMARK    2  A    between atoms: C_5  and  N_9
REMARK    3  A    between atoms: C_10  and  C_12
REMARK    4  A    between atoms: C_12  and  N_13
REMARK                            x       y       z     vdW  Elec       q    Type
REMARK                         _______ _______ _______ _____ _____    ______ ____
ROOT
ATOM      1  N   UNL     1      -0.234  -6.824  -2.565  0.00  0.00    -0.215 N 
ATOM      2  C   UNL     1      -1.382  -6.976  -3.261  0.00  0.00    +0.247 C 
ATOM      3  O   UNL     1      -2.456  -6.468  -3.054  0.00  0.00    -0.273 OA
ATOM      4  C   UNL     1      -1.028  -7.976  -4.349  0.00  0.00    +0.113 C 
ATOM      5  C   UNL     1      -1.128  -9.383  -3.763  0.00  0.00    +0.035 C 
ATOM      6  C   UNL     1      -1.183 -10.448  -4.858  0.00  0.00    +0.003 C 
ATOM      7  C   UNL     1       0.212 -10.826  -5.388  0.00  0.00    +0.000 C 
ATOM      8  C   UNL     1       0.694  -9.708  -6.329  0.00  0.00    +0.000 C 
ATOM      9  C   UNL     1      -0.460  -9.255  -7.225  0.00  0.00    +0.000 C 
ATOM     10  C   UNL     1      -0.933  -7.853  -6.856  0.00  0.00    +0.003 C 
ATOM     11  C   UNL     1      -1.830  -7.818  -5.620  0.00  0.00    +0.035 C 
ATOM     12  N   UNL     1       0.380  -7.576  -4.554  0.00  0.00    -0.285 N 
ATOM     13  C   UNL     1       0.807  -7.145  -3.343  0.00  0.00    +0.310 C 
ATOM     14  O   UNL     1       1.969  -7.062  -3.017  0.00  0.00    -0.252 OA
ATOM     15  H   UNL     1       0.886  -7.501  -5.363  0.00  0.00    +0.151 HD
ENDROOT
BRANCH   1  16
ATOM     16  C   UNL     1      -0.136  -6.343  -1.190  0.00  0.00    +0.214 C 
BRANCH  16  18
ATOM     17  N   UNL     1       0.057  -4.171  -0.023  0.00  0.00    -0.283 N 
ATOM     18  C   UNL     1      -0.042  -4.839  -1.189  0.00  0.00    +0.235 C 
ATOM     19  O   UNL     1      -0.055  -4.230  -2.238  0.00  0.00    -0.274 OA
ATOM     20  H   UNL     1       0.149  -4.660   0.810  0.00  0.00    +0.155 HD
BRANCH  17  25
ATOM     21  C   UNL     1      -0.063   1.502   0.016  0.00  0.00    +0.044 C 
ATOM     22  C   UNL     1      -0.031  -0.005   0.006  0.00  0.00    -0.049 A 
ATOM     23  C   UNL     1      -0.622  -0.701  -1.033  0.00  0.00    +0.005 A 
ATOM     24  C   UNL     1      -0.594  -2.081  -1.045  0.00  0.00    +0.024 A 
ATOM     25  C   UNL     1       0.028  -2.771  -0.013  0.00  0.00    +0.048 A 
ATOM     26  C   UNL     1       0.621  -2.070   1.029  0.00  0.00    +0.039 A 
ATOM     27  C   UNL     1       0.595  -0.688   1.032  0.00  0.00    +0.020 A 
ATOM     28 BR   UNL     1       1.470  -3.004   2.437  0.00  0.00    -0.048 Br
ENDBRANCH  17  25
ENDBRANCH  16  18
ENDBRANCH   1  16
TORSDOF 3
