REMARK  Name = ZINC20589715
REMARK  7 active torsions:
REMARK  status: ('A' for Active; 'I' for Inactive)
REMARK    1  A    between atoms: C_1  and  C_2
REMARK    2  A    between atoms: C_7  and  N_8
REMARK    3  A    between atoms: C_10  and  C_23
REMARK    4  A    between atoms: C_13  and  N_15
REMARK    5  A    between atoms: N_15  and  C_16
REMARK    6  A    between atoms: C_19  and  C_21
REMARK    7  A    between atoms: C_19  and  C_22
REMARK                            x       y       z     vdW  Elec       q    Type
REMARK                         _______ _______ _______ _____ _____    ______ ____
ROOT
ATOM      1  N   UNL     1       1.110  -2.069  -0.021  0.00  0.00    -0.298 N 
ATOM      2  C   UNL     1       1.137  -0.685  -0.010  0.00  0.00    +0.143 A 
ATOM      3  C   UNL     1       2.370  -0.009   0.006  0.00  0.00    +0.095 A 
ATOM      4  C   UNL     1       2.374   1.394   0.015  0.00  0.00    -0.015 A 
ATOM      5  C   UNL     1       1.171   2.058   0.008  0.00  0.00    +0.022 A 
ATOM      6  C   UNL     1      -0.015   1.320  -0.004  0.00  0.00    +0.126 A 
ATOM      7  N   UNL     1       0.002  -0.004  -0.013  0.00  0.00    -0.216 NA
ATOM      8  C   UNL     1       1.103   3.562   0.006  0.00  0.00    +0.199 C 
ATOM      9  O   UNL     1       2.364   4.113   0.388  0.00  0.00    -0.369 OA
ATOM     10  C   UNL     1       3.461   3.591  -0.371  0.00  0.00    +0.068 C 
ATOM     11  C   UNL     1       3.684   2.133   0.037  0.00  0.00    +0.071 C 
ATOM     12  C   UNL     1       4.722   4.406  -0.078  0.00  0.00    +0.041 C 
ATOM     13  C   UNL     1       3.138   3.663  -1.865  0.00  0.00    +0.041 C 
ATOM     14  H   UNL     1       2.047  -2.637  -0.117  0.00  0.00    +0.154 HD
ENDROOT
BRANCH   1  21
ATOM     15  C   UNL     1       0.936  -4.704  -1.081  0.00  0.00    +0.045 C 
ATOM     16  C   UNL     1      -0.237  -4.033  -0.415  0.00  0.00    -0.029 A 
ATOM     17  C   UNL     1      -1.443  -4.699  -0.304  0.00  0.00    +0.005 A 
ATOM     18  C   UNL     1      -2.520  -4.084   0.308  0.00  0.00    +0.000 A 
ATOM     19  C   UNL     1      -2.394  -2.802   0.812  0.00  0.00    +0.002 A 
ATOM     20  C   UNL     1      -1.191  -2.133   0.709  0.00  0.00    +0.023 A 
ATOM     21  C   UNL     1      -0.108  -2.745   0.089  0.00  0.00    +0.035 A 
ENDBRANCH   1  21
BRANCH   6  22
ATOM     22  N   UNL     1      -1.231   1.985  -0.013  0.00  0.00    -0.332 N 
ATOM     23  C   UNL     1      -2.482   1.224  -0.032  0.00  0.00    +0.127 C 
ATOM     24  H   UNL     1      -1.256   3.085  -0.006  0.00  0.00    +0.147 HD
ENDBRANCH   6  22
BRANCH   3  25
ATOM     25  C   UNL     1       3.601  -0.740   0.012  0.00  0.00    +0.103 C 
ATOM     26  N   UNL     1       4.577  -1.321   0.017  0.00  0.00    -0.191 NA
ENDBRANCH   3  25
TORSDOF 3
