REMARK  Name = ZINC14459816
REMARK  9 active torsions:
REMARK  status: ('A' for Active; 'I' for Inactive)
REMARK    1  A    between atoms: C_1  and  C_2
REMARK    2  A    between atoms: C_2  and  C_3
REMARK    3  A    between atoms: C_3  and  N_4
REMARK    4  A    between atoms: N_4  and  S_5
REMARK    5  A    between atoms: S_5  and  C_8
REMARK    6  A    between atoms: C_21  and  C_24
REMARK    7  A    between atoms: C_28  and  O_31
REMARK    8  A    between atoms: C_29  and  O_30
REMARK    9  A    between atoms: O_31  and  C_32
REMARK                            x       y       z     vdW  Elec       q    Type
REMARK                         _______ _______ _______ _____ _____    ______ ____
ROOT
ATOM      1  C   UNL     1      -1.245   3.129   0.029  0.00  0.00    +0.106 A 
ATOM      2  C   UNL     1      -1.218   1.746   0.017  0.00  0.00    +0.030 A 
ATOM      3  C   UNL     1      -0.013   1.076   0.008  0.00  0.00    +0.025 A 
ATOM      4  C   UNL     1       1.183   1.784   0.000  0.00  0.00    +0.031 A 
ATOM      5  C   UNL     1       1.149   3.182   0.022  0.00  0.00    -0.018 A 
ATOM      6  C   UNL     1      -0.061   3.842   0.028  0.00  0.00    +0.034 A 
ATOM      7  C   UNL     1       2.443   3.896   0.059  0.00  0.00    +0.049 C 
ATOM      8  C   UNL     1       2.594   5.281  -0.455  0.00  0.00    -0.023 C 
ATOM      9  C   UNL     1       3.828   5.429  -0.921  0.00  0.00    -0.030 C 
ATOM     10  C   UNL     1       4.600   4.116  -0.782  0.00  0.00    +0.033 C 
ATOM     11  C   UNL     1       3.463   3.085  -0.796  0.00  0.00    +0.029 C 
ATOM     12  C   UNL     1       3.692   1.792  -0.035  0.00  0.00    +0.109 C 
ATOM     13  N   UNL     1       2.394   1.083  -0.051  0.00  0.00    -0.336 N 
ATOM     14  H   UNL     1       2.382   0.114  -0.097  0.00  0.00    +0.147 HD
ENDROOT
BRANCH  12  15
ATOM     15  C   UNL     1       4.746   0.963  -0.723  0.00  0.00    +0.018 A 
ATOM     16  C   UNL     1       4.375  -0.028  -1.613  0.00  0.00    +0.009 A 
ATOM     17  C   UNL     1       5.339  -0.786  -2.249  0.00  0.00    +0.004 A 
ATOM     18  C   UNL     1       6.679  -0.564  -1.991  0.00  0.00    +0.049 A 
ATOM     19  C   UNL     1       7.058   0.424  -1.097  0.00  0.00    +0.162 A 
ATOM     20  C   UNL     1       6.087   1.191  -0.459  0.00  0.00    +0.163 A 
BRANCH  20  21
ATOM     21  O   UNL     1       6.454   2.162   0.419  0.00  0.00    -0.503 OA
ATOM     22  H   UNL     1       6.530   1.856   1.334  0.00  0.00    +0.292 HD
ENDBRANCH  20  21
BRANCH  19  23
ATOM     23  O   UNL     1       8.376   0.643  -0.841  0.00  0.00    -0.491 OA
ATOM     24  C   UNL     1       9.316  -0.182  -1.531  0.00  0.00    +0.277 C 
ENDBRANCH  19  23
ENDBRANCH  12  15
BRANCH   1  25
ATOM     25  S   UNL     1      -2.787   3.980   0.037  0.00  0.00    +0.058 S 
ATOM     26  O   UNL     1      -3.743   3.084   0.587  0.00  0.00    -0.153 OA
ATOM     27  O   UNL     1      -2.539   5.265   0.592  0.00  0.00    -0.153 OA
BRANCH  25  28
ATOM     28  N   UNL     1      -3.220   4.224  -1.543  0.00  0.00    -0.190 NA
ATOM     29  H   UNL     1      -3.276   5.125  -1.898  0.00  0.00    +0.148 HD
BRANCH  28  30
ATOM     30  C   UNL     1      -3.520   3.078  -2.405  0.00  0.00    +0.105 C 
BRANCH  30  32
ATOM     31  C   UNL     1      -4.552   2.365  -4.566  0.00  0.00    +0.005 C 
ATOM     32  C   UNL     1      -4.239   3.562  -3.666  0.00  0.00    +0.013 C 
ENDBRANCH  30  32
ENDBRANCH  28  30
ENDBRANCH  25  28
ENDBRANCH   1  25
TORSDOF 7
