REMARK  Name = ZINC00650283
REMARK  11 active torsions:
REMARK  status: ('A' for Active; 'I' for Inactive)
REMARK    1  A    between atoms: C_1  and  C_2
REMARK    2  A    between atoms: C_3  and  C_32
REMARK    3  A    between atoms: C_4  and  C_25
REMARK    4  A    between atoms: C_10  and  C_15
REMARK    5  A    between atoms: C_18  and  O_23
REMARK    6  A    between atoms: C_19  and  O_21
REMARK    7  A    between atoms: O_21  and  C_22
REMARK    8  A    between atoms: O_23  and  C_24
REMARK    9  A    between atoms: C_28  and  O_31
REMARK   10  A    between atoms: C_32  and  O_34
REMARK   11  A    between atoms: O_34  and  C_35
REMARK                            x       y       z     vdW  Elec       q    Type
REMARK                         _______ _______ _______ _____ _____    ______ ____
ROOT
ATOM      1  C   UNL     1      -5.045   2.296   2.553  0.00  0.00    +0.061 C 
ATOM      2  C   UNL     1      -4.324   2.638   1.274  0.00  0.00    +0.016 C 
ATOM      3  C   UNL     1      -3.301   3.510   1.298  0.00  0.00    +0.065 C 
ATOM      4  C   UNL     1      -2.553   3.867   0.046  0.00  0.00    +0.092 C 
ATOM      5  C   UNL     1      -3.344   3.493  -1.182  0.00  0.00    +0.024 C 
ATOM      6  C   UNL     1      -4.370   2.619  -1.102  0.00  0.00    +0.016 C 
ATOM      7  N   UNL     1      -4.713   2.059   0.099  0.00  0.00    -0.321 N 
ATOM      8  C   UNL     1      -5.167   2.242  -2.326  0.00  0.00    +0.059 C 
ATOM      9  C   UNL     1      -4.271   2.312  -3.564  0.00  0.00    +0.032 C 
ATOM     10  C   UNL     1      -3.711   3.733  -3.679  0.00  0.00    +0.088 C 
ATOM     11  C   UNL     1      -2.981   4.075  -2.409  0.00  0.00    +0.162 C 
ATOM     12  O   UNL     1      -2.062   4.869  -2.444  0.00  0.00    -0.292 OA
ATOM     13  H   UNL     1      -5.307   1.133   0.113  0.00  0.00    +0.152 HD
ENDROOT
BRANCH   9  14
ATOM     14  C   UNL     1      -5.079   1.980  -4.793  0.00  0.00    -0.040 A 
ATOM     15  C   UNL     1      -6.172   2.756  -5.130  0.00  0.00    +0.008 A 
ATOM     16  C   UNL     1      -6.916   2.456  -6.255  0.00  0.00    +0.049 A 
ATOM     17  C   UNL     1      -6.566   1.376  -7.050  0.00  0.00    +0.161 A 
ATOM     18  C   UNL     1      -5.465   0.595  -6.711  0.00  0.00    +0.162 A 
ATOM     19  C   UNL     1      -4.721   0.904  -5.584  0.00  0.00    +0.053 A 
BRANCH  18  20
ATOM     20  O   UNL     1      -5.118  -0.466  -7.487  0.00  0.00    -0.491 OA
ATOM     21  C   UNL     1      -3.977  -1.222  -7.079  0.00  0.00    +0.277 C 
ENDBRANCH  18  20
BRANCH  17  22
ATOM     22  O   UNL     1      -7.297   1.080  -8.158  0.00  0.00    -0.491 OA
ATOM     23  C   UNL     1      -8.413   1.925  -8.444  0.00  0.00    +0.277 C 
ENDBRANCH  17  22
ENDBRANCH   9  14
BRANCH   4  24
ATOM     24  C   UNL     1      -1.237   3.133   0.030  0.00  0.00    -0.035 A 
ATOM     25  C   UNL     1      -1.218   1.751   0.017  0.00  0.00    +0.008 A 
ATOM     26  C   UNL     1      -0.013   1.076   0.008  0.00  0.00    +0.046 A 
ATOM     27  C   UNL     1       1.179   1.786   0.000  0.00  0.00    +0.117 A 
ATOM     28  C   UNL     1       1.157   3.174   0.008  0.00  0.00    +0.046 A 
ATOM     29  C   UNL     1      -0.051   3.844   0.023  0.00  0.00    +0.008 A 
BRANCH  27  30
ATOM     30  O   UNL     1       2.366   1.125  -0.015  0.00  0.00    -0.507 OA
ATOM     31  H   UNL     1       3.310   1.689  -0.021  0.00  0.00    +0.292 HD
ENDBRANCH  27  30
ENDBRANCH   4  24
BRANCH   3  32
ATOM     32  C   UNL     1      -2.922   4.103   2.525  0.00  0.00    +0.338 C 
ATOM     33  O   UNL     1      -3.521   3.822   3.546  0.00  0.00    -0.245 OA
BRANCH  32  34
ATOM     34  O   UNL     1      -1.898   4.980   2.562  0.00  0.00    -0.458 OA
BRANCH  34  35
ATOM     35  C   UNL     1      -1.570   5.540   3.836  0.00  0.00    +0.177 C 
ATOM     36  C   UNL     1      -2.319   6.874   4.035  0.00  0.00    +0.044 C 
ATOM     37  C   UNL     1      -1.305   7.770   4.789  0.00  0.00    +0.004 C 
ATOM     38  C   UNL     1       0.044   7.387   4.131  0.00  0.00    +0.004 C 
ATOM     39  C   UNL     1      -0.067   5.867   3.897  0.00  0.00    +0.044 C 
ENDBRANCH  34  35
ENDBRANCH  32  34
ENDBRANCH   3  32
TORSDOF 8
