REMARK  Name = ZINC05648799
REMARK  5 active torsions:
REMARK  status: ('A' for Active; 'I' for Inactive)
REMARK    1  A    between atoms: C_1  and  N_2
REMARK    2  A    between atoms: C_6  and  C_13
REMARK    3  A    between atoms: N_9  and  C_12
REMARK    4  A    between atoms: N_14  and  N_15
REMARK    5  A    between atoms: C_19  and  C_22
REMARK                            x       y       z     vdW  Elec       q    Type
REMARK                         _______ _______ _______ _____ _____    ______ ____
ROOT
ATOM      1  C   UNL     1      -3.863  -4.073   0.000  0.00  0.00    +0.143 C 
ATOM      2  N   UNL     1      -5.149  -3.836   0.009  0.00  0.00    -0.155 NA
ENDROOT
BRANCH   1   8
ATOM      3  C   UNL     1      -0.018   1.461   0.010  0.00  0.00    +0.154 C 
ATOM      4  N   UNL     1       0.002  -0.004   0.002  0.00  0.00    -0.295 N 
ATOM      5  C   UNL     1      -1.117  -0.834   0.003  0.00  0.00    +0.070 A 
ATOM      6  C   UNL     1      -2.483  -0.585   0.011  0.00  0.00    +0.028 A 
ATOM      7  C   UNL     1      -3.376  -1.634   0.010  0.00  0.00    +0.011 A 
ATOM      8  C   UNL     1      -2.909  -2.954   0.001  0.00  0.00    -0.003 A 
ATOM      9  C   UNL     1      -1.534  -3.207  -0.008  0.00  0.00    +0.037 A 
ATOM     10  C   UNL     1      -0.642  -2.149  -0.007  0.00  0.00    +0.070 A 
ATOM     11  N   UNL     1       0.749  -2.075  -0.013  0.00  0.00    -0.295 N 
ATOM     12  C   UNL     1       1.104  -0.777  -0.013  0.00  0.00    +0.330 A 
ATOM     13  O   UNL     1       2.249  -0.363  -0.022  0.00  0.00    -0.246 OA
ATOM     14  C   UNL     1       1.669  -3.216  -0.022  0.00  0.00    +0.154 C 
ENDBRANCH   1   8
BRANCH   2  15
ATOM     15  N   UNL     1      -5.986  -4.817   0.009  0.00  0.00    -0.124 NA
ATOM     16  C   UNL     1      -7.288  -4.577   0.017  0.00  0.00    +0.192 A 
ATOM     17  N   UNL     1      -7.948  -3.371   0.021  0.00  0.00    -0.332 N 
ATOM     18  H   UNL     1      -7.454  -2.537   0.018  0.00  0.00    +0.168 HD
ATOM     19  C   UNL     1      -9.315  -3.371   0.030  0.00  0.00    +0.055 A 
ATOM     20  C   UNL     1      -9.982  -4.545   0.035  0.00  0.00    +0.075 A 
ATOM     21  S   UNL     1      -8.649  -5.733   0.018  0.00  0.00    -0.056 S 
BRANCH  19  22
ATOM     22  C   UNL     1     -10.058  -2.093   0.036  0.00  0.00    -0.001 A 
ATOM     23  C   UNL     1      -9.367  -0.880   0.026  0.00  0.00    +0.010 A 
ATOM     24  C   UNL     1     -10.067   0.309   0.031  0.00  0.00    +0.001 A 
ATOM     25  C   UNL     1     -11.450   0.301   0.046  0.00  0.00    +0.000 A 
ATOM     26  C   UNL     1     -12.141  -0.898   0.056  0.00  0.00    +0.001 A 
ATOM     27  C   UNL     1     -11.454  -2.094   0.045  0.00  0.00    +0.010 A 
ENDBRANCH  19  22
ENDBRANCH   2  15
TORSDOF 3
