REMARK  Name = ZINC08820594
REMARK  10 active torsions:
REMARK  status: ('A' for Active; 'I' for Inactive)
REMARK    1  A    between atoms: C_1  and  C_2
REMARK    2  A    between atoms: C_2  and  C_10
REMARK    3  A    between atoms: C_3  and  C_4
REMARK    4  A    between atoms: N_14  and  C_18
REMARK    5  A    between atoms: C_18  and  C_19
REMARK    6  A    between atoms: C_19  and  C_20
REMARK    7  A    between atoms: C_20  and  C_21
REMARK    8  A    between atoms: N_23  and  N_24
REMARK    9  A    between atoms: C_25  and  C_27
REMARK   10  A    between atoms: C_32  and  O_33
REMARK                            x       y       z     vdW  Elec       q    Type
REMARK                         _______ _______ _______ _____ _____    ______ ____
ROOT
ATOM      1  C   UNL     1       2.207   6.304   0.242  0.00  0.00    +0.115 C 
ENDROOT
BRANCH   1   6
ATOM      2  C   UNL     1       2.367  10.868   2.192  0.00  0.00    +0.023 C 
ATOM      3  C   UNL     1       2.306   9.921   1.212  0.00  0.00    +0.077 C 
ATOM      4  C   UNL     1       2.291   8.451   1.326  0.00  0.00    +0.258 C 
ATOM      5  O   UNL     1       2.335   7.893   2.408  0.00  0.00    -0.269 OA
ATOM      6  N   UNL     1       2.226   7.768   0.195  0.00  0.00    -0.255 N 
ATOM      7  C   UNL     1       2.183   8.390  -1.001  0.00  0.00    +0.121 C 
ATOM      8  S   UNL     1       2.105   7.690  -2.561  0.00  0.00    -0.027 S 
ATOM      9  S   UNL     1       2.223  10.120  -0.562  0.00  0.00    -0.061 S 
BRANCH   2  11
ATOM     10  C   UNL     1       1.859  12.633   0.458  0.00  0.00    +0.044 C 
ATOM     11  C   UNL     1       2.219  12.231   1.865  0.00  0.00    -0.049 C 
ATOM     12  C   UNL     1       2.400  13.179   2.814  0.00  0.00    +0.011 C 
BRANCH  12  13
ATOM     13  C   UNL     1       2.362  14.602   2.449  0.00  0.00    -0.025 A 
ATOM     14  C   UNL     1       2.889  15.028   1.224  0.00  0.00    +0.008 A 
ATOM     15  C   UNL     1       2.845  16.364   0.886  0.00  0.00    +0.001 A 
ATOM     16  C   UNL     1       2.292  17.285   1.760  0.00  0.00    +0.000 A 
ATOM     17  C   UNL     1       1.774  16.873   2.975  0.00  0.00    +0.001 A 
ATOM     18  C   UNL     1       1.805  15.540   3.326  0.00  0.00    +0.008 A 
ENDBRANCH  12  13
ENDBRANCH   2  11
ENDBRANCH   1   6
BRANCH   1  19
ATOM     19  C   UNL     1       0.760   5.815   0.329  0.00  0.00    +0.029 C 
BRANCH  19  20
ATOM     20  C   UNL     1       0.741   4.286   0.378  0.00  0.00    +0.099 C 
BRANCH  20  21
ATOM     21  C   UNL     1      -0.685   3.804   0.463  0.00  0.00    +0.229 C 
ATOM     22  O   UNL     1      -1.595   4.605   0.482  0.00  0.00    -0.274 OA
ATOM     23  N   UNL     1      -0.948   2.484   0.517  0.00  0.00    -0.234 N 
ATOM     24  H   UNL     1      -0.220   1.843   0.502  0.00  0.00    +0.173 HD
BRANCH  23  25
ATOM     25  N   UNL     1      -2.273   2.036   0.596  0.00  0.00    -0.230 N 
ATOM     26  C   UNL     1      -2.536   0.715   0.650  0.00  0.00    +0.264 C 
ATOM     27  O   UNL     1      -1.623  -0.088   0.631  0.00  0.00    -0.269 OA
ATOM     28  H   UNL     1      -3.001   2.676   0.607  0.00  0.00    +0.173 HD
BRANCH  26  29
ATOM     29  C   UNL     1      -3.931   0.244   0.734  0.00  0.00    +0.079 A 
ATOM     30  C   UNL     1      -4.983   1.163   0.762  0.00  0.00    +0.017 A 
ATOM     31  C   UNL     1      -6.284   0.716   0.834  0.00  0.00    +0.001 A 
ATOM     32  C   UNL     1      -6.555  -0.642   0.890  0.00  0.00    +0.004 A 
ATOM     33  C   UNL     1      -5.525  -1.561   0.868  0.00  0.00    +0.046 A 
ATOM     34  C   UNL     1      -4.209  -1.129   0.790  0.00  0.00    +0.129 A 
BRANCH  34  35
ATOM     35  O   UNL     1      -3.196  -2.030   0.770  0.00  0.00    -0.506 OA
ATOM     36  H   UNL     1      -2.860  -2.264   1.646  0.00  0.00    +0.292 HD
ENDBRANCH  34  35
ENDBRANCH  26  29
ENDBRANCH  23  25
ENDBRANCH  20  21
ENDBRANCH  19  20
ENDBRANCH   1  19
TORSDOF 9
