REMARK  Name = ZINC63572540
REMARK  4 active torsions:
REMARK  status: ('A' for Active; 'I' for Inactive)
REMARK    1  A    between atoms: C_1  and  C_2
REMARK    2  A    between atoms: C_5  and  N_9
REMARK    3  A    between atoms: C_6  and  C_8
REMARK    4  A    between atoms: C_25  and  C_27
REMARK                            x       y       z     vdW  Elec       q    Type
REMARK                         _______ _______ _______ _____ _____    ______ ____
ROOT
ATOM      1  N   UNL     1      -1.725  -4.349  -0.374  0.00  0.00    -0.269 N 
ATOM      2  C   UNL     1      -1.216  -4.989  -1.445  0.00  0.00    +0.307 C 
ATOM      3  O   UNL     1      -1.131  -4.414  -2.513  0.00  0.00    -0.252 OA
ATOM      4  N   UNL     1      -0.801  -6.266  -1.332  0.00  0.00    -0.276 N 
ATOM      5  C   UNL     1      -1.039  -6.998  -0.084  0.00  0.00    +0.114 C 
ATOM      6  C   UNL     1       0.305  -7.493   0.484  0.00  0.00    +0.052 C 
ATOM      7  C   UNL     1       1.070  -8.088  -0.672  0.00  0.00    -0.035 C 
ATOM      8  C   UNL     1       1.661  -9.267  -0.819  0.00  0.00    +0.001 A 
ATOM      9  C   UNL     1       1.880 -10.377   0.122  0.00  0.00    +0.030 A 
ATOM     10  C   UNL     1       2.517 -11.470  -0.377  0.00  0.00    +0.042 A 
ATOM     11  C   UNL     1       2.953 -11.568  -1.704  0.00  0.00    +0.022 A 
ATOM     12  C   UNL     1       2.800 -10.592  -2.634  0.00  0.00    +0.027 A 
ATOM     13  C   UNL     1       2.151  -9.391  -2.226  0.00  0.00    +0.043 A 
ATOM     14  N   UNL     1       1.898  -8.304  -2.893  0.00  0.00    -0.375 N 
ATOM     15  C   UNL     1       1.276  -7.340  -1.984  0.00  0.00    +0.131 C 
ATOM     16  C   UNL     1      -0.120  -6.913  -2.465  0.00  0.00    +0.134 C 
ATOM     17 CL   UNL     1       2.805 -12.813   0.685  0.00  0.00    -0.084 Cl
ATOM     18  H   UNL     1      -1.718  -4.777   0.496  0.00  0.00    +0.156 HD
ATOM     19  H   UNL     1       2.088  -8.157  -3.832  0.00  0.00    +0.160 HD
ENDROOT
BRANCH   1  24
ATOM     20  C   UNL     1      -3.913   0.854  -0.955  0.00  0.00    +0.044 C 
ATOM     21  C   UNL     1      -3.332  -0.528  -0.801  0.00  0.00    -0.050 A 
ATOM     22  C   UNL     1      -2.352  -0.966  -1.673  0.00  0.00    +0.005 A 
ATOM     23  C   UNL     1      -1.817  -2.232  -1.534  0.00  0.00    +0.024 A 
ATOM     24  C   UNL     1      -2.265  -3.065  -0.517  0.00  0.00    +0.038 A 
ATOM     25  C   UNL     1      -3.248  -2.623   0.357  0.00  0.00    -0.029 A 
ATOM     26  C   UNL     1      -3.775  -1.353   0.216  0.00  0.00    +0.008 A 
ATOM     27  C   UNL     1      -3.737  -3.524   1.461  0.00  0.00    +0.045 C 
ENDBRANCH   1  24
BRANCH  16  28
ATOM     28  C   UNL     1       0.007  -5.939  -3.608  0.00  0.00    -0.025 A 
ATOM     29  C   UNL     1       0.780  -4.803  -3.465  0.00  0.00    +0.008 A 
ATOM     30  C   UNL     1       0.898  -3.909  -4.512  0.00  0.00    +0.038 A 
ATOM     31  C   UNL     1       0.240  -4.153  -5.706  0.00  0.00    +0.123 A 
ATOM     32  C   UNL     1      -0.535  -5.291  -5.849  0.00  0.00    +0.038 A 
ATOM     33  C   UNL     1      -0.646  -6.186  -4.801  0.00  0.00    +0.008 A 
ATOM     34  F   UNL     1       0.354  -3.280  -6.731  0.00  0.00    -0.205 F 
ENDBRANCH  16  28
TORSDOF 2
