REMARK  Name = ZINC36146031
REMARK  12 active torsions:
REMARK  status: ('A' for Active; 'I' for Inactive)
REMARK    1  A    between atoms: C_4  and  C_7
REMARK    2  A    between atoms: C_7  and  O_8
REMARK    3  A    between atoms: O_8  and  C_9
REMARK    4  A    between atoms: C_9  and  C_10
REMARK    5  A    between atoms: C_10  and  C_12
REMARK    6  A    between atoms: C_10  and  O_36
REMARK    7  A    between atoms: C_12  and  N_13
REMARK    8  A    between atoms: N_13  and  C_14
REMARK    9  A    between atoms: N_13  and  C_22
REMARK   10  A    between atoms: C_14  and  C_15
REMARK   11  A    between atoms: C_22  and  C_23
REMARK   12  A    between atoms: C_26  and  C_29
REMARK                            x       y       z     vdW  Elec       q    Type
REMARK                         _______ _______ _______ _____ _____    ______ ____
ROOT
ATOM      1  N   UNL     1       7.637  -2.588   4.474  0.00  0.00    +0.387 N 
ATOM      2  H   UNL     1       7.020  -3.174   5.017  0.00  0.00    -0.081 HD
ENDROOT
BRANCH   1   3
ATOM      3  C   UNL     1       7.231  -2.625   3.063  0.00  0.00    -0.044 C 
BRANCH   3   4
ATOM      4  C   UNL     1       5.752  -2.251   2.948  0.00  0.00    +0.124 C 
BRANCH   4   5
ATOM      5  O   UNL     1       4.961  -3.209   3.653  0.00  0.00    -0.391 OA
ATOM      6  H   UNL     1       5.053  -4.114   3.323  0.00  0.00    +0.210 HD
ENDBRANCH   4   5
BRANCH   4   7
ATOM      7  C   UNL     1       5.343  -2.237   1.474  0.00  0.00    +0.189 C 
BRANCH   7   8
ATOM      8  O   UNL     1       3.996  -1.774   1.358  0.00  0.00    -0.373 OA
BRANCH   8   9
ATOM      9  C   UNL     1       3.513  -1.723   0.014  0.00  0.00    +0.195 C 
BRANCH   9  13
ATOM     10  C   UNL     1      -0.519  -0.310   0.000  0.00  0.00    +0.000 A 
ATOM     11  C   UNL     1       0.529   0.587  -0.096  0.00  0.00    +0.000 A 
ATOM     12  C   UNL     1       1.833   0.130  -0.091  0.00  0.00    +0.006 A 
ATOM     13  C   UNL     1       2.091  -1.225   0.010  0.00  0.00    -0.022 A 
ATOM     14  C   UNL     1       1.043  -2.122   0.107  0.00  0.00    +0.006 A 
ATOM     15  C   UNL     1      -0.261  -1.665   0.101  0.00  0.00    +0.000 A 
ENDBRANCH   9  13
ENDBRANCH   8   9
ENDBRANCH   7   8
ENDBRANCH   4   7
ENDBRANCH   3   4
ENDBRANCH   1   3
BRANCH   1  16
ATOM     16  C   UNL     1       7.562  -1.208   4.970  0.00  0.00    -0.043 C 
BRANCH  16  17
ATOM     17  C   UNL     1       8.464  -0.328   4.143  0.00  0.00    -0.063 A 
ATOM     18  C   UNL     1       9.788  -0.162   4.505  0.00  0.00    +0.002 A 
ATOM     19  C   UNL     1      10.616   0.645   3.747  0.00  0.00    +0.002 A 
ATOM     20  C   UNL     1      10.121   1.287   2.627  0.00  0.00    +0.020 A 
ATOM     21  C   UNL     1       8.796   1.121   2.265  0.00  0.00    +0.041 A 
ATOM     22  C   UNL     1       7.969   0.309   3.021  0.00  0.00    +0.021 A 
ATOM     23 CL   UNL     1       8.173   1.928   0.860  0.00  0.00    -0.084 Cl
ENDBRANCH  16  17
ENDBRANCH   1  16
BRANCH   1  24
ATOM     24  C   UNL     1       9.016  -3.080   4.601  0.00  0.00    -0.030 C 
BRANCH  24  25
ATOM     25  C   UNL     1       9.396  -3.159   6.080  0.00  0.00    +0.194 C 
ATOM     26  C   UNL     1      10.860  -3.628   6.252  0.00  0.00    +0.104 C 
ATOM     27  C   UNL     1      10.780  -4.517   7.478  0.00  0.00    +0.092 C 
ATOM     28  N   UNL     1       9.538  -4.799   7.694  0.00  0.00    -0.089 NA
ATOM     29  O   UNL     1       8.669  -4.213   6.744  0.00  0.00    -0.392 OA
BRANCH  27  30
ATOM     30  C   UNL     1      11.925  -4.982   8.286  0.00  0.00    +0.018 A 
ATOM     31  C   UNL     1      13.224  -4.599   7.947  0.00  0.00    +0.011 A 
ATOM     32  C   UNL     1      14.289  -5.036   8.706  0.00  0.00    +0.001 A 
ATOM     33  C   UNL     1      14.073  -5.853   9.802  0.00  0.00    +0.001 A 
ATOM     34  C   UNL     1      12.790  -6.237  10.145  0.00  0.00    +0.020 A 
ATOM     35  C   UNL     1      11.713  -5.802   9.398  0.00  0.00    +0.050 A 
ATOM     36 CL   UNL     1      10.101  -6.278   9.833  0.00  0.00    -0.083 Cl
ENDBRANCH  27  30
ENDBRANCH  24  25
ENDBRANCH   1  24
TORSDOF 12
