REMARK  Name = ZINC37461239
REMARK  4 active torsions:
REMARK  status: ('A' for Active; 'I' for Inactive)
REMARK    1  A    between atoms: C_2  and  C_3
REMARK    2  A    between atoms: C_3  and  N_4
REMARK    3  A    between atoms: C_5  and  C_7
REMARK    4  A    between atoms: C_10  and  C_12
REMARK                            x       y       z     vdW  Elec       q    Type
REMARK                         _______ _______ _______ _____ _____    ______ ____
ROOT
ATOM      1  N   UNL     1       1.867   4.876   2.923  0.00  0.00    -0.304 N 
ATOM      2  C   UNL     1       2.949   5.534   2.462  0.00  0.00    +0.218 C 
ATOM      3  O   UNL     1       3.308   6.561   2.997  0.00  0.00    -0.275 OA
ATOM      4  H   UNL     1       1.579   4.055   2.494  0.00  0.00    +0.150 HD
ENDROOT
BRANCH   2   5
ATOM      5  C   UNL     1       3.713   4.993   1.281  0.00  0.00    +0.090 C 
ATOM      6  C   UNL     1       4.471   5.997   0.409  0.00  0.00    +0.029 C 
ATOM      7  C   UNL     1       3.192   5.338  -0.116  0.00  0.00    +0.115 C 
BRANCH   7   8
ATOM      8  C   UNL     1       1.955   6.194  -0.205  0.00  0.00    +0.360 C 
ATOM      9  O   UNL     1       1.991   7.358   0.155  0.00  0.00    -0.246 OA
ATOM     10  O   UNL     1       0.917   5.721  -0.638  0.00  0.00    -0.246 OA
ENDBRANCH   7   8
ENDBRANCH   2   5
BRANCH   1  11
ATOM     11  C   UNL     1       1.124   5.402   4.071  0.00  0.00    +0.193 C 
BRANCH  11  13
ATOM     12  C   UNL     1      -0.906   3.796   4.619  0.00  0.00    +0.005 C 
ATOM     13  C   UNL     1      -0.005   4.509   4.375  0.00  0.00    -0.087 C 
ENDBRANCH  11  13
ENDBRANCH   1  11
TORSDOF 4
