REMARK  Name = ZINC49018099
REMARK  6 active torsions:
REMARK  status: ('A' for Active; 'I' for Inactive)
REMARK    1  A    between atoms: C_1  and  C_2
REMARK    2  A    between atoms: C_7  and  N_10
REMARK    3  A    between atoms: N_10  and  C_11
REMARK    4  A    between atoms: N_10  and  C_12
REMARK    5  A    between atoms: C_15  and  C_19
REMARK    6  A    between atoms: C_17  and  N_18
REMARK                            x       y       z     vdW  Elec       q    Type
REMARK                         _______ _______ _______ _____ _____    ______ ____
ROOT
ATOM      1  C   UNL     1      -0.985  -3.282   2.365  0.00  0.00    +0.051 A 
ATOM      2  C   UNL     1      -1.464  -2.628   3.495  0.00  0.00    +0.026 A 
ATOM      3  C   UNL     1      -1.835  -3.350   4.607  0.00  0.00    +0.017 A 
ATOM      4  C   UNL     1      -1.730  -4.745   4.604  0.00  0.00    +0.065 A 
ATOM      5  C   UNL     1      -1.248  -5.405   3.468  0.00  0.00    +0.039 A 
ATOM      6  C   UNL     1      -0.883  -4.677   2.352  0.00  0.00    +0.047 A 
ENDROOT
BRANCH   6   7
ATOM      7  N   UNL     1      -0.406  -5.334   1.212  0.00  0.00    -0.357 N 
ATOM      8  H   UNL     1      -0.145  -4.821   0.430  0.00  0.00    +0.142 HD
ATOM      9  H   UNL     1      -0.335  -6.301   1.203  0.00  0.00    +0.142 HD
ENDBRANCH   6   7
BRANCH   4  10
ATOM     10  C   UNL     1      -2.125  -5.517   5.793  0.00  0.00    +0.387 C 
ATOM     11  O   UNL     1      -2.546  -4.939   6.785  0.00  0.00    -0.241 OA
ATOM     12  O   UNL     1      -2.033  -6.737   5.788  0.00  0.00    -0.241 OA
ENDBRANCH   4  10
BRANCH   1  13
ATOM     13  N   UNL     1      -0.612  -2.548   1.244  0.00  0.00    -0.328 N 
ATOM     14  C   UNL     1      -1.608  -1.747   0.527  0.00  0.00    +0.129 C 
BRANCH  13  20
ATOM     15  C   UNL     1       2.465  -1.897   4.173  0.00  0.00    +0.007 C 
ATOM     16  C   UNL     1       1.533  -1.669   2.981  0.00  0.00    -0.012 C 
ATOM     17  C   UNL     1       1.874  -0.335   2.314  0.00  0.00    +0.003 C 
ATOM     18  C   UNL     1       0.942  -0.107   1.123  0.00  0.00    +0.002 C 
ATOM     19  C   UNL     1       1.119  -1.242   0.112  0.00  0.00    +0.022 C 
ATOM     20  C   UNL     1       0.777  -2.576   0.779  0.00  0.00    +0.073 C 
ATOM     21  C   UNL     1       1.710  -2.804   1.970  0.00  0.00    +0.025 C 
ENDBRANCH  13  20
ENDBRANCH   1  13
TORSDOF 4
