REMARK  Name = ZINC63295627
REMARK  10 active torsions:
REMARK  status: ('A' for Active; 'I' for Inactive)
REMARK    1  A    between atoms: C_1  and  O_2
REMARK    2  A    between atoms: O_2  and  C_3
REMARK    3  A    between atoms: C_7  and  C_9
REMARK    4  A    between atoms: C_13  and  C_35
REMARK    5  A    between atoms: N_15  and  C_22
REMARK    6  A    between atoms: C_22  and  C_23
REMARK    7  A    between atoms: C_23  and  C_24
REMARK    8  A    between atoms: C_27  and  O_33
REMARK    9  A    between atoms: O_33  and  C_34
REMARK   10  A    between atoms: C_38  and  O_41
REMARK                            x       y       z     vdW  Elec       q    Type
REMARK                         _______ _______ _______ _____ _____    ______ ____
ROOT
ATOM      1  C   UNL     1      -2.540  -4.171   0.015  0.00  0.00    +0.136 C 
ATOM      2  C   UNL     1      -2.775  -4.706   1.381  0.00  0.00    +0.077 C 
ATOM      3  C   UNL     1      -2.405  -4.311   2.760  0.00  0.00    +0.114 C 
ATOM      4  N   UNL     1      -3.547  -4.883   3.544  0.00  0.00    -0.292 N 
ATOM      5  C   UNL     1      -4.644  -5.008   2.729  0.00  0.00    +0.243 C 
ATOM      6  O   UNL     1      -5.678  -5.588   2.987  0.00  0.00    -0.273 OA
ATOM      7  C   UNL     1      -4.307  -4.265   1.464  0.00  0.00    +0.218 C 
ATOM      8  N   UNL     1      -4.733  -4.767   0.166  0.00  0.00    -0.203 NA
ATOM      9  N   UNL     1      -3.782  -4.668  -0.659  0.00  0.00    -0.305 N 
ATOM     10  H   UNL     1      -3.847  -4.886  -1.602  0.00  0.00    +0.183 HD
ENDROOT
BRANCH   1  15
ATOM     11  C   UNL     1      -1.204  -0.637   0.114  0.00  0.00    +0.120 A 
ATOM     12  C   UNL     1      -2.375   0.101   0.019  0.00  0.00    +0.045 A 
ATOM     13  C   UNL     1      -3.592  -0.545  -0.077  0.00  0.00    +0.004 A 
ATOM     14  C   UNL     1      -3.644  -1.927  -0.078  0.00  0.00    +0.006 A 
ATOM     15  C   UNL     1      -2.479  -2.665   0.017  0.00  0.00    -0.020 A 
ATOM     16  C   UNL     1      -1.259  -2.023   0.107  0.00  0.00    +0.051 A 
BRANCH  11  18
ATOM     17  C   UNL     1      -0.025   1.425   0.209  0.00  0.00    +0.277 C 
ATOM     18  O   UNL     1      -0.005  -0.004   0.207  0.00  0.00    -0.495 OA
ENDBRANCH  11  18
ENDBRANCH   1  15
BRANCH   3  19
ATOM     19  C   UNL     1      -1.097  -4.939   3.170  0.00  0.00    -0.026 A 
ATOM     20  C   UNL     1      -1.066  -6.255   3.591  0.00  0.00    +0.009 A 
ATOM     21  C   UNL     1       0.131  -6.833   3.968  0.00  0.00    +0.046 A 
ATOM     22  C   UNL     1       1.302  -6.090   3.923  0.00  0.00    +0.117 A 
ATOM     23  C   UNL     1       1.268  -4.769   3.501  0.00  0.00    +0.046 A 
ATOM     24  C   UNL     1       0.069  -4.198   3.120  0.00  0.00    +0.009 A 
BRANCH  22  25
ATOM     25  O   UNL     1       2.481  -6.656   4.294  0.00  0.00    -0.507 OA
ATOM     26  H   UNL     1       2.958  -7.083   3.569  0.00  0.00    +0.292 HD
ENDBRANCH  22  25
ENDBRANCH   3  19
BRANCH   4  27
ATOM     27  C   UNL     1      -3.500  -5.251   4.961  0.00  0.00    +0.113 C 
BRANCH  27  28
ATOM     28  C   UNL     1      -3.903  -4.047   5.814  0.00  0.00    +0.052 C 
BRANCH  28  29
ATOM     29  C   UNL     1      -3.855  -4.426   7.272  0.00  0.00    -0.040 C 
ATOM     30  C   UNL     1      -2.829  -4.227   8.130  0.00  0.00    +0.002 A 
ATOM     31  C   UNL     1      -1.501  -3.623   7.971  0.00  0.00    +0.055 A 
ATOM     32  C   UNL     1      -0.665  -3.561   9.035  0.00  0.00    +0.121 A 
ATOM     33  C   UNL     1      -1.022  -4.059  10.300  0.00  0.00    +0.047 A 
ATOM     34  C   UNL     1      -2.220  -4.632  10.545  0.00  0.00    +0.029 A 
ATOM     35  C   UNL     1      -3.204  -4.751   9.464  0.00  0.00    +0.043 A 
ATOM     36  N   UNL     1      -4.412  -5.253   9.431  0.00  0.00    -0.380 N 
ATOM     37  C   UNL     1      -4.946  -5.100   8.073  0.00  0.00    +0.144 C 
ATOM     38  H   UNL     1      -4.878  -5.656  10.181  0.00  0.00    +0.160 HD
BRANCH  32  39
ATOM     39  O   UNL     1       0.562  -2.999   8.873  0.00  0.00    -0.495 OA
ATOM     40  C   UNL     1       1.412  -2.955  10.021  0.00  0.00    +0.277 C 
ENDBRANCH  32  39
ENDBRANCH  28  29
ENDBRANCH  27  28
ENDBRANCH   4  27
TORSDOF 8
