REMARK  Name = ZINC08923383
REMARK  6 active torsions:
REMARK  status: ('A' for Active; 'I' for Inactive)
REMARK    1  A    between atoms: C_1  and  C_2
REMARK    2  A    between atoms: C_2  and  C_3
REMARK    3  A    between atoms: C_2  and  N_45
REMARK    4  A    between atoms: C_11  and  O_25
REMARK    5  A    between atoms: C_13  and  C_16
REMARK    6  A    between atoms: C_21  and  O_22
REMARK                            x       y       z     vdW  Elec       q    Type
REMARK                         _______ _______ _______ _____ _____    ______ ____
ROOT
ATOM      1  C   UNL     1      -1.356  -0.550   0.132  0.00  0.00    -0.073 C 
ATOM      2  C   UNL     1      -1.366  -2.032  -0.252  0.00  0.00    +0.018 C 
ATOM      3  C   UNL     1      -0.272  -2.737   0.543  0.00  0.00    -0.027 A 
ATOM      4  C   UNL     1       0.717  -2.013   1.120  0.00  0.00    -0.021 A 
ATOM      5  S   UNL     1       1.746  -3.210   1.925  0.00  0.00    -0.080 S 
ATOM      6  C   UNL     1       0.885  -4.628   1.503  0.00  0.00    +0.080 A 
ATOM      7  C   UNL     1      -0.201  -4.171   0.743  0.00  0.00    +0.067 A 
ATOM      8  C   UNL     1      -1.139  -5.196   0.217  0.00  0.00    +0.220 C 
ATOM      9  N   UNL     1      -1.024  -6.415   0.668  0.00  0.00    -0.223 NA
ATOM     10  C   UNL     1      -0.103  -6.827   1.720  0.00  0.00    +0.227 C 
ATOM     11  N   UNL     1       1.089  -5.960   1.769  0.00  0.00    -0.313 N 
ATOM     12  C   UNL     1       0.878  -0.527   1.068  0.00  0.00    -0.035 C 
ATOM     13  H   UNL     1       1.969  -6.311   1.978  0.00  0.00    +0.149 HD
ATOM     14  N   UNL     1       0.012  -0.013  -0.021  0.00  0.00    +0.384 N 
ATOM     15  H   UNL     1       0.392  -0.321  -0.924  0.00  0.00    -0.081 HD
ENDROOT
BRANCH  10  16
ATOM     16  C   UNL     1      -0.813  -6.763   3.048  0.00  0.00    +0.038 A 
ATOM     17  C   UNL     1      -0.111  -6.432   4.191  0.00  0.00    +0.026 A 
ATOM     18  C   UNL     1      -0.762  -6.373   5.410  0.00  0.00    +0.020 A 
ATOM     19  C   UNL     1      -2.117  -6.644   5.488  0.00  0.00    +0.039 A 
ATOM     20  C   UNL     1      -2.822  -6.974   4.347  0.00  0.00    +0.084 A 
ATOM     21  C   UNL     1      -2.172  -7.029   3.121  0.00  0.00    +0.142 A 
ATOM     22 CL   UNL     1      -4.522  -7.314   4.444  0.00  0.00    -0.080 Cl
ATOM     23 BR   UNL     1       0.202  -5.921   6.974  0.00  0.00    -0.050 Br
BRANCH  21  24
ATOM     24  O   UNL     1      -2.865  -7.349   1.996  0.00  0.00    -0.505 OA
ATOM     25  H   UNL     1      -2.890  -8.297   1.806  0.00  0.00    +0.292 HD
ENDBRANCH  21  24
ENDBRANCH  10  16
BRANCH  14  27
ATOM     26  C   UNL     1       1.417   1.994  -0.001  0.00  0.00    -0.014 C 
ATOM     27  C   UNL     1      -0.018   1.465   0.010  0.00  0.00    -0.074 C 
ATOM     28  C   UNL     1      -0.758   1.972  -1.229  0.00  0.00    -0.014 C 
ENDBRANCH  14  27
BRANCH   8  29
ATOM     29  O   UNL     1      -2.082  -4.876  -0.699  0.00  0.00    -0.492 OA
ATOM     30  H   UNL     1      -2.636  -5.620  -0.970  0.00  0.00    +0.294 HD
ENDBRANCH   8  29
TORSDOF 4
