REMARK  Name = ZINC67550916
REMARK  11 active torsions:
REMARK  status: ('A' for Active; 'I' for Inactive)
REMARK    1  A    between atoms: C_1  and  C_2
REMARK    2  A    between atoms: N_5  and  C_8
REMARK    3  A    between atoms: C_8  and  C_9
REMARK    4  A    between atoms: C_9  and  C_11
REMARK    5  A    between atoms: C_9  and  O_27
REMARK    6  A    between atoms: C_11  and  N_12
REMARK    7  A    between atoms: N_15  and  C_16
REMARK    8  A    between atoms: C_19  and  O_23
REMARK    9  A    between atoms: O_23  and  C_24
REMARK   10  A    between atoms: C_24  and  C_25
REMARK   11  A    between atoms: C_24  and  C_26
REMARK                            x       y       z     vdW  Elec       q    Type
REMARK                         _______ _______ _______ _____ _____    ______ ____
ROOT
ATOM      1  N   UNL     1       0.699  -6.307   4.081  0.00  0.00    -0.297 N 
ATOM      2  C   UNL     1       0.822  -7.620   4.357  0.00  0.00    +0.304 C 
ATOM      3  O   UNL     1       0.482  -8.449   3.535  0.00  0.00    -0.253 OA
ATOM      4  N   UNL     1       1.322  -8.015   5.545  0.00  0.00    -0.267 N 
ATOM      5  H   UNL     1       0.971  -5.646   4.737  0.00  0.00    +0.150 HD
ATOM      6  H   UNL     1       1.648  -7.356   6.177  0.00  0.00    +0.156 HD
ENDROOT
BRANCH   4   7
ATOM      7  C   UNL     1       1.371  -9.380   5.867  0.00  0.00    +0.070 A 
ATOM      8  C   UNL     1       1.609 -10.319   4.874  0.00  0.00    +0.030 A 
ATOM      9  C   UNL     1       1.657 -11.663   5.192  0.00  0.00    +0.047 A 
ATOM     10  C   UNL     1       1.468 -12.074   6.503  0.00  0.00    +0.124 A 
ATOM     11  C   UNL     1       1.228 -11.137   7.497  0.00  0.00    +0.085 A 
ATOM     12  C   UNL     1       1.185  -9.791   7.182  0.00  0.00    +0.148 A 
ATOM     13  F   UNL     1       0.958  -8.877   8.151  0.00  0.00    -0.203 F 
BRANCH  10  14
ATOM     14  O   UNL     1       1.515 -13.397   6.814  0.00  0.00    -0.489 OA
BRANCH  14  15
ATOM     15  C   UNL     1       1.859 -14.299   5.760  0.00  0.00    +0.167 C 
ATOM     16  C   UNL     1       3.382 -14.372   5.628  0.00  0.00    +0.051 C 
ATOM     17  C   UNL     1       1.307 -15.690   6.079  0.00  0.00    +0.051 C 
ENDBRANCH  14  15
ENDBRANCH  10  14
ENDBRANCH   4   7
BRANCH   1  18
ATOM     18  C   UNL     1       0.156  -5.878   2.789  0.00  0.00    +0.135 C 
BRANCH  18  19
ATOM     19  C   UNL     1       0.124  -4.350   2.732  0.00  0.00    +0.115 C 
BRANCH  19  20
ATOM     20  O   UNL     1      -0.702  -3.851   3.786  0.00  0.00    -0.392 OA
ATOM     21  H   UNL     1      -1.618  -4.157   3.746  0.00  0.00    +0.210 HD
ENDBRANCH  19  20
BRANCH  19  22
ATOM     22  C   UNL     1      -0.443  -3.902   1.384  0.00  0.00    -0.046 C 
BRANCH  22  27
ATOM     23  C   UNL     1       0.456   1.556  -0.005  0.00  0.00    +0.007 C 
ATOM     24  C   UNL     1       0.441   0.026  -0.012  0.00  0.00    -0.018 C 
ATOM     25  C   UNL     1      -1.007  -0.472  -0.033  0.00  0.00    -0.016 C 
ATOM     26  C   UNL     1      -1.016  -2.001   0.041  0.00  0.00    -0.078 C 
ATOM     27  N   UNL     1      -0.363  -2.438   1.280  0.00  0.00    +0.381 N 
ATOM     28  C   UNL     1       1.045  -2.026   1.275  0.00  0.00    -0.078 C 
ATOM     29  C   UNL     1       1.134  -0.499   1.249  0.00  0.00    -0.016 C 
ATOM     30  H   UNL     1      -0.832  -2.022   2.071  0.00  0.00    -0.082 HD
ENDBRANCH  22  27
ENDBRANCH  19  22
ENDBRANCH  18  19
ENDBRANCH   1  18
TORSDOF 8
