REMARK  Name = ZINC23992808
REMARK  9 active torsions:
REMARK  status: ('A' for Active; 'I' for Inactive)
REMARK    1  A    between atoms: C_1  and  O_2
REMARK    2  A    between atoms: O_2  and  C_3
REMARK    3  A    between atoms: C_8  and  C_9
REMARK    4  A    between atoms: C_9  and  N_10
REMARK    5  A    between atoms: N_10  and  C_11
REMARK    6  A    between atoms: N_10  and  C_17
REMARK    7  A    between atoms: C_11  and  C_12
REMARK    8  A    between atoms: C_17  and  C_18
REMARK    9  A    between atoms: C_24  and  C_29
REMARK                            x       y       z     vdW  Elec       q    Type
REMARK                         _______ _______ _______ _____ _____    ______ ____
ROOT
ATOM      1  C   UNL     1      -1.883   4.201  -0.156  0.00  0.00    -0.002 C 
ENDROOT
BRANCH   1   2
ATOM      2  C   UNL     1      -0.402   3.986  -0.329  0.00  0.00    +0.094 A 
ATOM      3  N   UNL     1       0.080   2.721  -0.442  0.00  0.00    -0.312 N 
ATOM      4  H   UNL     1      -0.611   1.865  -0.410  0.00  0.00    +0.170 HD
ATOM      5  C   UNL     1       1.396   2.485  -0.593  0.00  0.00    +0.260 A 
ATOM      6  O   UNL     1       1.813   1.343  -0.688  0.00  0.00    -0.267 OA
ATOM      7  C   UNL     1       2.298   3.595  -0.646  0.00  0.00    +0.080 A 
ATOM      8  C   UNL     1       3.747   3.599  -0.808  0.00  0.00    +0.004 A 
ATOM      9  C   UNL     1       4.397   4.788  -0.830  0.00  0.00    +0.056 A 
ATOM     10  S   UNL     1       3.085   5.979  -0.634  0.00  0.00    -0.076 S 
ATOM     11  C   UNL     1       1.709   4.864  -0.527  0.00  0.00    +0.116 A 
ATOM     12  N   UNL     1       0.396   5.018  -0.375  0.00  0.00    -0.229 NA
BRANCH   8  13
ATOM     13  C   UNL     1       4.495   2.327  -0.945  0.00  0.00    -0.017 A 
ATOM     14  C   UNL     1       4.292   1.293  -0.032  0.00  0.00    +0.008 A 
ATOM     15  C   UNL     1       4.987   0.109  -0.168  0.00  0.00    +0.001 A 
ATOM     16  C   UNL     1       5.894  -0.049  -1.201  0.00  0.00    +0.000 A 
ATOM     17  C   UNL     1       6.104   0.975  -2.106  0.00  0.00    +0.001 A 
ATOM     18  C   UNL     1       5.410   2.162  -1.984  0.00  0.00    +0.008 A 
ENDBRANCH   8  13
ENDBRANCH   1   2
BRANCH   1  19
ATOM     19  N   UNL     1      -2.161   5.641  -0.065  0.00  0.00    +0.390 N 
ATOM     20  H   UNL     1      -1.656   6.136  -0.907  0.00  0.00    -0.080 HD
BRANCH  19  21
ATOM     21  C   UNL     1      -3.601   5.908  -0.181  0.00  0.00    -0.038 C 
BRANCH  21  27
ATOM     22  C   UNL     1      -4.435   4.363  -1.972  0.00  0.00    +0.121 A 
ATOM     23  C   UNL     1      -4.846   4.120  -3.275  0.00  0.00    +0.046 A 
ATOM     24  C   UNL     1      -4.871   5.152  -4.193  0.00  0.00    +0.004 A 
ATOM     25  C   UNL     1      -4.485   6.425  -3.816  0.00  0.00    +0.000 A 
ATOM     26  C   UNL     1      -4.079   6.670  -2.517  0.00  0.00    +0.005 A 
ATOM     27  C   UNL     1      -4.048   5.641  -1.596  0.00  0.00    -0.022 A 
BRANCH  22  29
ATOM     28  C   UNL     1      -4.822   2.060  -1.524  0.00  0.00    +0.277 C 
ATOM     29  O   UNL     1      -4.410   3.350  -1.066  0.00  0.00    -0.495 OA
ENDBRANCH  22  29
ENDBRANCH  21  27
ENDBRANCH  19  21
BRANCH  19  30
ATOM     30  C   UNL     1      -1.621   6.204   1.180  0.00  0.00    -0.035 C 
BRANCH  30  31
ATOM     31  C   UNL     1      -1.561   7.705   1.068  0.00  0.00    -0.027 A 
ATOM     32  C   UNL     1      -2.447   8.630   1.510  0.00  0.00    +0.009 A 
ATOM     33  C   UNL     1      -2.181   9.970   1.296  0.00  0.00    +0.008 A 
ATOM     34  C   UNL     1      -1.047  10.318   0.641  0.00  0.00    +0.045 A 
ATOM     35  S   UNL     1      -0.308   8.727   0.311  0.00  0.00    -0.103 S 
ENDBRANCH  30  31
ENDBRANCH  19  30
ENDBRANCH   1  19
TORSDOF 8
