REMARK  Name = ZINC00098447
REMARK  6 active torsions:
REMARK  status: ('A' for Active; 'I' for Inactive)
REMARK    1  A    between atoms: C_1  and  C_2
REMARK    2  A    between atoms: C_3  and  C_13
REMARK    3  A    between atoms: C_6  and  O_11
REMARK    4  A    between atoms: O_11  and  C_12
REMARK    5  A    between atoms: C_13  and  C_15
REMARK    6  A    between atoms: C_16  and  N_24
REMARK                            x       y       z     vdW  Elec       q    Type
REMARK                         _______ _______ _______ _____ _____    ______ ____
ROOT
ATOM      1  C   UNL     1       4.373  -1.702  -0.057  0.00  0.00    +0.234 C 
ATOM      2  O   UNL     1       4.716  -2.237   0.984  0.00  0.00    -0.283 OA
ENDROOT
BRANCH   1   5
ATOM      3  C   UNL     1       5.993   0.960  -0.081  0.00  0.00    +0.087 C 
ATOM      4  C   UNL     1       4.492   0.833  -0.045  0.00  0.00    +0.114 A 
ATOM      5  C   UNL     1       3.807  -0.343  -0.035  0.00  0.00    +0.074 A 
ATOM      6  C   UNL     1       2.378   0.027   0.003  0.00  0.00    +0.035 A 
ATOM      7  C   UNL     1       1.190  -0.696   0.028  0.00  0.00    +0.058 A 
ATOM      8  C   UNL     1      -0.018  -0.023   0.062  0.00  0.00    +0.121 A 
ATOM      9  C   UNL     1      -0.042   1.368   0.071  0.00  0.00    +0.049 A 
ATOM     10  C   UNL     1       1.132   2.089   0.046  0.00  0.00    +0.050 A 
ATOM     11  C   UNL     1       2.354   1.429   0.012  0.00  0.00    +0.136 A 
ATOM     12  O   UNL     1       3.633   1.860  -0.017  0.00  0.00    -0.459 OA
BRANCH   8  13
ATOM     13  O   UNL     1      -1.184  -0.722   0.088  0.00  0.00    -0.495 OA
ATOM     14  C   UNL     1      -2.394   0.036   0.123  0.00  0.00    +0.277 C 
ENDBRANCH   8  13
ENDBRANCH   1   5
BRANCH   1  15
ATOM     15  C   UNL     1       4.520  -2.388  -1.288  0.00  0.00    +0.197 A 
ATOM     16  C   UNL     1       4.938  -3.696  -1.429  0.00  0.00    +0.082 A 
ATOM     17  C   UNL     1       4.932  -3.962  -2.873  0.00  0.00    +0.042 A 
ATOM     18  C   UNL     1       5.243  -5.076  -3.654  0.00  0.00    +0.013 A 
ATOM     19  C   UNL     1       5.137  -5.001  -5.015  0.00  0.00    +0.001 A 
ATOM     20  C   UNL     1       4.723  -3.824  -5.623  0.00  0.00    +0.004 A 
ATOM     21  C   UNL     1       4.412  -2.713  -4.868  0.00  0.00    +0.047 A 
ATOM     22  C   UNL     1       4.512  -2.767  -3.482  0.00  0.00    +0.138 A 
ATOM     23  O   UNL     1       4.279  -1.862  -2.511  0.00  0.00    -0.450 OA
BRANCH  16  24
ATOM     24  N   UNL     1       5.286  -4.577  -0.418  0.00  0.00    -0.354 N 
ATOM     25  H   UNL     1       5.250  -4.290   0.508  0.00  0.00    +0.142 HD
ATOM     26  H   UNL     1       5.567  -5.479  -0.636  0.00  0.00    +0.142 HD
ENDBRANCH  16  24
ENDBRANCH   1  15
TORSDOF 4
