REMARK  Name = ZINC02947952
REMARK  8 active torsions:
REMARK  status: ('A' for Active; 'I' for Inactive)
REMARK    1  A    between atoms: C_1  and  C_2
REMARK    2  A    between atoms: N_9  and  C_16
REMARK    3  A    between atoms: C_16  and  C_18
REMARK    4  A    between atoms: C_16  and  C_19
REMARK    5  A    between atoms: N_21  and  C_22
REMARK    6  A    between atoms: C_25  and  C_28
REMARK    7  A    between atoms: C_28  and  C_29
REMARK    8  A    between atoms: C_28  and  C_30
REMARK                            x       y       z     vdW  Elec       q    Type
REMARK                         _______ _______ _______ _____ _____    ______ ____
ROOT
ATOM      1  C   UNL     1       2.490  -6.155   1.968  0.00  0.00    +0.066 C 
ATOM      2  C   UNL     1       3.916  -6.356   1.524  0.00  0.00    +0.045 A 
ATOM      3  C   UNL     1       4.761  -7.101   2.269  0.00  0.00    +0.095 A 
ATOM      4  C   UNL     1       6.096  -7.273   1.826  0.00  0.00    +0.274 A 
ATOM      5  O   UNL     1       6.881  -7.942   2.482  0.00  0.00    -0.266 OA
ATOM      6  N   UNL     1       6.491  -6.697   0.683  0.00  0.00    -0.189 NA
ATOM      7  C   UNL     1       5.653  -5.973  -0.033  0.00  0.00    +0.166 A 
ATOM      8  N   UNL     1       4.362  -5.787   0.366  0.00  0.00    -0.237 N 
ATOM      9  N   UNL     1       3.706  -4.984  -0.576  0.00  0.00    -0.266 N 
ATOM     10  C   UNL     1       4.583  -4.652  -1.597  0.00  0.00    +0.070 A 
ATOM     11  C   UNL     1       5.823  -5.242  -1.303  0.00  0.00    +0.044 A 
ATOM     12  C   UNL     1       6.900  -5.067  -2.168  0.00  0.00    +0.014 A 
ATOM     13  C   UNL     1       6.740  -4.321  -3.317  0.00  0.00    +0.001 A 
ATOM     14  C   UNL     1       5.518  -3.736  -3.606  0.00  0.00    +0.002 A 
ATOM     15  C   UNL     1       4.443  -3.898  -2.754  0.00  0.00    +0.028 A 
ENDROOT
BRANCH   9  16
ATOM     16  C   UNL     1       2.304  -4.564  -0.497  0.00  0.00    +0.189 C 
ATOM     17  C   UNL     1       1.591  -4.919  -1.803  0.00  0.00    +0.042 C 
BRANCH  16  18
ATOM     18  C   UNL     1       2.238  -3.075  -0.278  0.00  0.00    +0.241 C 
ATOM     19  O   UNL     1       3.261  -2.428  -0.195  0.00  0.00    -0.273 OA
ATOM     20  N   UNL     1       1.043  -2.461  -0.173  0.00  0.00    -0.284 N 
ATOM     21  H   UNL     1       0.227  -2.986  -0.176  0.00  0.00    +0.155 HD
BRANCH  20  22
ATOM     22  C   UNL     1       0.979  -1.068  -0.059  0.00  0.00    +0.033 A 
ATOM     23  C   UNL     1      -0.063  -0.369  -0.655  0.00  0.00    +0.023 A 
ATOM     24  C   UNL     1      -0.124   1.006  -0.540  0.00  0.00    +0.006 A 
ATOM     25  C   UNL     1       0.851   1.687   0.167  0.00  0.00    -0.045 A 
ATOM     26  C   UNL     1       1.889   0.993   0.761  0.00  0.00    +0.006 A 
ATOM     27  C   UNL     1       1.956  -0.382   0.650  0.00  0.00    +0.023 A 
BRANCH  25  28
ATOM     28  C   UNL     1       0.782   3.187   0.290  0.00  0.00    +0.013 C 
ATOM     29  C   UNL     1       0.688   3.574   1.767  0.00  0.00    +0.012 C 
ATOM     30  C   UNL     1       2.040   3.807  -0.321  0.00  0.00    +0.012 C 
ENDBRANCH  25  28
ENDBRANCH  20  22
ENDBRANCH  16  18
ENDBRANCH   9  16
TORSDOF 4
