REMARK  Name = ZINC63731394
REMARK  11 active torsions:
REMARK  status: ('A' for Active; 'I' for Inactive)
REMARK    1  A    between atoms: C_1  and  C_2
REMARK    2  A    between atoms: C_2  and  C_3
REMARK    3  A    between atoms: C_2  and  C_4
REMARK    4  A    between atoms: C_2  and  C_5
REMARK    5  A    between atoms: C_8  and  N_18
REMARK    6  A    between atoms: N_10  and  C_12
REMARK    7  A    between atoms: C_19  and  C_21
REMARK    8  A    between atoms: C_21  and  O_22
REMARK    9  A    between atoms: O_22  and  C_23
REMARK   10  A    between atoms: C_23  and  C_25
REMARK   11  A    between atoms: C_25  and  C_26
REMARK                            x       y       z     vdW  Elec       q    Type
REMARK                         _______ _______ _______ _____ _____    ______ ____
ROOT
ATOM      1  N   UNL     1       3.375  -3.012  -1.225  0.00  0.00    -0.293 N 
ATOM      2  C   UNL     1       4.041  -3.995  -1.862  0.00  0.00    +0.252 C 
ATOM      3  O   UNL     1       3.849  -4.191  -3.044  0.00  0.00    -0.272 OA
ATOM      4  H   UNL     1       3.577  -2.811  -0.298  0.00  0.00    +0.151 HD
ENDROOT
BRANCH   1   7
ATOM      5  C   UNL     1       0.674  -0.643  -1.324  0.00  0.00    +0.082 C 
ATOM      6  C   UNL     1       1.075  -2.120  -1.060  0.00  0.00    +0.064 C 
ATOM      7  C   UNL     1       2.347  -2.245  -1.933  0.00  0.00    +0.178 C 
ATOM      8  N   UNL     1       2.804  -0.865  -2.160  0.00  0.00    -0.246 N 
ATOM      9  N   UNL     1       1.999   0.010  -1.475  0.00  0.00    -0.235 NA
ATOM     10  H   UNL     1       1.916   0.887  -1.968  0.00  0.00    +0.145 HD
BRANCH   8  11
ATOM     11  C   UNL     1       3.893  -0.500  -2.954  0.00  0.00    +0.046 A 
ATOM     12  C   UNL     1       4.403  -1.391  -3.889  0.00  0.00    +0.024 A 
ATOM     13  C   UNL     1       5.480  -1.027  -4.673  0.00  0.00    +0.002 A 
ATOM     14  C   UNL     1       6.052   0.224  -4.527  0.00  0.00    +0.000 A 
ATOM     15  C   UNL     1       5.547   1.114  -3.597  0.00  0.00    +0.002 A 
ATOM     16  C   UNL     1       4.466   0.758  -2.814  0.00  0.00    +0.024 A 
ENDBRANCH   8  11
BRANCH   5  18
ATOM     17  C   UNL     1      -0.401   1.412  -0.397  0.00  0.00    +0.012 C 
ATOM     18  C   UNL     1      -0.090  -0.062  -0.133  0.00  0.00    -0.021 C 
ATOM     19  C   UNL     1       0.764  -0.185   1.130  0.00  0.00    +0.012 C 
ATOM     20  C   UNL     1      -1.398  -0.833   0.059  0.00  0.00    +0.012 C 
ENDBRANCH   5  18
ENDBRANCH   1   7
BRANCH   2  21
ATOM     21  C   UNL     1       5.023  -4.853  -1.106  0.00  0.00    +0.327 C 
BRANCH  21  22
ATOM     22  O   UNL     1       5.595  -5.816  -1.993  0.00  0.00    -0.455 OA
BRANCH  22  23
ATOM     23  C   UNL     1       6.497  -6.664  -1.472  0.00  0.00    +0.312 C 
ATOM     24  O   UNL     1       6.790  -6.590  -0.303  0.00  0.00    -0.250 OA
BRANCH  23  25
ATOM     25  C   UNL     1       7.142  -7.708  -2.347  0.00  0.00    +0.153 C 
BRANCH  25  26
ATOM     26  C   UNL     1       8.108  -8.523  -1.526  0.00  0.00    -0.031 C 
ATOM     27  C   UNL     1       7.863  -9.708  -0.921  0.00  0.00    -0.001 A 
ATOM     28  C   UNL     1       6.669 -10.559  -0.849  0.00  0.00    +0.010 A 
ATOM     29  C   UNL     1       6.729 -11.716  -0.151  0.00  0.00    +0.001 A 
ATOM     30  C   UNL     1       7.901 -12.121   0.503  0.00  0.00    +0.002 A 
ATOM     31  C   UNL     1       9.037 -11.393   0.482  0.00  0.00    +0.026 A 
ATOM     32  C   UNL     1       9.087 -10.159  -0.222  0.00  0.00    +0.043 A 
ATOM     33  N   UNL     1      10.052  -9.287  -0.387  0.00  0.00    -0.380 N 
ATOM     34  C   UNL     1       9.549  -8.185  -1.217  0.00  0.00    +0.145 C 
ATOM     35  H   UNL     1      10.948  -9.359  -0.025  0.00  0.00    +0.160 HD
ENDBRANCH  25  26
ENDBRANCH  23  25
ENDBRANCH  22  23
ENDBRANCH  21  22
ENDBRANCH   2  21
TORSDOF 8
