REMARK  Name = ZINC03486490
REMARK  9 active torsions:
REMARK  status: ('A' for Active; 'I' for Inactive)
REMARK    1  A    between atoms: C_1  and  C_2
REMARK    2  A    between atoms: C_2  and  C_3
REMARK    3  A    between atoms: C_3  and  C_4
REMARK    4  A    between atoms: C_4  and  N_5
REMARK    5  A    between atoms: C_6  and  N_27
REMARK    6  A    between atoms: C_7  and  N_14
REMARK    7  A    between atoms: N_14  and  C_15
REMARK    8  A    between atoms: C_15  and  C_16
REMARK    9  A    between atoms: C_17  and  C_19
REMARK                            x       y       z     vdW  Elec       q    Type
REMARK                         _______ _______ _______ _____ _____    ______ ____
ROOT
ATOM      1  N   UNL     1       3.053  -2.075  -3.704  0.00  0.00    -0.280 N 
ATOM      2  C   UNL     1       1.980  -2.298  -4.535  0.00  0.00    +0.127 A 
ATOM      3  C   UNL     1       2.123  -3.164  -5.601  0.00  0.00    +0.140 A 
ATOM      4  C   UNL     1       3.365  -3.793  -5.804  0.00  0.00    +0.277 A 
ATOM      5  O   UNL     1       3.519  -4.562  -6.738  0.00  0.00    -0.266 OA
ATOM      6  N   UNL     1       4.384  -3.540  -4.959  0.00  0.00    -0.273 N 
ATOM      7  H   UNL     1       5.241  -3.973  -5.098  0.00  0.00    +0.173 HD
ATOM      8  C   UNL     1       4.229  -2.690  -3.929  0.00  0.00    +0.331 A 
ATOM      9  O   UNL     1       5.166  -2.475  -3.185  0.00  0.00    -0.246 OA
ENDROOT
BRANCH   3  10
ATOM     10  N   UNL     1       1.042  -3.413  -6.471  0.00  0.00    -0.260 N 
ATOM     11  C   UNL     1       0.547  -4.662  -6.590  0.00  0.00    +0.252 C 
ATOM     12  O   UNL     1      -0.441  -4.862  -7.271  0.00  0.00    -0.270 OA
BRANCH  11  13
ATOM     13  C   UNL     1       1.205  -5.787  -5.895  0.00  0.00    +0.057 A 
ATOM     14  C   UNL     1       1.833  -5.580  -4.665  0.00  0.00    +0.029 A 
ATOM     15  C   UNL     1       2.446  -6.635  -4.021  0.00  0.00    +0.019 A 
ATOM     16  C   UNL     1       2.438  -7.897  -4.591  0.00  0.00    +0.017 A 
ATOM     17  C   UNL     1       1.818  -8.110  -5.808  0.00  0.00    +0.022 A 
ATOM     18  C   UNL     1       1.196  -7.064  -6.461  0.00  0.00    +0.053 A 
ATOM     19 CL   UNL     1       0.411  -7.334  -7.986  0.00  0.00    -0.083 Cl
ATOM     20 BR   UNL     1       3.298  -6.357  -2.356  0.00  0.00    -0.050 Br
ENDBRANCH  11  13
BRANCH  10  21
ATOM     21  C   UNL     1       0.456  -2.316  -7.246  0.00  0.00    +0.111 C 
ATOM     22  C   UNL     1       1.078  -2.291  -8.644  0.00  0.00    +0.025 C 
ENDBRANCH  10  21
ENDBRANCH   3  10
BRANCH   2  23
ATOM     23  N   UNL     1       0.781  -1.667  -4.308  0.00  0.00    -0.343 N 
ATOM     24  H   UNL     1       0.672  -1.100  -3.528  0.00  0.00    +0.144 HD
ATOM     25  H   UNL     1       0.044  -1.789  -4.926  0.00  0.00    +0.144 HD
ENDBRANCH   2  23
BRANCH   1  26
ATOM     26  C   UNL     1       2.917  -1.159  -2.569  0.00  0.00    +0.128 C 
BRANCH  26  27
ATOM     27  C   UNL     1       3.283   0.259  -3.012  0.00  0.00    +0.021 C 
BRANCH  27  29
ATOM     28  C   UNL     1       3.506   2.634  -2.270  0.00  0.00    +0.004 C 
ATOM     29  C   UNL     1       3.140   1.216  -1.827  0.00  0.00    -0.002 C 
ENDBRANCH  27  29
ENDBRANCH  26  27
ENDBRANCH   1  26
TORSDOF 7
