REMARK  Name = ZINC09358196
REMARK  5 active torsions:
REMARK  status: ('A' for Active; 'I' for Inactive)
REMARK    1  A    between atoms: C_1  and  N_49
REMARK    2  A    between atoms: C_14  and  C_16
REMARK    3  A    between atoms: C_17  and  O_31
REMARK    4  A    between atoms: C_19  and  O_30
REMARK    5  A    between atoms: N_20  and  C_23
REMARK                            x       y       z     vdW  Elec       q    Type
REMARK                         _______ _______ _______ _____ _____    ______ ____
ROOT
ATOM      1  C   UNL     1       2.123   1.370  -0.668  0.00  0.00    +0.071 A 
ATOM      2  C   UNL     1       1.134   2.018   0.051  0.00  0.00    +0.224 A 
ATOM      3  N   UNL     1       0.211   1.304   0.704  0.00  0.00    -0.161 NA
ATOM      4  C   UNL     1       0.223  -0.010   0.678  0.00  0.00    +0.306 A 
ATOM      5  N   UNL     1       1.173  -0.697  -0.013  0.00  0.00    -0.231 N 
ATOM      6  C   UNL     1       2.130  -0.030  -0.692  0.00  0.00    +0.267 A 
ATOM      7  O   UNL     1       2.987  -0.636  -1.315  0.00  0.00    -0.267 OA
ENDROOT
BRANCH   1  21
ATOM      8  C   UNL     1       4.752   2.001   0.421  0.00  0.00    -0.095 C 
ATOM      9  C   UNL     1       5.560   2.298  -1.843  0.00  0.00    -0.073 C 
ATOM     10  C   UNL     1       5.509   1.663  -3.240  0.00  0.00    +0.019 C 
ATOM     11  C   UNL     1       4.078   1.698  -3.715  0.00  0.00    -0.022 A 
ATOM     12  C   UNL     1       3.551   1.519  -5.049  0.00  0.00    +0.003 A 
ATOM     13  C   UNL     1       4.156   1.261  -6.284  0.00  0.00    +0.010 A 
ATOM     14  C   UNL     1       3.326   1.149  -7.371  0.00  0.00    +0.001 A 
ATOM     15  C   UNL     1       1.951   1.283  -7.264  0.00  0.00    +0.002 A 
ATOM     16  C   UNL     1       1.325   1.537  -6.056  0.00  0.00    +0.026 A 
ATOM     17  C   UNL     1       2.143   1.656  -4.934  0.00  0.00    +0.047 A 
ATOM     18  N   UNL     1       1.864   1.899  -3.620  0.00  0.00    -0.359 N 
ATOM     19  H   UNL     1       0.976   2.034  -3.254  0.00  0.00    +0.166 HD
ATOM     20  C   UNL     1       3.025   1.922  -2.896  0.00  0.00    +0.011 A 
ATOM     21  C   UNL     1       3.172   2.156  -1.411  0.00  0.00    +0.021 C 
ATOM     22  N   UNL     1       4.512   1.676  -1.001  0.00  0.00    +0.387 N 
ATOM     23  H   UNL     1       4.551   0.657  -1.121  0.00  0.00    -0.081 HD
ENDBRANCH   1  21
BRANCH   5  24
ATOM     24  C   UNL     1       1.157  -2.098  -0.020  0.00  0.00    +0.056 A 
ATOM     25  C   UNL     1       0.451  -2.780  -1.002  0.00  0.00    +0.026 A 
ATOM     26  C   UNL     1       0.437  -4.161  -1.007  0.00  0.00    +0.003 A 
ATOM     27  C   UNL     1       1.127  -4.865  -0.037  0.00  0.00    +0.020 A 
ATOM     28  C   UNL     1       1.832  -4.188   0.943  0.00  0.00    +0.043 A 
ATOM     29  C   UNL     1       1.853  -2.806   0.950  0.00  0.00    +0.046 A 
ATOM     30 CL   UNL     1       2.696  -5.076   2.159  0.00  0.00    -0.083 Cl
ENDBRANCH   5  24
BRANCH   4  31
ATOM     31  O   UNL     1      -0.727  -0.692   1.351  0.00  0.00    -0.479 OA
ATOM     32  H   UNL     1      -1.385  -0.171   1.830  0.00  0.00    +0.295 HD
ENDBRANCH   4  31
BRANCH   2  33
ATOM     33  O   UNL     1       1.100   3.370   0.093  0.00  0.00    -0.492 OA
ATOM     34  H   UNL     1       0.373   3.730   0.619  0.00  0.00    +0.294 HD
ENDBRANCH   2  33
TORSDOF 4
