REMARK  Name = ZINC00531507
REMARK  4 active torsions:
REMARK  status: ('A' for Active; 'I' for Inactive)
REMARK    1  A    between atoms: C_1  and  C_2
REMARK    2  A    between atoms: C_2  and  C_3
REMARK    3  A    between atoms: C_6  and  C_9
REMARK    4  A    between atoms: C_12  and  C_21
REMARK                            x       y       z     vdW  Elec       q    Type
REMARK                         _______ _______ _______ _____ _____    ______ ____
ROOT
ATOM      1  C   UNL     1       2.707  -1.868  -4.752  0.00  0.00    +0.106 C 
ATOM      2  C   UNL     1       2.953  -3.377  -4.645  0.00  0.00    +0.058 C 
ATOM      3  C   UNL     1       3.622  -3.885  -5.928  0.00  0.00    +0.143 C 
ATOM      4  N   UNL     1       4.757  -3.018  -6.244  0.00  0.00    -0.224 N 
ATOM      5  C   UNL     1       4.924  -1.769  -5.749  0.00  0.00    +0.216 A 
ATOM      6  N   UNL     1       6.037  -1.285  -6.231  0.00  0.00    -0.180 NA
ATOM      7  C   UNL     1       6.606  -2.193  -7.038  0.00  0.00    +0.233 A 
ATOM      8  N   UNL     1       5.851  -3.268  -7.073  0.00  0.00    -0.132 NA
ATOM      9  N   UNL     1       7.806  -2.022  -7.730  0.00  0.00    -0.326 N 
ATOM     10  N   UNL     1       4.007  -1.183  -4.884  0.00  0.00    -0.307 N 
ATOM     11  H   UNL     1       8.301  -1.192  -7.646  0.00  0.00    +0.145 HD
ATOM     12  H   UNL     1       8.146  -2.734  -8.295  0.00  0.00    +0.145 HD
ATOM     13  H   UNL     1       4.211  -0.372  -4.392  0.00  0.00    +0.149 HD
ENDROOT
BRANCH   3  14
ATOM     14  C   UNL     1       4.104  -5.298  -5.721  0.00  0.00    -0.023 A 
ATOM     15  C   UNL     1       5.026  -5.575  -4.729  0.00  0.00    +0.008 A 
ATOM     16  C   UNL     1       5.468  -6.870  -4.537  0.00  0.00    +0.038 A 
ATOM     17  C   UNL     1       4.989  -7.891  -5.341  0.00  0.00    +0.123 A 
ATOM     18  C   UNL     1       4.066  -7.612  -6.335  0.00  0.00    +0.038 A 
ATOM     19  C   UNL     1       3.620  -6.317  -6.520  0.00  0.00    +0.008 A 
ATOM     20  F   UNL     1       5.421  -9.157  -5.155  0.00  0.00    -0.205 F 
ENDBRANCH   3  14
BRANCH   1  24
ATOM     21  C   UNL     1       0.707  -0.490  -1.238  0.00  0.00    -0.048 A 
ATOM     22  C   UNL     1      -0.011  -0.719  -2.397  0.00  0.00    +0.004 A 
ATOM     23  C   UNL     1       0.636  -1.164  -3.534  0.00  0.00    +0.006 A 
ATOM     24  C   UNL     1       2.002  -1.381  -3.513  0.00  0.00    -0.027 A 
ATOM     25  C   UNL     1       2.720  -1.152  -2.354  0.00  0.00    +0.006 A 
ATOM     26  C   UNL     1       2.073  -0.702  -1.218  0.00  0.00    +0.004 A 
BRANCH  21  28
ATOM     27  C   UNL     1      -0.019   1.526   0.010  0.00  0.00    +0.009 C 
ATOM     28  C   UNL     1       0.002  -0.004   0.002  0.00  0.00    +0.032 C 
ENDBRANCH  21  28
ENDBRANCH   1  24
TORSDOF 3
