REMARK  Name = ZINC21659047
REMARK  8 active torsions:
REMARK  status: ('A' for Active; 'I' for Inactive)
REMARK    1  A    between atoms: C_1  and  C_2
REMARK    2  A    between atoms: C_6  and  C_8
REMARK    3  A    between atoms: C_20  and  C_22
REMARK    4  A    between atoms: C_25  and  O_30
REMARK    5  A    between atoms: C_27  and  O_28
REMARK    6  A    between atoms: O_28  and  C_29
REMARK    7  A    between atoms: N_31  and  C_38
REMARK    8  A    between atoms: N_34  and  C_37
REMARK                            x       y       z     vdW  Elec       q    Type
REMARK                         _______ _______ _______ _____ _____    ______ ____
ROOT
ATOM      1  C   UNL     1      -2.198   2.941   3.519  0.00  0.00    +0.069 A 
ATOM      2  C   UNL     1      -3.045   1.875   3.343  0.00  0.00    +0.089 A 
ATOM      3  C   UNL     1      -2.732   1.302   2.009  0.00  0.00    +0.082 A 
ATOM      4  C   UNL     1      -1.751   2.035   1.503  0.00  0.00    +0.073 A 
ATOM      5  N   UNL     1      -1.429   3.042   2.401  0.00  0.00    -0.306 N 
ATOM      6  C   UNL     1      -0.447   3.998   2.102  0.00  0.00    +0.068 A 
ATOM      7  C   UNL     1       0.026   4.877   3.058  0.00  0.00    +0.028 A 
ATOM      8  C   UNL     1       1.006   5.794   2.722  0.00  0.00    +0.002 A 
ATOM      9  C   UNL     1       1.506   5.836   1.433  0.00  0.00    +0.002 A 
ATOM     10  C   UNL     1       1.024   4.973   0.467  0.00  0.00    +0.025 A 
ATOM     11  C   UNL     1       0.036   4.056   0.791  0.00  0.00    +0.052 A 
ATOM     12  N   UNL     1      -0.499   3.213  -0.190  0.00  0.00    -0.330 N 
ATOM     13  C   UNL     1      -1.029   1.891   0.181  0.00  0.00    +0.154 C 
ATOM     14  N   UNL     1      -3.461   0.190   1.563  0.00  0.00    -0.294 N 
ATOM     15  C   UNL     1      -4.414  -0.297   2.389  0.00  0.00    +0.332 A 
ATOM     16  O   UNL     1      -5.047  -1.260   2.002  0.00  0.00    -0.246 OA
ATOM     17  N   UNL     1      -4.720   0.191   3.595  0.00  0.00    -0.263 N 
ATOM     18  C   UNL     1      -4.101   1.263   4.155  0.00  0.00    +0.266 A 
ATOM     19  O   UNL     1      -4.401   1.684   5.256  0.00  0.00    -0.267 OA
ATOM     20  C   UNL     1      -5.784  -0.467   4.356  0.00  0.00    +0.157 C 
ATOM     21  C   UNL     1      -3.200  -0.419   0.257  0.00  0.00    +0.154 C 
ATOM     22  H   UNL     1      -0.523   3.540  -1.240  0.00  0.00    +0.147 HD
ENDROOT
BRANCH   1  28
ATOM     23  C   UNL     1      -2.492   7.489   5.547  0.00  0.00    +0.044 C 
ATOM     24  C   UNL     1      -2.274   6.005   5.686  0.00  0.00    -0.050 A 
ATOM     25  C   UNL     1      -2.012   5.460   6.931  0.00  0.00    +0.003 A 
ATOM     26  C   UNL     1      -1.810   4.098   7.069  0.00  0.00    +0.001 A 
ATOM     27  C   UNL     1      -1.874   3.273   5.965  0.00  0.00    +0.010 A 
ATOM     28  C   UNL     1      -2.133   3.817   4.705  0.00  0.00    -0.000 A 
ATOM     29  C   UNL     1      -2.336   5.193   4.574  0.00  0.00    +0.013 A 
ENDBRANCH   1  28
BRANCH  13  30
ATOM     30  C   UNL     1       0.105   0.909   0.324  0.00  0.00    +0.020 A 
ATOM     31  C   UNL     1       0.558   0.555   1.581  0.00  0.00    +0.013 A 
ATOM     32  C   UNL     1       1.601  -0.341   1.714  0.00  0.00    +0.046 A 
ATOM     33  C   UNL     1       2.197  -0.887   0.587  0.00  0.00    +0.120 A 
ATOM     34  C   UNL     1       1.745  -0.534  -0.675  0.00  0.00    +0.091 A 
ATOM     35  C   UNL     1       0.698   0.365  -0.807  0.00  0.00    +0.129 A 
BRANCH  35  36
ATOM     36  O   UNL     1       0.252   0.714  -2.043  0.00  0.00    -0.495 OA
ATOM     37  C   UNL     1       0.833   0.034  -3.157  0.00  0.00    +0.277 C 
ENDBRANCH  35  36
BRANCH  33  38
ATOM     38  O   UNL     1       3.223  -1.769   0.719  0.00  0.00    -0.507 OA
ATOM     39  H   UNL     1       3.695  -2.202  -0.175  0.00  0.00    +0.292 HD
ENDBRANCH  33  38
ENDBRANCH  13  30
TORSDOF 4
