REMARK  Name = ZINC40168740
REMARK  8 active torsions:
REMARK  status: ('A' for Active; 'I' for Inactive)
REMARK    1  A    between atoms: C_1  and  C_2
REMARK    2  A    between atoms: C_2  and  C_3
REMARK    3  A    between atoms: C_3  and  C_5
REMARK    4  A    between atoms: C_3  and  O_19
REMARK    5  A    between atoms: N_7  and  C_8
REMARK    6  A    between atoms: C_9  and  C_17
REMARK    7  A    between atoms: O_19  and  C_20
REMARK    8  A    between atoms: C_30  and  C_31
REMARK                            x       y       z     vdW  Elec       q    Type
REMARK                         _______ _______ _______ _____ _____    ______ ____
ROOT
ATOM      1  O   UNL     1       0.128   0.185  -2.094  0.00  0.00    -0.472 OA
ENDROOT
BRANCH   1   2
ATOM      2  C   UNL     1       0.329   1.299  -2.849  0.00  0.00    +0.212 A 
ATOM      3  C   UNL     1       1.585   1.527  -3.467  0.00  0.00    +0.235 A 
ATOM      4  O   UNL     1       2.507   0.738  -3.340  0.00  0.00    -0.283 OA
ATOM      5  C   UNL     1       1.732   2.755  -4.271  0.00  0.00    +0.068 A 
ATOM      6  C   UNL     1       2.931   3.060  -4.915  0.00  0.00    +0.015 A 
ATOM      7  C   UNL     1       3.029   4.217  -5.657  0.00  0.00    +0.001 A 
ATOM      8  C   UNL     1       1.942   5.074  -5.764  0.00  0.00    +0.004 A 
ATOM      9  C   UNL     1       0.752   4.784  -5.131  0.00  0.00    +0.047 A 
ATOM     10  C   UNL     1       0.632   3.622  -4.379  0.00  0.00    +0.140 A 
ATOM     11  O   UNL     1      -0.524   3.320  -3.754  0.00  0.00    -0.451 OA
ATOM     12  C   UNL     1      -0.677   2.203  -3.022  0.00  0.00    +0.181 A 
BRANCH  12  13
ATOM     13  C   UNL     1      -1.979   1.949  -2.378  0.00  0.00    +0.021 A 
ATOM     14  C   UNL     1      -2.631   2.972  -1.685  0.00  0.00    +0.013 A 
ATOM     15  C   UNL     1      -3.848   2.727  -1.085  0.00  0.00    +0.021 A 
ATOM     16  C   UNL     1      -4.425   1.471  -1.169  0.00  0.00    +0.041 A 
ATOM     17  C   UNL     1      -3.784   0.452  -1.854  0.00  0.00    +0.021 A 
ATOM     18  C   UNL     1      -2.569   0.685  -2.463  0.00  0.00    +0.013 A 
ATOM     19 CL   UNL     1      -5.958   1.171  -0.411  0.00  0.00    -0.084 Cl
ENDBRANCH  12  13
ENDBRANCH   1   2
BRANCH   1  20
ATOM     20  C   UNL     1       0.959   0.023  -0.943  0.00  0.00    +0.259 C 
BRANCH  20  21
ATOM     21  C   UNL     1       1.224  -1.444  -0.718  0.00  0.00    +0.258 C 
ATOM     22  O   UNL     1       0.651  -2.274  -1.392  0.00  0.00    -0.271 OA
ATOM     23  N   UNL     1       2.097  -1.832   0.232  0.00  0.00    -0.276 N 
ATOM     24  H   UNL     1       2.497  -1.174   0.822  0.00  0.00    +0.155 HD
BRANCH  23  25
ATOM     25  C   UNL     1       2.425  -3.175   0.366  0.00  0.00    +0.090 A 
ATOM     26  C   UNL     1       3.290  -3.753   1.280  0.00  0.00    +0.084 A 
ATOM     27  C   UNL     1       3.462  -5.193   1.214  0.00  0.00    -0.018 A 
ATOM     28  C   UNL     1       2.736  -5.792   0.244  0.00  0.00    -0.004 A 
ATOM     29  S   UNL     1       1.856  -4.471  -0.537  0.00  0.00    -0.077 S 
ATOM     30  C   UNL     1       2.698  -7.254  -0.078  0.00  0.00    +0.043 C 
ATOM     31  C   UNL     1       3.892  -7.930   0.611  0.00  0.00    +0.005 C 
ATOM     32  C   UNL     1       3.950  -7.468   2.070  0.00  0.00    +0.005 C 
ATOM     33  C   UNL     1       4.367  -5.998   2.135  0.00  0.00    +0.037 C 
BRANCH  26  34
ATOM     34  C   UNL     1       3.986  -2.963   2.251  0.00  0.00    +0.102 C 
ATOM     35  N   UNL     1       4.539  -2.336   3.020  0.00  0.00    -0.191 NA
ENDBRANCH  26  34
ENDBRANCH  23  25
ENDBRANCH  20  21
BRANCH  20  37
ATOM     36  C   UNL     1       0.133   2.125   0.125  0.00  0.00    +0.008 C 
ATOM     37  C   UNL     1       0.254   0.608   0.282  0.00  0.00    +0.051 C 
ENDBRANCH  20  37
ENDBRANCH   1  20
TORSDOF 7
