REMARK  Name = ZINC20726543
REMARK  6 active torsions:
REMARK  status: ('A' for Active; 'I' for Inactive)
REMARK    1  A    between atoms: C_1  and  C_2
REMARK    2  A    between atoms: C_2  and  C_4
REMARK    3  A    between atoms: C_2  and  N_8
REMARK    4  A    between atoms: C_4  and  O_6
REMARK    5  A    between atoms: O_6  and  C_7
REMARK    6  A    between atoms: C_20  and  C_22
REMARK                            x       y       z     vdW  Elec       q    Type
REMARK                         _______ _______ _______ _____ _____    ______ ____
ROOT
ATOM      1  N   UNL     1      -1.601  -0.396   2.631  0.00  0.00    -0.286 N 
ATOM      2  C   UNL     1      -0.288  -0.578   2.389  0.00  0.00    +0.304 C 
ATOM      3  O   UNL     1       0.144  -0.461   1.258  0.00  0.00    -0.253 OA
ATOM      4  N   UNL     1       0.547  -0.889   3.400  0.00  0.00    -0.273 N 
ATOM      5  C   UNL     1       1.998  -0.974   3.181  0.00  0.00    +0.116 C 
ATOM      6  C   UNL     1       2.460  -2.417   3.420  0.00  0.00    +0.076 C 
ATOM      7  C   UNL     1       1.825  -2.928   4.689  0.00  0.00    +0.066 A 
ATOM      8  C   UNL     1       0.745  -2.372   5.279  0.00  0.00    +0.064 A 
ATOM      9  N   UNL     1       0.468  -3.108   6.388  0.00  0.00    -0.346 N 
ATOM     10  H   UNL     1      -0.255  -2.954   7.017  0.00  0.00    +0.167 HD
ATOM     11  C   UNL     1       1.391  -4.096   6.448  0.00  0.00    +0.197 A 
ATOM     12  N   UNL     1       2.199  -3.979   5.426  0.00  0.00    -0.240 NA
ATOM     13  C   UNL     1       0.028  -1.147   4.756  0.00  0.00    +0.156 C 
ATOM     14  H   UNL     1      -1.958  -0.559   3.518  0.00  0.00    +0.151 HD
ENDROOT
BRANCH  13  15
ATOM     15  C   UNL     1       0.309   0.036   5.647  0.00  0.00    -0.021 A 
ATOM     16  C   UNL     1       1.615   0.396   5.925  0.00  0.00    +0.007 A 
ATOM     17  C   UNL     1       1.873   1.482   6.741  0.00  0.00    +0.015 A 
ATOM     18  C   UNL     1       0.825   2.207   7.279  0.00  0.00    +0.018 A 
ATOM     19  C   UNL     1      -0.481   1.845   7.001  0.00  0.00    +0.015 A 
ATOM     20  C   UNL     1      -0.738   0.763   6.180  0.00  0.00    +0.007 A 
ATOM     21 BR   UNL     1       1.178   3.691   8.397  0.00  0.00    -0.050 Br
ENDBRANCH  13  15
BRANCH   1  23
ATOM     22  C   UNL     1      -2.957  -1.165   0.745  0.00  0.00    +0.040 C 
ATOM     23  C   UNL     1      -2.490   0.048   1.554  0.00  0.00    +0.180 C 
BRANCH  23  24
ATOM     24  C   UNL     1      -3.686   0.747   2.146  0.00  0.00    +0.327 C 
ATOM     25  O   UNL     1      -3.786   0.863   3.344  0.00  0.00    -0.249 OA
BRANCH  24  26
ATOM     26  O   UNL     1      -4.640   1.242   1.342  0.00  0.00    -0.467 OA
ATOM     27  C   UNL     1      -5.746   1.893   1.971  0.00  0.00    +0.280 C 
ENDBRANCH  24  26
ENDBRANCH  23  24
ENDBRANCH   1  23
TORSDOF 4
