REMARK  Name = ZINC03826691
REMARK  9 active torsions:
REMARK  status: ('A' for Active; 'I' for Inactive)
REMARK    1  A    between atoms: C_1  and  C_2
REMARK    2  A    between atoms: C_2  and  C_3
REMARK    3  A    between atoms: C_3  and  O_31
REMARK    4  A    between atoms: C_25  and  C_26
REMARK    5  A    between atoms: C_26  and  C_27
REMARK    6  A    between atoms: C_27  and  N_58
REMARK    7  A    between atoms: C_28  and  C_29
REMARK    8  A    between atoms: C_28  and  C_30
REMARK    9  A    between atoms: C_28  and  N_58
REMARK                            x       y       z     vdW  Elec       q    Type
REMARK                         _______ _______ _______ _____ _____    ______ ____
ROOT
ATOM      1  C   UNL     1       8.362   5.043  -0.030  0.00  0.00    +0.188 C 
ATOM      2  C   UNL     1       7.905   3.607  -0.059  0.00  0.00    +0.008 A 
ATOM      3  C   UNL     1       6.529   3.339  -0.045  0.00  0.00    +0.035 A 
ATOM      4  C   UNL     1       6.076   2.037  -0.045  0.00  0.00    +0.071 A 
ATOM      5  N   UNL     1       6.972   1.006  -0.056  0.00  0.00    -0.302 N 
ATOM      6  C   UNL     1       8.296   1.250  -0.069  0.00  0.00    +0.259 A 
ATOM      7  O   UNL     1       9.082   0.316  -0.069  0.00  0.00    -0.267 OA
ATOM      8  C   UNL     1       8.787   2.573  -0.081  0.00  0.00    +0.061 A 
ATOM      9  C   UNL     1      10.277   2.783  -0.123  0.00  0.00    +0.273 C 
ATOM     10  O   UNL     1      10.613   4.146   0.248  0.00  0.00    -0.457 OA
ATOM     11  C   UNL     1       9.843   5.096  -0.328  0.00  0.00    +0.344 C 
ATOM     12  O   UNL     1      10.315   5.946  -1.046  0.00  0.00    -0.247 OA
ATOM     13  C   UNL     1       6.230  -0.262  -0.051  0.00  0.00    +0.163 C 
ATOM     14  C   UNL     1       4.767   0.099  -0.038  0.00  0.00    +0.003 A 
ATOM     15  C   UNL     1       4.694   1.503  -0.034  0.00  0.00    +0.093 A 
ATOM     16  N   UNL     1       3.523   2.120  -0.021  0.00  0.00    -0.245 NA
ATOM     17  C   UNL     1       2.377   1.439  -0.013  0.00  0.00    +0.072 A 
ATOM     18  C   UNL     1       1.138   2.108   0.003  0.00  0.00    +0.028 A 
ATOM     19  C   UNL     1      -0.017   1.390   0.010  0.00  0.00    +0.002 A 
ATOM     20  C   UNL     1       0.002  -0.004   0.002  0.00  0.00    +0.001 A 
ATOM     21  C   UNL     1       1.181  -0.687  -0.012  0.00  0.00    +0.010 A 
ATOM     22  C   UNL     1       2.392   0.021  -0.019  0.00  0.00    +0.004 A 
ATOM     23  C   UNL     1       3.632  -0.650  -0.032  0.00  0.00    -0.033 A 
ENDROOT
BRANCH   1  25
ATOM     24  C   UNL     1       8.561   7.095   1.382  0.00  0.00    +0.007 C 
ATOM     25  C   UNL     1       8.097   5.637   1.355  0.00  0.00    +0.048 C 
ENDBRANCH   1  25
BRANCH   1  26
ATOM     26  O   UNL     1       7.649   5.791  -1.017  0.00  0.00    -0.373 OA
ATOM     27  H   UNL     1       7.893   6.726  -1.054  0.00  0.00    +0.211 HD
ENDBRANCH   1  26
BRANCH  23  28
ATOM     28  C   UNL     1       3.698  -2.156  -0.037  0.00  0.00    +0.017 C 
BRANCH  28  29
ATOM     29  C   UNL     1       3.708  -2.661  -1.481  0.00  0.00    -0.078 C 
BRANCH  29  30
ATOM     30  N   UNL     1       3.772  -4.134  -1.478  0.00  0.00    +0.381 N 
ATOM     31  H   UNL     1       2.954  -4.508  -0.984  0.00  0.00    -0.086 HD
ATOM     32  H   UNL     1       4.629  -4.435  -0.997  0.00  0.00    -0.086 HD
BRANCH  30  33
ATOM     33  C   UNL     1       3.784  -4.650  -2.860  0.00  0.00    -0.078 C 
ATOM     34  C   UNL     1       4.454  -6.025  -2.877  0.00  0.00    -0.014 C 
ATOM     35  C   UNL     1       2.346  -4.776  -3.369  0.00  0.00    -0.014 C 
ENDBRANCH  30  33
ENDBRANCH  29  30
ENDBRANCH  28  29
ENDBRANCH  23  28
TORSDOF 6
