REMARK  Name = ZINC33809950
REMARK  4 active torsions:
REMARK  status: ('A' for Active; 'I' for Inactive)
REMARK    1  A    between atoms: C_2  and  C_3
REMARK    2  A    between atoms: C_3  and  S_4
REMARK    3  A    between atoms: S_4  and  C_5
REMARK    4  A    between atoms: C_12  and  C_22
REMARK                            x       y       z     vdW  Elec       q    Type
REMARK                         _______ _______ _______ _____ _____    ______ ____
ROOT
ATOM      1  C   UNL     1      -1.554  -3.019  -3.554  0.00  0.00    +0.171 A 
ATOM      2  N   UNL     1      -1.230  -3.648  -2.389  0.00  0.00    -0.208 NA
ATOM      3  C   UNL     1      -1.145  -2.933  -1.223  0.00  0.00    +0.135 A 
ATOM      4  C   UNL     1      -1.384  -1.594  -1.244  0.00  0.00    +0.069 A 
ATOM      5  C   UNL     1      -1.721  -0.982  -2.470  0.00  0.00    +0.258 A 
ATOM      6  O   UNL     1      -1.948   0.219  -2.516  0.00  0.00    -0.267 OA
ATOM      7  N   UNL     1      -1.792  -1.724  -3.585  0.00  0.00    -0.302 N 
ATOM      8  C   UNL     1      -1.293  -0.775   0.010  0.00  0.00    +0.092 C 
ATOM      9  C   UNL     1      -1.341  -1.646   1.239  0.00  0.00    +0.024 C 
ATOM     10  C   UNL     1      -1.108  -2.973   1.160  0.00  0.00    +0.017 C 
ATOM     11  N   UNL     1      -0.822  -3.561  -0.043  0.00  0.00    -0.302 N 
ATOM     12  C   UNL     1      -1.159  -3.847   2.390  0.00  0.00    +0.051 C 
ATOM     13  C   UNL     1      -0.735  -3.033   3.615  0.00  0.00    +0.014 C 
ATOM     14  C   UNL     1      -1.675  -1.830   3.747  0.00  0.00    +0.080 C 
ATOM     15  C   UNL     1      -1.633  -1.034   2.471  0.00  0.00    +0.162 C 
ATOM     16  O   UNL     1      -1.854   0.160   2.506  0.00  0.00    -0.292 OA
ATOM     17  H   UNL     1      -0.329  -4.544  -0.059  0.00  0.00    +0.153 HD
ATOM     18  H   UNL     1      -2.054  -1.236  -4.536  0.00  0.00    +0.171 HD
ENDROOT
BRANCH   8  19
ATOM     19  C   UNL     1       0.002  -0.004   0.002  0.00  0.00    -0.032 A 
ATOM     20  C   UNL     1      -0.017   1.378   0.010  0.00  0.00    +0.005 A 
ATOM     21  C   UNL     1       1.170   2.087   0.002  0.00  0.00    +0.003 A 
ATOM     22  C   UNL     1       2.377   1.414  -0.013  0.00  0.00    +0.038 A 
ATOM     23  C   UNL     1       2.397   0.029  -0.021  0.00  0.00    +0.124 A 
ATOM     24  C   UNL     1       1.208  -0.679  -0.013  0.00  0.00    +0.043 A 
ATOM     25  F   UNL     1       3.577  -0.629  -0.036  0.00  0.00    -0.205 F 
ENDBRANCH   8  19
BRANCH   1  26
ATOM     26  S   UNL     1      -1.657  -3.955  -5.043  0.00  0.00    -0.084 S 
BRANCH  26  27
ATOM     27  C   UNL     1      -2.104  -2.644  -6.208  0.00  0.00    +0.104 C 
BRANCH  27  29
ATOM     28  C   UNL     1      -3.419  -3.226  -8.181  0.00  0.00    +0.005 C 
ATOM     29  C   UNL     1      -2.250  -3.227  -7.589  0.00  0.00    -0.023 C 
ENDBRANCH  27  29
ENDBRANCH  26  27
ENDBRANCH   1  26
TORSDOF 4
