REMARK  Name = ZINC58951847
REMARK  8 active torsions:
REMARK  status: ('A' for Active; 'I' for Inactive)
REMARK    1  A    between atoms: C_2  and  C_26
REMARK    2  A    between atoms: C_3  and  N_25
REMARK    3  A    between atoms: C_5  and  S_9
REMARK    4  A    between atoms: C_6  and  C_7
REMARK    5  A    between atoms: S_9  and  C_10
REMARK    6  A    between atoms: C_10  and  C_11
REMARK    7  A    between atoms: N_13  and  C_14
REMARK    8  A    between atoms: C_15  and  C_22
REMARK                            x       y       z     vdW  Elec       q    Type
REMARK                         _______ _______ _______ _____ _____    ______ ____
ROOT
ATOM      1  C   UNL     1       3.228  -4.330  -0.052  0.00  0.00    +0.228 C 
ATOM      2  O   UNL     1       2.257  -5.056  -0.047  0.00  0.00    -0.275 OA
ATOM      3  N   UNL     1       4.467  -4.862  -0.067  0.00  0.00    -0.279 N 
ATOM      4  H   UNL     1       5.244  -4.282  -0.071  0.00  0.00    +0.155 HD
ENDROOT
BRANCH   3   5
ATOM      5  C   UNL     1       4.630  -6.239  -0.076  0.00  0.00    +0.084 A 
ATOM      6  C   UNL     1       5.812  -6.956  -0.085  0.00  0.00    +0.068 A 
ATOM      7  C   UNL     1       5.712  -8.414  -0.093  0.00  0.00    -0.023 A 
ATOM      8  C   UNL     1       4.449  -8.877  -0.091  0.00  0.00    -0.004 A 
ATOM      9  S   UNL     1       3.437  -7.419  -0.070  0.00  0.00    -0.077 S 
ATOM     10  C   UNL     1       4.403 -10.381  -0.103  0.00  0.00    +0.043 C 
ATOM     11  C   UNL     1       5.819 -10.811  -0.546  0.00  0.00    +0.010 C 
ATOM     12  C   UNL     1       6.669  -9.604  -0.100  0.00  0.00    +0.037 C 
BRANCH   6  13
ATOM     13  C   UNL     1       7.113  -6.280  -0.088  0.00  0.00    +0.244 C 
ATOM     14  O   UNL     1       7.659  -6.005   0.965  0.00  0.00    -0.270 OA
ATOM     15  N   UNL     1       7.705  -5.963  -1.256  0.00  0.00    -0.325 N 
ATOM     16  H   UNL     1       7.271  -6.182  -2.096  0.00  0.00    +0.145 HD
ATOM     17  H   UNL     1       8.566  -5.516  -1.258  0.00  0.00    +0.145 HD
ENDBRANCH   6  13
ENDBRANCH   3   5
BRANCH   1  18
ATOM     18  C   UNL     1       3.051  -2.834  -0.042  0.00  0.00    +0.172 C 
BRANCH  18  19
ATOM     19  S   UNL     1       1.282  -2.434  -0.023  0.00  0.00    -0.095 S 
BRANCH  19  24
ATOM     20  C   UNL     1      -0.017   1.392   0.010  0.00  0.00    +0.043 A 
ATOM     21  C   UNL     1       1.204   2.072   0.002  0.00  0.00    +0.092 A 
ATOM     22  C   UNL     1       2.402   1.330  -0.014  0.00  0.00    +0.135 A 
ATOM     23  N   UNL     1       2.379   0.007  -0.021  0.00  0.00    -0.224 NA
ATOM     24  C   UNL     1       1.243  -0.673  -0.013  0.00  0.00    +0.117 A 
ATOM     25  C   UNL     1       0.002  -0.004   0.002  0.00  0.00    +0.085 A 
BRANCH  22  26
ATOM     26  N   UNL     1       3.613   1.991  -0.022  0.00  0.00    -0.342 N 
ATOM     27  H   UNL     1       3.636   2.961  -0.018  0.00  0.00    +0.144 HD
ATOM     28  H   UNL     1       4.441   1.486  -0.033  0.00  0.00    +0.144 HD
ENDBRANCH  22  26
BRANCH  25  29
ATOM     29  C   UNL     1      -1.222  -0.746   0.010  0.00  0.00    +0.102 C 
ATOM     30  N   UNL     1      -2.194  -1.335   0.017  0.00  0.00    -0.191 NA
ENDBRANCH  25  29
BRANCH  21  31
ATOM     31  C   UNL     1       1.238   3.503   0.009  0.00  0.00    +0.103 C 
ATOM     32  N   UNL     1       1.264   4.639   0.014  0.00  0.00    -0.191 NA
ENDBRANCH  21  31
ENDBRANCH  19  24
ENDBRANCH  18  19
ENDBRANCH   1  18
TORSDOF 8
