REMARK  Name = ZINC13499836
REMARK  7 active torsions:
REMARK  status: ('A' for Active; 'I' for Inactive)
REMARK    1  A    between atoms: C_1  and  C_2
REMARK    2  A    between atoms: C_2  and  C_3
REMARK    3  A    between atoms: C_11  and  C_15
REMARK    4  A    between atoms: C_18  and  S_21
REMARK    5  A    between atoms: S_21  and  C_22
REMARK    6  A    between atoms: C_22  and  C_23
REMARK    7  A    between atoms: C_29  and  C_31
REMARK                            x       y       z     vdW  Elec       q    Type
REMARK                         _______ _______ _______ _____ _____    ______ ____
ROOT
ATOM      1  C   UNL     1      -0.725   3.969   0.029  0.00  0.00    +0.118 A 
ATOM      2  N   UNL     1      -0.983   2.692   0.021  0.00  0.00    -0.226 NA
ATOM      3  C   UNL     1      -0.022   1.772   0.012  0.00  0.00    +0.114 A 
ATOM      4  C   UNL     1       1.340   2.108   0.001  0.00  0.00    +0.056 A 
ATOM      5  C   UNL     1       2.263   1.031  -0.015  0.00  0.00    -0.024 A 
ATOM      6  C   UNL     1       1.762  -0.225  -0.017  0.00  0.00    -0.004 A 
ATOM      7  S   UNL     1       0.002  -0.004   0.002  0.00  0.00    -0.073 S 
ATOM      8  C   UNL     1       2.527  -1.512  -0.030  0.00  0.00    +0.046 C 
ATOM      9  C   UNL     1       3.989  -1.209   0.326  0.00  0.00    -0.009 C 
ATOM     10  C   UNL     1       4.461  -0.016  -0.510  0.00  0.00    +0.008 C 
ATOM     11  C   UNL     1       3.772   1.262  -0.030  0.00  0.00    +0.037 C 
ATOM     12  C   UNL     1       4.857  -2.430   0.014  0.00  0.00    +0.008 C 
ATOM     13  C   UNL     1       1.621   3.560   0.006  0.00  0.00    +0.173 A 
ATOM     14  N   UNL     1       0.557   4.436   0.020  0.00  0.00    -0.257 N 
ATOM     15  C   UNL     1       1.114   5.684   0.022  0.00  0.00    +0.198 A 
ATOM     16  N   UNL     1       2.418   5.529   0.011  0.00  0.00    -0.122 NA
ATOM     17  N   UNL     1       2.718   4.276   0.002  0.00  0.00    -0.128 NA
ENDROOT
BRANCH   1  19
ATOM     18  C   UNL     1      -2.267   5.291  -1.394  0.00  0.00    +0.012 C 
ATOM     19  C   UNL     1      -1.868   4.951   0.044  0.00  0.00    +0.071 C 
ENDBRANCH   1  19
BRANCH  15  20
ATOM     20  S   UNL     1       0.244   7.217   0.036  0.00  0.00    -0.076 S 
BRANCH  20  21
ATOM     21  C   UNL     1       1.558   8.467   0.032  0.00  0.00    +0.173 C 
BRANCH  21  22
ATOM     22  C   UNL     1       0.943   9.843   0.044  0.00  0.00    +0.229 C 
ATOM     23  O   UNL     1      -0.264   9.967   0.053  0.00  0.00    -0.275 OA
ATOM     24  N   UNL     1       1.733  10.935   0.043  0.00  0.00    -0.263 N 
ATOM     25  C   UNL     1       1.165  12.204   0.053  0.00  0.00    +0.188 A 
ATOM     26  N   UNL     1      -0.109  12.557   0.065  0.00  0.00    -0.126 NA
ATOM     27  N   UNL     1      -0.466  13.768   0.074  0.00  0.00    -0.145 NA
ATOM     28  C   UNL     1       0.432  14.733   0.071  0.00  0.00    +0.101 A 
ATOM     29  S   UNL     1       1.936  13.763   0.062  0.00  0.00    -0.036 S 
ATOM     30  C   UNL     1       0.245  16.228   0.080  0.00  0.00    +0.075 C 
ATOM     31  H   UNL     1       2.698  10.835   0.035  0.00  0.00    +0.157 HD
ENDBRANCH  21  22
ENDBRANCH  20  21
ENDBRANCH  15  20
TORSDOF 4
