REMARK  Name = ZINC02694890
REMARK  11 active torsions:
REMARK  status: ('A' for Active; 'I' for Inactive)
REMARK    1  A    between atoms: C_1  and  C_2
REMARK    2  A    between atoms: C_3  and  C_35
REMARK    3  A    between atoms: C_7  and  N_34
REMARK    4  A    between atoms: C_9  and  S_11
REMARK    5  A    between atoms: S_11  and  C_12
REMARK    6  A    between atoms: C_12  and  C_13
REMARK    7  A    between atoms: C_16  and  S_24
REMARK    8  A    between atoms: N_17  and  C_18
REMARK    9  A    between atoms: S_24  and  C_25
REMARK   10  A    between atoms: C_25  and  C_26
REMARK   11  A    between atoms: C_27  and  C_28
REMARK                            x       y       z     vdW  Elec       q    Type
REMARK                         _______ _______ _______ _____ _____    ______ ____
ROOT
ATOM      1  C   UNL     1      -1.392   2.492   0.012  0.00  0.00    +0.149 A 
ATOM      2  N   UNL     1      -0.931   3.711   0.039  0.00  0.00    -0.132 NA
ATOM      3  N   UNL     1       0.353   3.699  -0.000  0.00  0.00    -0.122 NA
ATOM      4  C   UNL     1       0.788   2.462  -0.049  0.00  0.00    +0.196 A 
ATOM      5  N   UNL     1      -0.313   1.650  -0.038  0.00  0.00    -0.274 N 
ENDROOT
BRANCH   5   6
ATOM      6  C   UNL     1      -0.333   0.248  -0.077  0.00  0.00    +0.050 A 
ATOM      7  C   UNL     1      -0.888  -0.409  -1.167  0.00  0.00    +0.026 A 
ATOM      8  C   UNL     1      -0.902  -1.790  -1.205  0.00  0.00    +0.002 A 
ATOM      9  C   UNL     1      -0.374  -2.517  -0.154  0.00  0.00    +0.000 A 
ATOM     10  C   UNL     1       0.175  -1.865   0.934  0.00  0.00    +0.002 A 
ATOM     11  C   UNL     1       0.197  -0.485   0.976  0.00  0.00    +0.026 A 
ENDBRANCH   5   6
BRANCH   1  12
ATOM     12  C   UNL     1      -2.843   2.085   0.037  0.00  0.00    +0.154 C 
BRANCH  12  13
ATOM     13  S   UNL     1      -3.381   1.873   1.752  0.00  0.00    -0.078 S 
BRANCH  13  22
ATOM     14  C   UNL     1      -9.786   0.151  -0.263  0.00  0.00    +0.045 C 
ATOM     15  C   UNL     1      -9.060   0.307   1.049  0.00  0.00    -0.028 A 
ATOM     16  C   UNL     1      -9.697   0.088   2.207  0.00  0.00    -0.008 A 
ATOM     17  S   UNL     1      -8.444   0.396   3.438  0.00  0.00    -0.073 S 
ATOM     18  C   UNL     1      -7.097   0.811   2.362  0.00  0.00    +0.115 A 
ATOM     19  C   UNL     1      -7.660   0.698   1.072  0.00  0.00    +0.050 A 
ATOM     20  C   UNL     1      -6.779   0.984  -0.008  0.00  0.00    +0.129 A 
ATOM     21  N   UNL     1      -5.529   1.330   0.250  0.00  0.00    -0.207 NA
ATOM     22  C   UNL     1      -5.061   1.412   1.490  0.00  0.00    +0.191 A 
ATOM     23  N   UNL     1      -5.837   1.157   2.536  0.00  0.00    -0.215 NA
ATOM     24  C   UNL     1     -11.132  -0.321   2.419  0.00  0.00    +0.052 C 
BRANCH  20  25
ATOM     25  N   UNL     1      -7.226   0.905  -1.314  0.00  0.00    -0.343 N 
ATOM     26  H   UNL     1      -8.174   0.983  -1.508  0.00  0.00    +0.144 HD
ATOM     27  H   UNL     1      -6.593   0.771  -2.037  0.00  0.00    +0.144 HD
ENDBRANCH  20  25
ENDBRANCH  13  22
ENDBRANCH  12  13
ENDBRANCH   1  12
BRANCH   4  28
ATOM     28  S   UNL     1       2.471   1.944  -0.115  0.00  0.00    -0.082 S 
BRANCH  28  29
ATOM     29  C   UNL     1       3.296   3.555  -0.094  0.00  0.00    +0.104 C 
BRANCH  29  30
ATOM     30  C   UNL     1       4.789   3.355  -0.145  0.00  0.00    -0.015 C 
ATOM     31  C   UNL     1       5.479   3.778  -1.196  0.00  0.00    +0.004 C 
BRANCH  31  32
ATOM     32  C   UNL     1       6.943   3.582  -1.246  0.00  0.00    -0.025 A 
ATOM     33  C   UNL     1       7.603   2.958  -0.187  0.00  0.00    +0.008 A 
ATOM     34  C   UNL     1       8.969   2.772  -0.243  0.00  0.00    +0.001 A 
ATOM     35  C   UNL     1       9.686   3.215  -1.340  0.00  0.00    +0.000 A 
ATOM     36  C   UNL     1       9.038   3.840  -2.391  0.00  0.00    +0.001 A 
ATOM     37  C   UNL     1       7.672   4.026  -2.350  0.00  0.00    +0.008 A 
ENDBRANCH  31  32
ENDBRANCH  29  30
ENDBRANCH  28  29
ENDBRANCH   4  28
TORSDOF 9
