REMARK  Name = ZINC39909778
REMARK  3 active torsions:
REMARK  status: ('A' for Active; 'I' for Inactive)
REMARK    1  A    between atoms: C_1  and  C_2
REMARK    2  A    between atoms: N_4  and  N_5
REMARK    3  A    between atoms: C_9  and  C_10
REMARK                            x       y       z     vdW  Elec       q    Type
REMARK                         _______ _______ _______ _____ _____    ______ ____
ROOT
ATOM      1  N   UNL     1      -1.137  -2.095   0.002  0.00  0.00    -0.170 N 
ATOM      2  C   UNL     1      -1.433  -2.738  -1.115  0.00  0.00    +0.275 C 
ATOM      3  O   UNL     1      -1.721  -2.147  -2.138  0.00  0.00    -0.267 OA
ATOM      4  C   UNL     1      -1.393  -4.221  -1.053  0.00  0.00    +0.078 C 
ATOM      5  C   UNL     1      -1.648  -5.152  -2.041  0.00  0.00    +0.026 C 
ATOM      6  S   UNL     1      -0.922  -4.471   0.653  0.00  0.00    -0.060 S 
ATOM      7  C   UNL     1      -0.812  -2.754   1.131  0.00  0.00    +0.138 C 
ATOM      8  S   UNL     1      -0.396  -2.102   2.659  0.00  0.00    -0.026 S 
ENDROOT
BRANCH   5   9
ATOM      9  C   UNL     1      -1.550  -6.516  -1.758  0.00  0.00    -0.018 C 
ATOM     10  C   UNL     1      -1.768  -7.577  -2.636  0.00  0.00    +0.003 A 
ATOM     11  C   UNL     1      -2.132  -7.630  -3.998  0.00  0.00    +0.010 A 
ATOM     12  C   UNL     1      -2.277  -8.832  -4.611  0.00  0.00    +0.001 A 
ATOM     13  C   UNL     1      -2.074 -10.034  -3.925  0.00  0.00    +0.002 A 
ATOM     14  C   UNL     1      -1.723 -10.060  -2.618  0.00  0.00    +0.026 A 
ATOM     15  C   UNL     1      -1.552  -8.841  -1.907  0.00  0.00    +0.043 A 
ATOM     16  N   UNL     1      -1.221  -8.600  -0.658  0.00  0.00    -0.380 N 
ATOM     17  C   UNL     1      -1.179  -7.152  -0.437  0.00  0.00    +0.149 C 
ATOM     18  H   UNL     1      -1.030  -9.276   0.012  0.00  0.00    +0.160 HD
ENDBRANCH   5   9
BRANCH   1  22
ATOM     19  C   UNL     1      -0.018   1.503   0.010  0.00  0.00    +0.111 C 
ATOM     20  C   UNL     1       0.002  -0.004   0.002  0.00  0.00    +0.226 C 
ATOM     21  O   UNL     1       1.060  -0.596  -0.011  0.00  0.00    -0.275 OA
ATOM     22  N   UNL     1      -1.156  -0.694   0.009  0.00  0.00    -0.226 N 
ATOM     23  H   UNL     1      -2.002  -0.220   0.020  0.00  0.00    +0.173 HD
ENDBRANCH   1  22
TORSDOF 2
