REMARK  Name = ZINC08642450
REMARK  7 active torsions:
REMARK  status: ('A' for Active; 'I' for Inactive)
REMARK    1  A    between atoms: C_1  and  C_2
REMARK    2  A    between atoms: N_4  and  C_5
REMARK    3  A    between atoms: C_8  and  S_12
REMARK    4  A    between atoms: C_10  and  N_11
REMARK    5  A    between atoms: S_12  and  N_15
REMARK    6  A    between atoms: N_15  and  N_16
REMARK    7  A    between atoms: N_18  and  C_26
REMARK                            x       y       z     vdW  Elec       q    Type
REMARK                         _______ _______ _______ _____ _____    ______ ____
ROOT
ATOM      1  S   UNL     1      -4.065   8.779   0.090  0.00  0.00    +0.087 S 
ATOM      2  O   UNL     1      -3.415  10.033   0.244  0.00  0.00    -0.149 OA
ATOM      3  O   UNL     1      -4.926   8.498  -1.004  0.00  0.00    -0.149 OA
ENDROOT
BRANCH   1   7
ATOM      4  C   UNL     1      -6.489   8.112   3.862  0.00  0.00    +0.054 A 
ATOM      5  C   UNL     1      -5.388   8.954   3.881  0.00  0.00    +0.027 A 
ATOM      6  C   UNL     1      -4.651   9.155   2.728  0.00  0.00    +0.031 A 
ATOM      7  C   UNL     1      -5.009   8.518   1.554  0.00  0.00    +0.112 A 
ATOM      8  C   UNL     1      -6.109   7.681   1.525  0.00  0.00    +0.053 A 
ATOM      9  C   UNL     1      -6.850   7.470   2.678  0.00  0.00    +0.048 A 
BRANCH   4  13
ATOM     10  C   UNL     1      -7.410   7.569   7.474  0.00  0.00    +0.109 C 
ATOM     11  C   UNL     1      -6.623   7.889   6.229  0.00  0.00    +0.214 C 
ATOM     12  O   UNL     1      -5.437   8.129   6.307  0.00  0.00    -0.276 OA
ATOM     13  N   UNL     1      -7.237   7.908   5.029  0.00  0.00    -0.284 N 
ATOM     14  H   UNL     1      -8.197   7.780   4.974  0.00  0.00    +0.155 HD
ENDBRANCH   4  13
BRANCH   9  15
ATOM     15  N   UNL     1      -7.961   6.619   2.652  0.00  0.00    -0.356 N 
ATOM     16  H   UNL     1      -8.480   6.475   3.459  0.00  0.00    +0.142 HD
ATOM     17  H   UNL     1      -8.211   6.173   1.828  0.00  0.00    +0.142 HD
ENDBRANCH   9  15
ENDBRANCH   1   7
BRANCH   1  18
ATOM     18  N   UNL     1      -2.874   7.629   0.063  0.00  0.00    -0.134 N 
ATOM     19  H   UNL     1      -1.942   7.896   0.057  0.00  0.00    +0.197 HD
BRANCH  18  20
ATOM     20  N   UNL     1      -3.213   6.270   0.050  0.00  0.00    -0.141 NA
ATOM     21  C   UNL     1      -2.277   5.365   0.029  0.00  0.00    +0.192 A 
ATOM     22  N   UNL     1      -2.403   3.985   0.014  0.00  0.00    -0.321 N 
ATOM     23  C   UNL     1      -1.263   3.194  -0.007  0.00  0.00    +0.057 A 
ATOM     24  C   UNL     1      -1.202   1.791  -0.030  0.00  0.00    +0.027 A 
ATOM     25  C   UNL     1       0.008   1.136  -0.045  0.00  0.00    +0.002 A 
ATOM     26  C   UNL     1       1.201   1.836  -0.048  0.00  0.00    +0.001 A 
ATOM     27  C   UNL     1       1.171   3.221  -0.031  0.00  0.00    +0.017 A 
ATOM     28  C   UNL     1      -0.038   3.874  -0.011  0.00  0.00    +0.039 A 
ATOM     29  S   UNL     1      -0.506   5.588   0.014  0.00  0.00    -0.048 S 
ATOM     30  C   UNL     1      -3.730   3.365   0.020  0.00  0.00    +0.151 C 
ENDBRANCH  18  20
ENDBRANCH   1  18
TORSDOF 5
