REMARK  Name = ZINC35991739
REMARK  11 active torsions:
REMARK  status: ('A' for Active; 'I' for Inactive)
REMARK    1  A    between atoms: C_1  and  C_2
REMARK    2  A    between atoms: C_2  and  O_3
REMARK    3  A    between atoms: O_3  and  C_4
REMARK    4  A    between atoms: C_4  and  C_6
REMARK    5  A    between atoms: C_7  and  C_25
REMARK    6  A    between atoms: N_8  and  C_24
REMARK    7  A    between atoms: C_12  and  C_14
REMARK    8  A    between atoms: C_19  and  C_20
REMARK    9  A    between atoms: C_25  and  N_26
REMARK   10  A    between atoms: N_26  and  C_27
REMARK   11  A    between atoms: N_26  and  C_28
REMARK                            x       y       z     vdW  Elec       q    Type
REMARK                         _______ _______ _______ _____ _____    ______ ____
ROOT
ATOM      1  C   UNL     1      -3.155  -2.634   0.407  0.00  0.00    +0.076 C 
ATOM      2  C   UNL     1      -3.151  -3.966   0.183  0.00  0.00    +0.010 C 
ATOM      3  N   UNL     1      -4.275  -4.611  -0.249  0.00  0.00    -0.264 N 
ATOM      4  C   UNL     1      -5.442  -3.997  -0.481  0.00  0.00    +0.307 C 
ATOM      5  O   UNL     1      -6.388  -4.656  -0.864  0.00  0.00    -0.252 OA
ATOM      6  N   UNL     1      -5.601  -2.670  -0.302  0.00  0.00    -0.288 N 
ATOM      7  C   UNL     1      -4.449  -1.883   0.168  0.00  0.00    +0.144 C 
ATOM      8  C   UNL     1      -4.199  -6.057  -0.472  0.00  0.00    +0.139 C 
ATOM      9  H   UNL     1      -6.455  -2.245  -0.477  0.00  0.00    +0.151 HD
ENDROOT
BRANCH   7  10
ATOM     10  C   UNL     1      -4.838  -1.207   1.458  0.00  0.00    -0.011 A 
ATOM     11  C   UNL     1      -4.992  -1.954   2.611  0.00  0.00    +0.006 A 
ATOM     12  C   UNL     1      -5.349  -1.334   3.794  0.00  0.00    +0.000 A 
ATOM     13  C   UNL     1      -5.551   0.034   3.824  0.00  0.00    +0.001 A 
ATOM     14  C   UNL     1      -5.397   0.780   2.671  0.00  0.00    +0.013 A 
ATOM     15  C   UNL     1      -5.036   0.161   1.489  0.00  0.00    +0.060 A 
BRANCH  15  16
ATOM     16  C   UNL     1      -4.863   0.976   0.233  0.00  0.00    +0.418 C 
ATOM     17  F   UNL     1      -5.039   2.332   0.529  0.00  0.00    -0.166 F 
ATOM     18  F   UNL     1      -3.577   0.774  -0.280  0.00  0.00    -0.166 F 
ATOM     19  F   UNL     1      -5.811   0.579  -0.716  0.00  0.00    -0.166 F 
ENDBRANCH  15  16
ENDBRANCH   7  10
BRANCH   1  20
ATOM     20  C   UNL     1      -1.993  -1.965   0.854  0.00  0.00    +0.339 C 
ATOM     21  O   UNL     1      -0.998  -2.602   1.146  0.00  0.00    -0.245 OA
BRANCH  20  22
ATOM     22  O   UNL     1      -1.986  -0.619   0.958  0.00  0.00    -0.462 OA
BRANCH  22  24
ATOM     23  C   UNL     1      -0.962   1.502   1.499  0.00  0.00    +0.048 C 
ATOM     24  C   UNL     1      -0.747  -0.001   1.310  0.00  0.00    +0.229 C 
ENDBRANCH  22  24
ENDBRANCH  20  22
ENDBRANCH   1  20
BRANCH   2  25
ATOM     25  C   UNL     1      -1.887  -4.753   0.412  0.00  0.00    -0.026 C 
BRANCH  25  26
ATOM     26  N   UNL     1      -1.768  -5.083   1.839  0.00  0.00    +0.383 N 
ATOM     27  C   UNL     1      -2.892  -5.939   2.239  0.00  0.00    -0.095 C 
ATOM     28  H   UNL     1      -1.782  -4.233   2.383  0.00  0.00    -0.081 HD
BRANCH  26  29
ATOM     29  C   UNL     1      -0.503  -5.793   2.073  0.00  0.00    -0.068 C 
ATOM     30  C   UNL     1      -0.379  -6.136   3.559  0.00  0.00    -0.015 C 
ATOM     31  C   UNL     1       0.938  -6.876   3.803  0.00  0.00    -0.002 C 
ATOM     32  C   UNL     1       2.109  -5.984   3.386  0.00  0.00    -0.000 C 
ATOM     33  C   UNL     1       1.984  -5.640   1.901  0.00  0.00    -0.002 C 
ATOM     34  C   UNL     1       0.668  -4.900   1.657  0.00  0.00    -0.015 C 
ENDBRANCH  26  29
ENDBRANCH  25  26
ENDBRANCH   2  25
TORSDOF 8
