REMARK  Name = ZINC42974506
REMARK  7 active torsions:
REMARK  status: ('A' for Active; 'I' for Inactive)
REMARK    1  A    between atoms: C_1  and  C_2
REMARK    2  A    between atoms: C_7  and  S_9
REMARK    3  A    between atoms: S_9  and  C_10
REMARK    4  A    between atoms: C_10  and  C_12
REMARK    5  A    between atoms: C_10  and  C_19
REMARK    6  A    between atoms: C_19  and  C_21
REMARK    7  A    between atoms: C_19  and  N_22
REMARK                            x       y       z     vdW  Elec       q    Type
REMARK                         _______ _______ _______ _____ _____    ______ ____
ROOT
ATOM      1  C   UNL     1      -5.018   3.095  -3.824  0.00  0.00    +0.101 C 
ENDROOT
BRANCH   1   2
ATOM      2  C   UNL     1      -6.456   3.532  -3.714  0.00  0.00    -0.030 A 
ATOM      3  C   UNL     1      -7.408   2.658  -3.223  0.00  0.00    +0.005 A 
ATOM      4  C   UNL     1      -8.728   3.057  -3.121  0.00  0.00    +0.003 A 
ATOM      5  C   UNL     1      -9.097   4.331  -3.510  0.00  0.00    +0.038 A 
ATOM      6  C   UNL     1      -8.144   5.207  -4.002  0.00  0.00    +0.124 A 
ATOM      7  C   UNL     1      -6.822   4.808  -4.098  0.00  0.00    +0.043 A 
ATOM      8  F   UNL     1      -8.504   6.452  -4.383  0.00  0.00    -0.205 F 
ENDBRANCH   1   2
BRANCH   1   9
ATOM      9  C   UNL     1      -4.922   1.889  -4.760  0.00  0.00    +0.065 C 
ATOM     10  C   UNL     1      -5.336   2.304  -6.173  0.00  0.00    +0.025 C 
BRANCH   9  11
ATOM     11  N   UNL     1      -3.539   1.393  -4.780  0.00  0.00    -0.326 NA
ATOM     12  H   UNL     1      -2.918   2.073  -5.192  0.00  0.00    +0.119 HD
ATOM     13  H   UNL     1      -3.233   1.138  -3.853  0.00  0.00    +0.119 HD
ENDBRANCH   9  11
ENDBRANCH   1   9
BRANCH   1  14
ATOM     14  S   UNL     1      -4.397   2.638  -2.182  0.00  0.00    -0.076 S 
BRANCH  14  21
ATOM     15  C   UNL     1      -3.542   5.285   2.114  0.00  0.00    +0.066 C 
ATOM     16  C   UNL     1      -3.929   5.299   0.657  0.00  0.00    +0.046 A 
ATOM     17  C   UNL     1      -4.225   6.492   0.024  0.00  0.00    +0.095 A 
ATOM     18  C   UNL     1      -4.578   6.460  -1.325  0.00  0.00    +0.274 A 
ATOM     19  O   UNL     1      -4.875   7.605  -1.984  0.00  0.00    -0.266 OA
ATOM     20  N   UNL     1      -4.620   5.291  -1.953  0.00  0.00    -0.183 NA
ATOM     21  C   UNL     1      -4.330   4.168  -1.311  0.00  0.00    +0.192 A 
ATOM     22  N   UNL     1      -3.985   4.169  -0.031  0.00  0.00    -0.227 NA
ENDBRANCH  14  21
ENDBRANCH   1  14
TORSDOF 5
