REMARK  Name = ZINC26933598
REMARK  4 active torsions:
REMARK  status: ('A' for Active; 'I' for Inactive)
REMARK    1  A    between atoms: C_1  and  C_2
REMARK    2  A    between atoms: C_8  and  N_10
REMARK    3  A    between atoms: C_11  and  C_13
REMARK    4  A    between atoms: C_13  and  N_14
REMARK                            x       y       z     vdW  Elec       q    Type
REMARK                         _______ _______ _______ _____ _____    ______ ____
ROOT
ATOM      1  C   UNL     1      -1.214   3.626   0.028  0.00  0.00    +0.019 C 
ENDROOT
BRANCH   1   2
ATOM      2  N   UNL     1      -2.601   4.097  -0.084  0.00  0.00    +0.386 N 
ATOM      3  C   UNL     1      -2.659   5.564  -0.096  0.00  0.00    -0.073 C 
ATOM      4  C   UNL     1      -4.120   6.019  -0.061  0.00  0.00    +0.046 C 
ATOM      5  C   UNL     1      -4.856   5.445  -1.274  0.00  0.00    +0.167 C 
ATOM      6  C   UNL     1      -4.737   3.919  -1.271  0.00  0.00    +0.046 C 
ATOM      7  C   UNL     1      -3.257   3.529  -1.269  0.00  0.00    -0.073 C 
ATOM      8  O   UNL     1      -6.242   5.817  -1.214  0.00  0.00    -0.346 OA
ATOM      9  C   UNL     1      -6.341   7.005  -2.038  0.00  0.00    +0.191 C 
ATOM     10  C   UNL     1      -5.327   6.691  -3.167  0.00  0.00    +0.191 C 
ATOM     11  O   UNL     1      -4.284   5.970  -2.478  0.00  0.00    -0.346 OA
ATOM     12  H   UNL     1      -3.151   3.748   0.802  0.00  0.00    -0.081 HD
ENDBRANCH   1   2
BRANCH   1  14
ATOM     13  N   UNL     1      -0.043   1.466   0.316  0.00  0.00    -0.314 N 
ATOM     14  C   UNL     1      -1.208   2.143   0.300  0.00  0.00    +0.197 C 
ATOM     15  O   UNL     1      -2.252   1.560   0.505  0.00  0.00    -0.278 OA
ATOM     16  H   UNL     1       0.903   1.995   0.130  0.00  0.00    +0.149 HD
BRANCH  13  23
ATOM     17  C   UNL     1       1.192  -0.363  -1.560  0.00  0.00    +0.009 C 
ATOM     18  C   UNL     1       1.208  -0.604  -0.049  0.00  0.00    +0.006 C 
ATOM     19  C   UNL     1       2.461   0.031   0.555  0.00  0.00    +0.005 C 
ATOM     20  C   UNL     1       2.477  -0.210   2.066  0.00  0.00    +0.000 C 
ATOM     21  C   UNL     1       1.232   0.419   2.696  0.00  0.00    +0.002 C 
ATOM     22  C   UNL     1      -0.022  -0.216   2.091  0.00  0.00    +0.022 C 
ATOM     23  C   UNL     1      -0.037   0.025   0.580  0.00  0.00    +0.076 C 
ENDBRANCH  13  23
ENDBRANCH   1  14
TORSDOF 3
