REMARK  Name = ZINC12653071
REMARK  7 active torsions:
REMARK  status: ('A' for Active; 'I' for Inactive)
REMARK    1  A    between atoms: C_1  and  C_2
REMARK    2  A    between atoms: C_2  and  C_3
REMARK    3  A    between atoms: C_18  and  C_25
REMARK    4  A    between atoms: C_18  and  C_26
REMARK    5  A    between atoms: N_21  and  N_22
REMARK    6  A    between atoms: N_22  and  C_23
REMARK    7  A    between atoms: C_23  and  C_24
REMARK                            x       y       z     vdW  Elec       q    Type
REMARK                         _______ _______ _______ _____ _____    ______ ____
ROOT
ATOM      1  C   UNL     1      -3.304   4.794   0.051  0.00  0.00    +0.051 A 
ATOM      2  C   UNL     1      -2.644   3.570   0.044  0.00  0.00    +0.029 A 
ATOM      3  C   UNL     1      -1.230   3.158   0.029  0.00  0.00    +0.009 A 
ATOM      4  C   UNL     1      -0.026   3.857   0.021  0.00  0.00    +0.010 A 
ATOM      5  C   UNL     1       1.167   3.167   0.007  0.00  0.00    +0.001 A 
ATOM      6  C   UNL     1       1.172   1.780   0.000  0.00  0.00    +0.002 A 
ATOM      7  C   UNL     1      -0.013   1.076   0.008  0.00  0.00    +0.026 A 
ATOM      8  C   UNL     1      -1.227   1.755   0.017  0.00  0.00    +0.048 A 
ATOM      9  N   UNL     1      -2.540   1.316   0.035  0.00  0.00    -0.354 N 
ATOM     10  H   UNL     1      -2.813   0.385   0.034  0.00  0.00    +0.166 HD
ATOM     11  C   UNL     1      -3.401   2.386   0.050  0.00  0.00    +0.060 A 
ATOM     12  C   UNL     1      -4.802   2.505   0.069  0.00  0.00    +0.043 A 
ATOM     13  C   UNL     1      -5.383   3.768   0.084  0.00  0.00    +0.053 A 
ATOM     14  N   UNL     1      -4.619   4.852   0.070  0.00  0.00    -0.255 NA
ATOM     15  C   UNL     1      -6.879   3.940   0.123  0.00  0.00    +0.063 C 
ATOM     16  C   UNL     1      -7.594   2.706  -0.417  0.00  0.00    -0.024 C 
ATOM     17  C   UNL     1      -7.124   1.465   0.354  0.00  0.00    +0.064 C 
ATOM     18  C   UNL     1      -5.646   1.293   0.069  0.00  0.00    +0.070 C 
ATOM     19  N   UNL     1      -5.139   0.122  -0.167  0.00  0.00    -0.191 NA
ATOM     20  C   UNL     1      -7.269   2.537  -1.903  0.00  0.00    +0.011 C 
ATOM     21  C   UNL     1      -9.105   2.873  -0.241  0.00  0.00    +0.011 C 
ENDROOT
BRANCH   1  23
ATOM     22  C   UNL     1      -2.254   6.499  -1.411  0.00  0.00    +0.010 C 
ATOM     23  C   UNL     1      -2.503   6.070   0.036  0.00  0.00    +0.053 C 
ENDBRANCH   1  23
BRANCH  19  24
ATOM     24  N   UNL     1      -5.963  -1.012  -0.161  0.00  0.00    -0.269 N 
ATOM     25  H   UNL     1      -6.911  -0.921   0.019  0.00  0.00    +0.168 HD
BRANCH  24  26
ATOM     26  C   UNL     1      -5.391  -2.334  -0.428  0.00  0.00    +0.119 C 
ATOM     27  C   UNL     1      -6.495  -3.390  -0.362  0.00  0.00    +0.025 C 
ENDBRANCH  24  26
ENDBRANCH  19  24
TORSDOF 3
