REMARK  Name = ZINC39911991
REMARK  14 active torsions:
REMARK  status: ('A' for Active; 'I' for Inactive)
REMARK    1  A    between atoms: C_1  and  C_2
REMARK    2  A    between atoms: C_2  and  C_3
REMARK    3  A    between atoms: C_3  and  C_4
REMARK    4  A    between atoms: C_4  and  C_5
REMARK    5  A    between atoms: C_5  and  N_6
REMARK    6  A    between atoms: C_7  and  C_26
REMARK    7  A    between atoms: C_10  and  C_17
REMARK    8  A    between atoms: C_19  and  C_25
REMARK    9  A    between atoms: C_21  and  C_24
REMARK   10  A    between atoms: C_22  and  O_23
REMARK   11  A    between atoms: C_29  and  O_35
REMARK   12  A    between atoms: C_30  and  O_32
REMARK   13  A    between atoms: O_32  and  C_33
REMARK   14  A    between atoms: C_33  and  C_34
REMARK                            x       y       z     vdW  Elec       q    Type
REMARK                         _______ _______ _______ _____ _____    ______ ____
ROOT
ATOM      1  N   UNL     1       1.161  -4.687   2.051  0.00  0.00    -0.285 N 
ATOM      2  C   UNL     1       0.288  -5.461   2.944  0.00  0.00    +0.141 C 
ATOM      3  C   UNL     1       0.878  -6.843   3.007  0.00  0.00    +0.035 A 
ATOM      4  C   UNL     1       0.790  -8.140   3.525  0.00  0.00    +0.102 A 
ATOM      5  N   UNL     1       1.806  -8.827   3.041  0.00  0.00    -0.173 NA
ATOM      6  N   UNL     1       2.526  -8.093   2.270  0.00  0.00    -0.272 N 
ATOM      7  H   UNL     1       3.324  -8.389   1.804  0.00  0.00    +0.189 HD
ATOM      8  C   UNL     1       2.001  -6.834   2.203  0.00  0.00    +0.126 A 
ATOM      9  C   UNL     1       2.148  -5.495   1.623  0.00  0.00    +0.265 C 
ATOM     10  O   UNL     1       3.038  -5.161   0.864  0.00  0.00    -0.268 OA
ENDROOT
BRANCH   4  11
ATOM     11  C   UNL     1      -0.255  -8.649   4.448  0.00  0.00    +0.044 A 
ATOM     12  C   UNL     1      -1.207  -7.779   4.974  0.00  0.00    +0.017 A 
ATOM     13  C   UNL     1      -2.176  -8.257   5.833  0.00  0.00    -0.049 A 
ATOM     14  C   UNL     1      -2.206  -9.598   6.173  0.00  0.00    +0.010 A 
ATOM     15  C   UNL     1      -1.266 -10.469   5.657  0.00  0.00    -0.008 A 
ATOM     16  C   UNL     1      -0.290 -10.004   4.790  0.00  0.00    +0.129 A 
ATOM     17  C   UNL     1      -1.305 -11.928   6.033  0.00  0.00    +0.047 C 
ATOM     18  C   UNL     1      -3.206  -7.315   6.401  0.00  0.00    +0.044 C 
BRANCH  16  19
ATOM     19  O   UNL     1       0.631 -10.860   4.277  0.00  0.00    -0.506 OA
ATOM     20  H   UNL     1       1.429 -10.949   4.817  0.00  0.00    +0.292 HD
ENDBRANCH  16  19
ENDBRANCH   4  11
BRANCH   2  21
ATOM     21  C   UNL     1      -1.109  -5.517   2.383  0.00  0.00    -0.019 A 
ATOM     22  C   UNL     1      -2.192  -5.247   3.199  0.00  0.00    +0.009 A 
ATOM     23  C   UNL     1      -3.476  -5.297   2.689  0.00  0.00    +0.049 A 
ATOM     24  C   UNL     1      -3.680  -5.617   1.357  0.00  0.00    +0.158 A 
ATOM     25  C   UNL     1      -2.590  -5.889   0.535  0.00  0.00    +0.162 A 
ATOM     26  C   UNL     1      -1.306  -5.832   1.051  0.00  0.00    +0.055 A 
BRANCH  24  27
ATOM     27  O   UNL     1      -4.942  -5.668   0.854  0.00  0.00    -0.503 OA
ATOM     28  H   UNL     1      -5.256  -4.826   0.495  0.00  0.00    +0.292 HD
ENDBRANCH  24  27
BRANCH  25  29
ATOM     29  O   UNL     1      -2.786  -6.204  -0.774  0.00  0.00    -0.489 OA
BRANCH  29  30
ATOM     30  C   UNL     1      -1.621  -6.330  -1.591  0.00  0.00    +0.226 C 
ATOM     31  C   UNL     1      -2.040  -6.579  -3.042  0.00  0.00    +0.048 C 
ENDBRANCH  29  30
ENDBRANCH  25  29
ENDBRANCH   2  21
BRANCH   1  32
ATOM     32  C   UNL     1       0.983  -3.280   1.684  0.00  0.00    +0.109 C 
BRANCH  32  33
ATOM     33  C   UNL     1       0.110  -3.186   0.431  0.00  0.00    +0.019 C 
BRANCH  33  34
ATOM     34  C   UNL     1      -0.076  -1.717   0.048  0.00  0.00    +0.001 C 
BRANCH  34  36
ATOM     35  C   UNL     1      -1.134  -0.153  -1.589  0.00  0.00    +0.004 C 
ATOM     36  C   UNL     1      -0.948  -1.623  -1.206  0.00  0.00    -0.003 C 
ENDBRANCH  34  36
ENDBRANCH  33  34
ENDBRANCH  32  33
ENDBRANCH   1  32
TORSDOF 10
