REMARK  Name = ZINC44021062
REMARK  2 active torsions:
REMARK  status: ('A' for Active; 'I' for Inactive)
REMARK    1  A    between atoms: C_2  and  N_20
REMARK    2  A    between atoms: N_7  and  C_10
REMARK                            x       y       z     vdW  Elec       q    Type
REMARK                         _______ _______ _______ _____ _____    ______ ____
ROOT
ATOM      1  C   UNL     1       0.011   1.400  -0.257  0.00  0.00    +0.112 A 
ATOM      2  C   UNL     1       1.168   2.080   0.004  0.00  0.00    +0.108 A 
ATOM      3  N   UNL     1       2.321   1.377   0.257  0.00  0.00    -0.296 N 
ATOM      4  H   UNL     1       3.145   1.853   0.443  0.00  0.00    +0.172 HD
ATOM      5  C   UNL     1       2.313   0.031   0.248  0.00  0.00    +0.331 A 
ATOM      6  O   UNL     1       3.343  -0.575   0.473  0.00  0.00    -0.246 OA
ATOM      7  N   UNL     1       1.183  -0.654  -0.007  0.00  0.00    -0.255 N 
ATOM      8  C   UNL     1       0.030  -0.004  -0.260  0.00  0.00    +0.259 A 
ATOM      9  O   UNL     1      -0.989  -0.631  -0.491  0.00  0.00    -0.267 OA
ENDROOT
BRANCH   7  10
ATOM     10  C   UNL     1       1.207  -2.118  -0.010  0.00  0.00    +0.054 C 
ATOM     11  C   UNL     1      -0.196  -2.651  -0.310  0.00  0.00    +0.032 C 
ATOM     12  C   UNL     1      -0.171  -4.180  -0.313  0.00  0.00    -0.008 C 
ATOM     13  C   UNL     1       0.284  -4.686   1.058  0.00  0.00    +0.007 C 
ATOM     14  C   UNL     1       1.687  -4.154   1.358  0.00  0.00    -0.008 C 
ATOM     15  C   UNL     1       1.662  -2.624   1.361  0.00  0.00    +0.032 C 
ATOM     16  C   UNL     1       2.659  -4.646   0.284  0.00  0.00    +0.007 C 
ATOM     17  C   UNL     1       2.204  -4.140  -1.087  0.00  0.00    -0.008 C 
ATOM     18  C   UNL     1       0.802  -4.673  -1.387  0.00  0.00    +0.007 C 
ATOM     19  C   UNL     1       2.180  -2.611  -1.083  0.00  0.00    +0.032 C 
ENDBRANCH   7  10
BRANCH   2  20
ATOM     20  N   UNL     1       1.177   3.451   0.014  0.00  0.00    -0.316 N 
ATOM     21  C   UNL     1      -0.003   4.205   0.457  0.00  0.00    +0.106 C 
ATOM     22  C   UNL     1       0.421   5.186   1.554  0.00  0.00    +0.019 C 
ATOM     23  C   UNL     1       1.567   6.059   1.036  0.00  0.00    +0.003 C 
ATOM     24  C   UNL     1       2.767   5.176   0.688  0.00  0.00    +0.019 C 
ATOM     25  C   UNL     1       2.371   4.194  -0.413  0.00  0.00    +0.106 C 
ENDBRANCH   2  20
TORSDOF 2
