REMARK  Name = ZINC38811811
REMARK  6 active torsions:
REMARK  status: ('A' for Active; 'I' for Inactive)
REMARK    1  A    between atoms: C_1  and  O_2
REMARK    2  A    between atoms: O_2  and  C_3
REMARK    3  A    between atoms: C_6  and  C_9
REMARK    4  A    between atoms: C_9  and  C_10
REMARK    5  A    between atoms: C_10  and  C_11
REMARK    6  A    between atoms: C_10  and  C_13
REMARK                            x       y       z     vdW  Elec       q    Type
REMARK                         _______ _______ _______ _____ _____    ______ ____
ROOT
ATOM      1  C   UNL     1      -5.004  -4.116   0.033  0.00  0.00    +0.204 C 
ENDROOT
BRANCH   1   2
ATOM      2  C   UNL     1      -6.277  -4.576  -0.680  0.00  0.00    +0.199 C 
ATOM      3  N   UNL     1      -6.258  -4.137  -2.081  0.00  0.00    -0.362 N 
ATOM      4  C   UNL     1      -6.301  -5.203  -2.826  0.00  0.00    +0.060 A 
ATOM      5  C   UNL     1      -6.309  -5.404  -4.282  0.00  0.00    +0.029 A 
ATOM      6  C   UNL     1      -6.360  -6.655  -4.779  0.00  0.00    +0.022 A 
ATOM      7  C   UNL     1      -6.407  -7.798  -3.958  0.00  0.00    +0.043 A 
ATOM      8  C   UNL     1      -6.404  -7.724  -2.610  0.00  0.00    +0.047 A 
ATOM      9  C   UNL     1      -6.351  -6.410  -1.956  0.00  0.00    +0.062 A 
ATOM     10  N   UNL     1      -6.338  -6.043  -0.706  0.00  0.00    -0.362 N 
ATOM     11 CL   UNL     1      -6.471  -9.362  -4.707  0.00  0.00    -0.083 Cl
ATOM     12  H   UNL     1      -6.220  -3.219  -2.393  0.00  0.00    +0.162 HD
ATOM     13  H   UNL     1      -6.363  -6.630   0.066  0.00  0.00    +0.162 HD
ENDBRANCH   1   2
BRANCH   1  14
ATOM     14  C   UNL     1      -4.945  -2.610   0.034  0.00  0.00    +0.184 C 
ATOM     15  O   UNL     1      -5.971  -1.964   0.043  0.00  0.00    -0.291 OA
BRANCH  14  19
ATOM     16  C   UNL     1      -1.198  -0.636   0.010  0.00  0.00    +0.120 A 
ATOM     17  C   UNL     1      -2.373   0.108   0.019  0.00  0.00    +0.046 A 
ATOM     18  C   UNL     1      -3.589  -0.527   0.027  0.00  0.00    +0.015 A 
ATOM     19  C   UNL     1      -3.646  -1.926   0.026  0.00  0.00    +0.019 A 
ATOM     20  C   UNL     1      -2.460  -2.670   0.016  0.00  0.00    +0.015 A 
ATOM     21  C   UNL     1      -1.249  -2.026   0.003  0.00  0.00    +0.046 A 
BRANCH  16  23
ATOM     22  C   UNL     1      -0.017   1.425   0.010  0.00  0.00    +0.277 C 
ATOM     23  O   UNL     1       0.002  -0.004   0.002  0.00  0.00    -0.495 OA
ENDBRANCH  16  23
ENDBRANCH  14  19
ENDBRANCH   1  14
BRANCH   1  24
ATOM     24  C   UNL     1      -5.012  -4.609   1.420  0.00  0.00    +0.078 C 
ATOM     25  N   UNL     1      -5.019  -4.988   2.490  0.00  0.00    -0.196 NA
ENDBRANCH   1  24
TORSDOF 5
