REMARK  Name = ZINC12270759
REMARK  10 active torsions:
REMARK  status: ('A' for Active; 'I' for Inactive)
REMARK    1  A    between atoms: C_1  and  C_2
REMARK    2  A    between atoms: C_2  and  N_3
REMARK    3  A    between atoms: N_3  and  C_4
REMARK    4  A    between atoms: C_5  and  N_20
REMARK    5  A    between atoms: N_6  and  C_13
REMARK    6  A    between atoms: C_13  and  C_14
REMARK    7  A    between atoms: C_21  and  C_23
REMARK    8  A    between atoms: C_23  and  C_24
REMARK    9  A    between atoms: C_24  and  C_25
REMARK   10  A    between atoms: C_28  and  C_30
REMARK                            x       y       z     vdW  Elec       q    Type
REMARK                         _______ _______ _______ _____ _____    ______ ____
ROOT
ATOM      1  N   UNL     1       2.359   3.681   0.046  0.00  0.00    -0.265 N 
ATOM      2  C   UNL     1       2.319   5.023  -0.093  0.00  0.00    +0.220 C 
ATOM      3  O   UNL     1       1.252   5.598  -0.129  0.00  0.00    -0.275 OA
ENDROOT
BRANCH   1   4
ATOM      4  C   UNL     1       1.160   2.937   0.046  0.00  0.00    +0.140 A 
ATOM      5  C   UNL     1       0.749   2.269   1.181  0.00  0.00    +0.128 A 
ATOM      6  N   UNL     1      -0.425   1.551   1.149  0.00  0.00    -0.276 N 
ATOM      7  C   UNL     1      -1.165   1.506   0.027  0.00  0.00    +0.331 A 
ATOM      8  O   UNL     1      -2.201   0.870   0.021  0.00  0.00    -0.246 OA
ATOM      9  N   UNL     1      -0.777   2.146  -1.090  0.00  0.00    -0.273 N 
ATOM     10  H   UNL     1      -1.342   2.090  -1.913  0.00  0.00    +0.173 HD
ATOM     11  C   UNL     1       0.364   2.863  -1.113  0.00  0.00    +0.277 A 
ATOM     12  O   UNL     1       0.704   3.443  -2.130  0.00  0.00    -0.266 OA
BRANCH   5  13
ATOM     13  N   UNL     1       1.502   2.319   2.329  0.00  0.00    -0.343 N 
ATOM     14  H   UNL     1       2.349   2.791   2.333  0.00  0.00    +0.144 HD
ATOM     15  H   UNL     1       1.187   1.883   3.136  0.00  0.00    +0.144 HD
ENDBRANCH   5  13
BRANCH   6  16
ATOM     16  C   UNL     1      -0.874   0.837   2.347  0.00  0.00    +0.163 C 
BRANCH  16  17
ATOM     17  C   UNL     1      -1.744   1.746   3.177  0.00  0.00    -0.028 A 
ATOM     18  C   UNL     1      -1.177   2.544   4.153  0.00  0.00    +0.005 A 
ATOM     19  C   UNL     1      -1.975   3.381   4.911  0.00  0.00    +0.000 A 
ATOM     20  C   UNL     1      -3.341   3.412   4.699  0.00  0.00    +0.000 A 
ATOM     21  C   UNL     1      -3.908   2.610   3.727  0.00  0.00    +0.000 A 
ATOM     22  C   UNL     1      -3.110   1.777   2.966  0.00  0.00    +0.005 A 
ENDBRANCH  16  17
ENDBRANCH   6  16
ENDBRANCH   1   4
BRANCH   1  24
ATOM     23  C   UNL     1       4.247   2.731  -1.183  0.00  0.00    +0.025 C 
ATOM     24  C   UNL     1       3.646   2.998   0.198  0.00  0.00    +0.110 C 
ENDBRANCH   1  24
BRANCH   2  25
ATOM     25  C   UNL     1       3.602   5.807  -0.205  0.00  0.00    +0.105 C 
BRANCH  25  26
ATOM     26  C   UNL     1       3.278   7.295  -0.353  0.00  0.00    +0.105 C 
BRANCH  26  27
ATOM     27  C   UNL     1       4.561   8.079  -0.464  0.00  0.00    +0.197 A 
ATOM     28  N   UNL     1       5.180   8.362  -1.576  0.00  0.00    -0.221 NA
ATOM     29  C   UNL     1       6.283   9.070  -1.290  0.00  0.00    +0.161 A 
ATOM     30  C   UNL     1       6.333   9.223   0.058  0.00  0.00    +0.155 A 
ATOM     31  O   UNL     1       5.245   8.601   0.563  0.00  0.00    -0.440 OA
BRANCH  30  32
ATOM     32  C   UNL     1       7.375   9.937   0.826  0.00  0.00    +0.019 A 
ATOM     33  C   UNL     1       7.290  10.015   2.217  0.00  0.00    +0.013 A 
ATOM     34  C   UNL     1       8.268  10.680   2.928  0.00  0.00    +0.021 A 
ATOM     35  C   UNL     1       9.327  11.275   2.264  0.00  0.00    +0.041 A 
ATOM     36  C   UNL     1       9.414  11.205   0.884  0.00  0.00    +0.021 A 
ATOM     37  C   UNL     1       8.445  10.540   0.162  0.00  0.00    +0.013 A 
ATOM     38 CL   UNL     1      10.550  12.114   3.166  0.00  0.00    -0.084 Cl
ENDBRANCH  30  32
ENDBRANCH  26  27
ENDBRANCH  25  26
ENDBRANCH   2  25
TORSDOF 9
