REMARK  Name = ZINC01835466
REMARK  13 active torsions:
REMARK  status: ('A' for Active; 'I' for Inactive)
REMARK    1  A    between atoms: C_1  and  O_2
REMARK    2  A    between atoms: O_2  and  C_3
REMARK    3  A    between atoms: C_5  and  C_10
REMARK    4  A    between atoms: C_8  and  O_9
REMARK    5  A    between atoms: C_16  and  C_33
REMARK    6  A    between atoms: C_17  and  C_24
REMARK    7  A    between atoms: C_19  and  C_22
REMARK    8  A    between atoms: C_20  and  N_21
REMARK    9  A    between atoms: C_27  and  O_32
REMARK   10  A    between atoms: C_28  and  O_30
REMARK   11  A    between atoms: O_30  and  C_31
REMARK   12  A    between atoms: C_33  and  O_35
REMARK   13  A    between atoms: O_35  and  C_36
REMARK                            x       y       z     vdW  Elec       q    Type
REMARK                         _______ _______ _______ _____ _____    ______ ____
ROOT
ATOM      1  C   UNL     1       8.671   3.823  -1.126  0.00  0.00    +0.028 C 
ATOM      2  C   UNL     1       7.558   3.047  -1.060  0.00  0.00    +0.079 A 
ATOM      3  C   UNL     1       7.115   2.142   0.005  0.00  0.00    +0.271 A 
ATOM      4  O   UNL     1       7.777   2.001   1.017  0.00  0.00    -0.266 OA
ATOM      5  N   UNL     1       5.959   1.470  -0.162  0.00  0.00    -0.257 N 
ATOM      6  C   UNL     1       5.261   1.678  -1.334  0.00  0.00    +0.100 A 
ATOM      7  C   UNL     1       4.075   1.066  -1.643  0.00  0.00    +0.080 C 
ATOM      8  C   UNL     1       3.486   0.097  -0.637  0.00  0.00    +0.102 C 
ATOM      9  C   UNL     1       4.287  -0.099   0.634  0.00  0.00    +0.079 C 
ATOM     10  C   UNL     1       5.443   0.582   0.789  0.00  0.00    +0.118 C 
ATOM     11  S   UNL     1       6.240   2.852  -2.249  0.00  0.00    -0.065 S 
ENDROOT
BRANCH   1  14
ATOM     12  C   UNL     1      11.732   4.109   1.021  0.00  0.00    +0.162 A 
ATOM     13  C   UNL     1      10.927   3.970  -0.092  0.00  0.00    +0.057 A 
ATOM     14  C   UNL     1       9.534   3.970   0.053  0.00  0.00    -0.020 A 
ATOM     15  C   UNL     1       8.966   4.117   1.325  0.00  0.00    +0.012 A 
ATOM     16  C   UNL     1       9.779   4.250   2.429  0.00  0.00    +0.050 A 
ATOM     17  C   UNL     1      11.160   4.249   2.284  0.00  0.00    +0.158 A 
BRANCH  12  19
ATOM     18  C   UNL     1      13.604   3.963  -0.439  0.00  0.00    +0.277 C 
ATOM     19  O   UNL     1      13.086   4.110   0.884  0.00  0.00    -0.491 OA
ENDBRANCH  12  19
BRANCH  17  20
ATOM     20  O   UNL     1      11.955   4.385   3.377  0.00  0.00    -0.503 OA
ATOM     21  H   UNL     1      12.175   5.302   3.592  0.00  0.00    +0.292 HD
ENDBRANCH  17  20
ENDBRANCH   1  14
BRANCH   8  22
ATOM     22  C   UNL     1       2.112   0.589  -0.258  0.00  0.00    -0.031 A 
ATOM     23  C   UNL     1       1.962   1.835   0.322  0.00  0.00    +0.008 A 
ATOM     24  C   UNL     1       0.704   2.290   0.673  0.00  0.00    +0.049 A 
ATOM     25  C   UNL     1      -0.409   1.497   0.443  0.00  0.00    +0.158 A 
ATOM     26  C   UNL     1      -0.258   0.245  -0.147  0.00  0.00    +0.162 A 
ATOM     27  C   UNL     1       1.006  -0.207  -0.490  0.00  0.00    +0.054 A 
BRANCH  26  28
ATOM     28  O   UNL     1      -1.347  -0.534  -0.380  0.00  0.00    -0.491 OA
ATOM     29  C   UNL     1      -1.116  -1.810  -0.982  0.00  0.00    +0.277 C 
ENDBRANCH  26  28
BRANCH  25  30
ATOM     30  O   UNL     1      -1.647   1.943   0.786  0.00  0.00    -0.503 OA
ATOM     31  H   UNL     1      -2.097   2.434   0.085  0.00  0.00    +0.292 HD
ENDBRANCH  25  30
ENDBRANCH   8  22
BRANCH  10  32
ATOM     32  N   UNL     1       6.155   0.390   1.948  0.00  0.00    -0.343 N 
ATOM     33  H   UNL     1       5.688   0.226   2.782  0.00  0.00    +0.144 HD
ATOM     34  H   UNL     1       7.125   0.419   1.932  0.00  0.00    +0.144 HD
ENDBRANCH  10  32
BRANCH   9  35
ATOM     35  C   UNL     1       3.825  -0.990   1.655  0.00  0.00    +0.099 C 
ATOM     36  N   UNL     1       3.458  -1.698   2.465  0.00  0.00    -0.191 NA
ENDBRANCH   9  35
BRANCH   7  37
ATOM     37  C   UNL     1       3.424   1.330  -2.856  0.00  0.00    +0.338 C 
ATOM     38  O   UNL     1       3.913   2.111  -3.652  0.00  0.00    -0.245 OA
BRANCH  37  39
ATOM     39  O   UNL     1       2.255   0.717  -3.142  0.00  0.00    -0.465 OA
ATOM     40  C   UNL     1       1.647   1.032  -4.396  0.00  0.00    +0.280 C 
ENDBRANCH  37  39
ENDBRANCH   7  37
TORSDOF 10
