REMARK  Name = ZINC09588791
REMARK  5 active torsions:
REMARK  status: ('A' for Active; 'I' for Inactive)
REMARK    1  A    between atoms: C_4  and  N_7
REMARK    2  A    between atoms: C_8  and  C_29
REMARK    3  A    between atoms: C_11  and  S_12
REMARK    4  A    between atoms: S_12  and  C_13
REMARK    5  A    between atoms: C_13  and  C_14
REMARK                            x       y       z     vdW  Elec       q    Type
REMARK                         _______ _______ _______ _____ _____    ______ ____
ROOT
ATOM      1  N   UNL     1      -8.997   2.471   0.101  0.00  0.00    -0.270 N 
ATOM      2  C   UNL     1     -10.235   3.076   0.121  0.00  0.00    +0.169 A 
ATOM      3  N   UNL     1     -10.029   4.373   0.126  0.00  0.00    -0.128 NA
ATOM      4  N   UNL     1      -8.768   4.619   0.115  0.00  0.00    -0.122 NA
ATOM      5  C   UNL     1      -8.088   3.494   0.102  0.00  0.00    +0.197 A 
ENDROOT
BRANCH   2   6
ATOM      6  C   UNL     1     -11.546   2.395   0.131  0.00  0.00    +0.020 A 
ATOM      7  C   UNL     1     -11.626   1.034   0.432  0.00  0.00    +0.013 A 
ATOM      8  C   UNL     1     -12.853   0.404   0.445  0.00  0.00    +0.021 A 
ATOM      9  C   UNL     1     -14.003   1.117   0.149  0.00  0.00    +0.041 A 
ATOM     10  C   UNL     1     -13.930   2.466  -0.155  0.00  0.00    +0.021 A 
ATOM     11  C   UNL     1     -12.709   3.108  -0.166  0.00  0.00    +0.013 A 
ATOM     12 CL   UNL     1     -15.543   0.316   0.160  0.00  0.00    -0.084 Cl
ENDBRANCH   2   6
BRANCH   1  16
ATOM     13  C   UNL     1      -8.191  -1.618   0.052  0.00  0.00    +0.000 A 
ATOM     14  C   UNL     1      -7.818  -0.854   1.143  0.00  0.00    +0.002 A 
ATOM     15  C   UNL     1      -8.083   0.501   1.162  0.00  0.00    +0.026 A 
ATOM     16  C   UNL     1      -8.726   1.096   0.084  0.00  0.00    +0.051 A 
ATOM     17  C   UNL     1      -9.104   0.325  -1.007  0.00  0.00    +0.026 A 
ATOM     18  C   UNL     1      -8.831  -1.028  -1.022  0.00  0.00    +0.002 A 
ENDBRANCH   1  16
BRANCH   5  19
ATOM     19  S   UNL     1      -6.333   3.333   0.083  0.00  0.00    -0.078 S 
BRANCH  19  20
ATOM     20  C   UNL     1      -5.857   5.079   0.088  0.00  0.00    +0.151 C 
BRANCH  20  21
ATOM     21  C   UNL     1      -4.354   5.190   0.073  0.00  0.00    +0.121 A 
ATOM     22  N   UNL     1      -3.784   6.421   0.074  0.00  0.00    -0.307 N 
ATOM     23  H   UNL     1      -4.346   7.212   0.084  0.00  0.00    +0.170 HD
ATOM     24  C   UNL     1      -2.441   6.553   0.061  0.00  0.00    +0.295 A 
ATOM     25  O   UNL     1      -1.922   7.657   0.062  0.00  0.00    -0.264 OA
ATOM     26  C   UNL     1      -1.648   5.383   0.047  0.00  0.00    +0.218 A 
ATOM     27  C   UNL     1      -2.297   4.152   0.046  0.00  0.00    +0.124 A 
ATOM     28  N   UNL     1      -3.639   4.101   0.059  0.00  0.00    -0.229 NA
ATOM     29  C   UNL     1      -1.231   3.139   0.031  0.00  0.00    +0.046 A 
ATOM     30  C   UNL     1      -1.216   1.746   0.017  0.00  0.00    +0.014 A 
ATOM     31  C   UNL     1      -0.013   1.076   0.008  0.00  0.00    +0.001 A 
ATOM     32  C   UNL     1       1.181   1.784   0.000  0.00  0.00    +0.004 A 
ATOM     33  C   UNL     1       1.180   3.161   0.008  0.00  0.00    +0.047 A 
ATOM     34  C   UNL     1      -0.024   3.857   0.023  0.00  0.00    +0.138 A 
ATOM     35  O   UNL     1      -0.315   5.175   0.033  0.00  0.00    -0.448 OA
ENDBRANCH  20  21
ENDBRANCH  19  20
ENDBRANCH   5  19
TORSDOF 5
