REMARK  Name = ZINC39977619
REMARK  4 active torsions:
REMARK  status: ('A' for Active; 'I' for Inactive)
REMARK    1  A    between atoms: N_10  and  C_11
REMARK    2  A    between atoms: C_11  and  C_13
REMARK    3  A    between atoms: C_13  and  O_14
REMARK    4  A    between atoms: O_14  and  C_15
REMARK                            x       y       z     vdW  Elec       q    Type
REMARK                         _______ _______ _______ _____ _____    ______ ____
ROOT
ATOM      1  C   UNL     1       4.916  -3.248  -0.163  0.00  0.00    +0.265 C 
ATOM      2  O   UNL     1       5.508  -2.186  -0.163  0.00  0.00    -0.271 OA
ENDROOT
BRANCH   1  12
ATOM      3  C   UNL     1      -0.018   1.375  -0.018  0.00  0.00    +0.002 A 
ATOM      4  C   UNL     1       1.167   2.090  -0.015  0.00  0.00    +0.002 A 
ATOM      5  C   UNL     1       2.379   1.429  -0.021  0.00  0.00    +0.028 A 
ATOM      6  C   UNL     1       2.410   0.041  -0.029  0.00  0.00    +0.065 A 
ATOM      7  C   UNL     1       1.214  -0.680  -0.032  0.00  0.00    +0.065 A 
ATOM      8  C   UNL     1       0.001  -0.005  -0.026  0.00  0.00    +0.028 A 
ATOM      9  N   UNL     1       1.549  -2.030  -0.040  0.00  0.00    -0.326 N 
ATOM     10  H   UNL     1       0.924  -2.771  -0.044  0.00  0.00    +0.169 HD
ATOM     11  C   UNL     1       2.904  -2.132  -0.042  0.00  0.00    +0.198 A 
ATOM     12  N   UNL     1       3.591  -3.271  -0.051  0.00  0.00    -0.145 NA
ATOM     13  N   UNL     1       3.447  -0.886  -0.036  0.00  0.00    -0.326 N 
ATOM     14  H   UNL     1       4.394  -0.678  -0.036  0.00  0.00    +0.169 HD
ENDBRANCH   1  12
BRANCH   1  15
ATOM     15  C   UNL     1       5.684  -4.538  -0.292  0.00  0.00    +0.258 C 
BRANCH  15  16
ATOM     16  O   UNL     1       7.080  -4.253  -0.398  0.00  0.00    -0.359 OA
BRANCH  16  17
ATOM     17  C   UNL     1       7.902  -5.415  -0.525  0.00  0.00    +0.174 C 
ATOM     18  C   UNL     1       8.218  -5.917   0.869  0.00  0.00    +0.009 C 
ATOM     19  C   UNL     1       9.500  -6.022   1.246  0.00  0.00    +0.001 C 
ATOM     20  C   UNL     1      10.566  -5.686   0.402  0.00  0.00    +0.028 C 
ATOM     21  C   UNL     1      10.384  -5.216  -0.892  0.00  0.00    +0.070 C 
ATOM     22  C   UNL     1       9.072  -5.061  -1.409  0.00  0.00    +0.012 C 
ATOM     23  C   UNL     1       9.199  -4.593  -2.674  0.00  0.00    +0.028 C 
ATOM     24  C   UNL     1      10.573  -4.465  -2.926  0.00  0.00    +0.112 C 
ATOM     25  N   UNL     1      11.243  -4.838  -1.863  0.00  0.00    -0.255 NA
ENDBRANCH  16  17
ENDBRANCH  15  16
ENDBRANCH   1  15
TORSDOF 4
