REMARK  Name = ZINC21823811
REMARK  5 active torsions:
REMARK  status: ('A' for Active; 'I' for Inactive)
REMARK    1  A    between atoms: C_1  and  C_2
REMARK    2  A    between atoms: C_2  and  C_4
REMARK    3  A    between atoms: C_2  and  S_14
REMARK    4  A    between atoms: N_6  and  C_7
REMARK    5  A    between atoms: S_14  and  C_15
REMARK                            x       y       z     vdW  Elec       q    Type
REMARK                         _______ _______ _______ _____ _____    ______ ____
ROOT
ATOM      1  C   UNL     1      -1.099  -2.138  -0.236  0.00  0.00    +0.230 C 
ATOM      2  O   UNL     1      -0.081  -2.792  -0.325  0.00  0.00    -0.274 OA
ATOM      3  N   UNL     1      -1.032  -0.795  -0.154  0.00  0.00    -0.284 N 
ATOM      4  H   UNL     1      -1.947  -0.208   0.015  0.00  0.00    +0.155 HD
ENDROOT
BRANCH   3   5
ATOM      5  C   UNL     1       0.201  -0.146  -0.283  0.00  0.00    +0.047 A 
ATOM      6  C   UNL     1       1.267  -0.793  -0.893  0.00  0.00    +0.024 A 
ATOM      7  C   UNL     1       2.483  -0.150  -1.020  0.00  0.00    +0.002 A 
ATOM      8  C   UNL     1       2.640   1.137  -0.539  0.00  0.00    +0.001 A 
ATOM      9  C   UNL     1       1.581   1.784   0.070  0.00  0.00    +0.016 A 
ATOM     10  C   UNL     1       0.362   1.147   0.200  0.00  0.00    +0.035 A 
ATOM     11  I   UNL     1      -1.245   2.132   1.114  0.00  0.00    -0.042 I 
ENDBRANCH   3   5
BRANCH   1  13
ATOM     12  C   UNL     1      -3.015  -2.860  -1.634  0.00  0.00    +0.029 C 
ATOM     13  C   UNL     1      -2.438  -2.829  -0.218  0.00  0.00    +0.134 C 
BRANCH  13  14
ATOM     14  S   UNL     1      -2.235  -4.526   0.390  0.00  0.00    -0.113 S 
BRANCH  14  15
ATOM     15  C   UNL     1      -1.720  -4.322   2.062  0.00  0.00    +0.009 A 
ATOM     16  C   UNL     1      -1.689  -3.054   2.631  0.00  0.00    +0.017 A 
ATOM     17  C   UNL     1      -1.290  -2.897   3.943  0.00  0.00    +0.039 A 
ATOM     18  C   UNL     1      -0.911  -4.000   4.690  0.00  0.00    +0.123 A 
ATOM     19  C   UNL     1      -0.936  -5.264   4.124  0.00  0.00    +0.039 A 
ATOM     20  C   UNL     1      -1.340  -5.427   2.813  0.00  0.00    +0.017 A 
ATOM     21  F   UNL     1      -0.517  -3.843   5.972  0.00  0.00    -0.205 F 
ENDBRANCH  14  15
ENDBRANCH  13  14
ENDBRANCH   1  13
TORSDOF 4
