REMARK  Name = ZINC39663820
REMARK  11 active torsions:
REMARK  status: ('A' for Active; 'I' for Inactive)
REMARK    1  A    between atoms: C_1  and  C_2
REMARK    2  A    between atoms: C_5  and  C_10
REMARK    3  A    between atoms: C_14  and  C_23
REMARK    4  A    between atoms: N_25  and  C_26
REMARK    5  A    between atoms: C_26  and  C_27
REMARK    6  A    between atoms: C_27  and  C_29
REMARK    7  A    between atoms: C_27  and  N_37
REMARK    8  A    between atoms: C_32  and  O_35
REMARK    9  A    between atoms: O_35  and  C_36
REMARK   10  A    between atoms: N_37  and  C_38
REMARK   11  A    between atoms: N_37  and  C_39
REMARK                            x       y       z     vdW  Elec       q    Type
REMARK                         _______ _______ _______ _____ _____    ______ ____
ROOT
ATOM      1  C   UNL     1      -0.463  -6.258  -0.797  0.00  0.00    +0.250 C 
ATOM      2  O   UNL     1      -0.401  -7.135   0.044  0.00  0.00    -0.270 OA
ATOM      3  N   UNL     1      -0.414  -6.575  -2.106  0.00  0.00    -0.296 N 
ATOM      4  C   UNL     1      -0.372  -5.651  -3.263  0.00  0.00    +0.121 C 
ATOM      5  C   UNL     1       0.613  -6.310  -4.254  0.00  0.00    +0.100 C 
ATOM      6  C   UNL     1       0.596  -7.804  -3.889  0.00  0.00    -0.004 C 
ATOM      7  C   UNL     1      -0.384  -7.928  -2.713  0.00  0.00    +0.115 C 
ATOM      8  C   UNL     1       0.107  -8.631  -5.074  0.00  0.00    -0.010 C 
ATOM      9  C   UNL     1       0.154 -10.117  -4.707  0.00  0.00    -0.082 C 
ATOM     10  N   UNL     1       1.528 -10.493  -4.356  0.00  0.00    +0.379 N 
ATOM     11  C   UNL     1       1.958  -9.760  -3.159  0.00  0.00    -0.082 C 
ATOM     12  C   UNL     1       1.987  -8.259  -3.461  0.00  0.00    -0.010 C 
ATOM     13  H   UNL     1       1.568 -11.485  -4.173  0.00  0.00    -0.086 HD
ATOM     14  H   UNL     1       2.143 -10.271  -5.124  0.00  0.00    -0.086 HD
ENDROOT
BRANCH   1  19
ATOM     15  C   UNL     1      -0.970  -0.754   0.811  0.00  0.00    +0.047 C 
ATOM     16  C   UNL     1      -0.835  -2.195   0.392  0.00  0.00    -0.012 A 
ATOM     17  C   UNL     1      -1.460  -2.639  -0.761  0.00  0.00    +0.007 A 
ATOM     18  C   UNL     1      -1.343  -3.955  -1.152  0.00  0.00    +0.016 A 
ATOM     19  C   UNL     1      -0.591  -4.846  -0.383  0.00  0.00    +0.075 A 
ATOM     20  C   UNL     1       0.039  -4.395   0.780  0.00  0.00    +0.171 A 
ATOM     21  C   UNL     1      -0.083  -3.068   1.158  0.00  0.00    +0.162 A 
ATOM     22  F   UNL     1       0.529  -2.627   2.279  0.00  0.00    -0.202 F 
ATOM     23  F   UNL     1       0.768  -5.250   1.531  0.00  0.00    -0.202 F 
ENDBRANCH   1  19
BRANCH   5  24
ATOM     24  C   UNL     1       1.997  -5.740  -4.075  0.00  0.00    +0.218 C 
ATOM     25  O   UNL     1       2.349  -5.332  -2.989  0.00  0.00    -0.275 OA
ATOM     26  N   UNL     1       2.842  -5.683  -5.123  0.00  0.00    -0.316 N 
ATOM     27  H   UNL     1       2.561  -6.009  -5.992  0.00  0.00    +0.149 HD
BRANCH  26  28
ATOM     28  C   UNL     1       4.188  -5.129  -4.950  0.00  0.00    +0.093 C 
BRANCH  28  29
ATOM     29  C   UNL     1       4.955  -5.232  -6.269  0.00  0.00    -0.021 C 
BRANCH  29  30
ATOM     30  C   UNL     1       4.285  -4.371  -7.309  0.00  0.00    -0.059 A 
ATOM     31  C   UNL     1       4.513  -3.007  -7.327  0.00  0.00    +0.005 A 
ATOM     32  C   UNL     1       3.899  -2.216  -8.279  0.00  0.00    +0.046 A 
ATOM     33  C   UNL     1       3.054  -2.791  -9.217  0.00  0.00    +0.120 A 
ATOM     34  C   UNL     1       2.827  -4.159  -9.196  0.00  0.00    +0.046 A 
ATOM     35  C   UNL     1       3.447  -4.947  -8.246  0.00  0.00    +0.005 A 
BRANCH  33  36
ATOM     36  O   UNL     1       2.449  -2.014 -10.154  0.00  0.00    -0.495 OA
ATOM     37  C   UNL     1       1.591  -2.674 -11.088  0.00  0.00    +0.277 C 
ENDBRANCH  33  36
ENDBRANCH  29  30
BRANCH  29  38
ATOM     38  N   UNL     1       6.336  -4.772  -6.069  0.00  0.00    +0.382 N 
ATOM     39  C   UNL     1       6.983  -5.597  -5.040  0.00  0.00    -0.096 C 
ATOM     40  C   UNL     1       7.079  -4.891  -7.331  0.00  0.00    -0.096 C 
ATOM     41  H   UNL     1       6.330  -3.808  -5.772  0.00  0.00    -0.082 HD
ENDBRANCH  29  38
ENDBRANCH  28  29
ENDBRANCH  26  28
ENDBRANCH   5  24
TORSDOF 7
