REMARK  Name = ZINC27574537
REMARK  9 active torsions:
REMARK  status: ('A' for Active; 'I' for Inactive)
REMARK    1  A    between atoms: C_1  and  C_2
REMARK    2  A    between atoms: N_5  and  C_8
REMARK    3  A    between atoms: C_8  and  C_10
REMARK    4  A    between atoms: C_8  and  C_26
REMARK    5  A    between atoms: C_10  and  N_11
REMARK    6  A    between atoms: C_12  and  C_14
REMARK    7  A    between atoms: C_14  and  C_15
REMARK    8  A    between atoms: C_15  and  C_16
REMARK    9  A    between atoms: C_18  and  C_21
REMARK                            x       y       z     vdW  Elec       q    Type
REMARK                         _______ _______ _______ _____ _____    ______ ____
ROOT
ATOM      1  N   UNL     1      -0.456   3.696  -1.873  0.00  0.00    -0.317 N 
ATOM      2  C   UNL     1      -0.576   4.329  -3.057  0.00  0.00    +0.213 C 
ATOM      3  O   UNL     1      -1.557   4.144  -3.746  0.00  0.00    -0.276 OA
ATOM      4  H   UNL     1       0.434   3.864  -1.247  0.00  0.00    +0.149 HD
ENDROOT
BRANCH   1   5
ATOM      5  C   UNL     1      -1.509   2.785  -1.419  0.00  0.00    +0.094 C 
BRANCH   5   6
ATOM      6  C   UNL     1      -1.185   2.294  -0.006  0.00  0.00    -0.013 C 
BRANCH   6  11
ATOM      7  C   UNL     1      -1.099   6.478   3.888  0.00  0.00    +0.007 C 
ATOM      8  C   UNL     1      -1.484   5.234   3.084  0.00  0.00    -0.018 C 
ATOM      9  C   UNL     1      -0.328   4.231   3.107  0.00  0.00    -0.015 C 
ATOM     10  C   UNL     1      -0.695   3.016   2.252  0.00  0.00    -0.078 C 
ATOM     11  N   UNL     1      -0.964   3.449   0.875  0.00  0.00    +0.386 N 
ATOM     12  C   UNL     1      -2.101   4.376   0.822  0.00  0.00    -0.078 C 
ATOM     13  C   UNL     1      -1.776   5.632   1.634  0.00  0.00    -0.015 C 
ATOM     14  H   UNL     1      -0.075   3.987   0.513  0.00  0.00    -0.081 HD
ENDBRANCH   6  11
BRANCH   6  15
ATOM     15  C   UNL     1       0.060   1.445  -0.043  0.00  0.00    -0.022 A 
ATOM     16  C   UNL     1       0.172   0.094  -0.043  0.00  0.00    +0.009 A 
ATOM     17  C   UNL     1       1.431  -0.474  -0.086  0.00  0.00    +0.008 A 
ATOM     18  C   UNL     1       2.517   0.336  -0.127  0.00  0.00    +0.045 A 
ATOM     19  S   UNL     1       1.769   1.957  -0.105  0.00  0.00    -0.103 S 
ENDBRANCH   6  15
ENDBRANCH   5   6
ENDBRANCH   1   5
BRANCH   2  20
ATOM     20  C   UNL     1       0.507   5.266  -3.524  0.00  0.00    +0.105 C 
BRANCH  20  21
ATOM     21  C   UNL     1       0.126   5.848  -4.887  0.00  0.00    +0.108 C 
BRANCH  21  22
ATOM     22  C   UNL     1       1.210   6.785  -5.354  0.00  0.00    +0.228 A 
ATOM     23  N   UNL     1       2.256   6.466  -6.073  0.00  0.00    -0.191 NA
ATOM     24  C   UNL     1       2.943   7.620  -6.248  0.00  0.00    +0.209 A 
ATOM     25  N   UNL     1       2.276   8.562  -5.628  0.00  0.00    -0.056 NA
ATOM     26  O   UNL     1       1.279   8.099  -5.116  0.00  0.00    -0.338 OA
BRANCH  24  27
ATOM     27  C   UNL     1       4.206   7.785  -6.995  0.00  0.00    +0.060 A 
ATOM     28  C   UNL     1       4.940   8.921  -7.209  0.00  0.00    +0.019 A 
ATOM     29  C   UNL     1       6.101   8.831  -7.943  0.00  0.00    +0.008 A 
ATOM     30  C   UNL     1       6.478   7.624  -8.440  0.00  0.00    +0.046 A 
ATOM     31  S   UNL     1       5.170   6.556  -7.861  0.00  0.00    -0.093 S 
ENDBRANCH  24  27
ENDBRANCH  21  22
ENDBRANCH  20  21
ENDBRANCH   2  20
TORSDOF 8
