REMARK  Name = ZINC03322328
REMARK  8 active torsions:
REMARK  status: ('A' for Active; 'I' for Inactive)
REMARK    1  A    between atoms: C_1  and  C_2
REMARK    2  A    between atoms: C_2  and  C_3
REMARK    3  A    between atoms: N_9  and  C_10
REMARK    4  A    between atoms: C_13  and  C_16
REMARK    5  A    between atoms: C_16  and  N_18
REMARK    6  A    between atoms: N_18  and  N_19
REMARK    7  A    between atoms: N_19  and  S_20
REMARK    8  A    between atoms: S_20  and  C_23
REMARK                            x       y       z     vdW  Elec       q    Type
REMARK                         _______ _______ _______ _____ _____    ______ ____
ROOT
ATOM      1  C   UNL     1      -0.796   3.882  -2.704  0.00  0.00    +0.043 C 
ATOM      2  C   UNL     1       0.018   3.262  -3.559  0.00  0.00    +0.035 C 
ENDROOT
BRANCH   1   6
ATOM      3  C   UNL     1      -1.774   7.978  -3.290  0.00  0.00    +0.033 A 
ATOM      4  C   UNL     1      -0.924   7.333  -4.182  0.00  0.00    +0.024 A 
ATOM      5  C   UNL     1      -0.606   6.005  -3.994  0.00  0.00    +0.011 A 
ATOM      6  C   UNL     1      -1.136   5.309  -2.908  0.00  0.00    -0.003 A 
ATOM      7  C   UNL     1      -1.993   5.957  -2.018  0.00  0.00    +0.011 A 
ATOM      8  C   UNL     1      -2.304   7.287  -2.207  0.00  0.00    +0.024 A 
BRANCH   3  14
ATOM      9  C   UNL     1      -2.581  11.460  -6.478  0.00  0.00    +0.118 C 
ATOM     10  C   UNL     1      -2.480  10.272  -7.462  0.00  0.00    +0.104 C 
ATOM     11  S   UNL     1      -2.214   8.894  -6.281  0.00  0.00    -0.089 S 
ATOM     12  C   UNL     1      -2.245   9.820  -4.759  0.00  0.00    +0.154 C 
ATOM     13  N   UNL     1      -2.443  11.055  -5.098  0.00  0.00    -0.259 NA
ATOM     14  N   UNL     1      -2.095   9.324  -3.483  0.00  0.00    -0.294 N 
ATOM     15  H   UNL     1      -2.212   9.909  -2.718  0.00  0.00    +0.154 HD
BRANCH   9  17
ATOM     16  C   UNL     1      -1.646  13.710  -5.927  0.00  0.00    +0.006 C 
ATOM     17  C   UNL     1      -1.483  12.472  -6.811  0.00  0.00    +0.024 C 
ENDBRANCH   9  17
ENDBRANCH   3  14
ENDBRANCH   1   6
BRANCH   1  18
ATOM     18  N   UNL     1      -1.328   3.187  -1.617  0.00  0.00    -0.262 N 
ATOM     19  H   UNL     1      -1.920   3.638  -0.996  0.00  0.00    +0.168 HD
BRANCH  18  20
ATOM     20  N   UNL     1      -1.006   1.837  -1.424  0.00  0.00    -0.110 NA
ATOM     21  H   UNL     1      -1.161   1.195  -2.135  0.00  0.00    +0.172 HD
BRANCH  20  22
ATOM     22  S   UNL     1      -0.362   1.337   0.018  0.00  0.00    +0.073 S 
ATOM     23  O   UNL     1      -0.283  -0.080  -0.043  0.00  0.00    -0.152 OA
ATOM     24  O   UNL     1       0.775   2.154   0.259  0.00  0.00    -0.152 OA
BRANCH  22  25
ATOM     25  C   UNL     1      -1.536   1.724   1.274  0.00  0.00    +0.107 A 
ATOM     26  C   UNL     1      -1.484   2.947   1.916  0.00  0.00    +0.029 A 
ATOM     27  C   UNL     1      -2.407   3.252   2.898  0.00  0.00    +0.017 A 
ATOM     28  C   UNL     1      -3.377   2.329   3.246  0.00  0.00    +0.018 A 
ATOM     29  C   UNL     1      -3.425   1.103   2.607  0.00  0.00    +0.017 A 
ATOM     30  C   UNL     1      -2.505   0.801   1.622  0.00  0.00    +0.029 A 
ATOM     31 BR   UNL     1      -4.636   2.744   4.595  0.00  0.00    -0.050 Br
ENDBRANCH  22  25
ENDBRANCH  20  22
ENDBRANCH  18  20
ENDBRANCH   1  18
TORSDOF 7
