REMARK  Name = ZINC63850110
REMARK  8 active torsions:
REMARK  status: ('A' for Active; 'I' for Inactive)
REMARK    1  A    between atoms: C_1  and  C_2
REMARK    2  A    between atoms: N_4  and  C_5
REMARK    3  A    between atoms: C_8  and  S_11
REMARK    4  A    between atoms: S_11  and  N_14
REMARK    5  A    between atoms: N_14  and  C_15
REMARK    6  A    between atoms: C_15  and  C_16
REMARK    7  A    between atoms: C_16  and  C_18
REMARK    8  A    between atoms: C_16  and  C_23
REMARK                            x       y       z     vdW  Elec       q    Type
REMARK                         _______ _______ _______ _____ _____    ______ ____
ROOT
ATOM      1  C   UNL     1      -2.077  -6.723   2.759  0.00  0.00    +0.119 C 
ENDROOT
BRANCH   1   2
ATOM      2  N   UNL     1      -0.878  -7.002   1.964  0.00  0.00    -0.189 NA
ATOM      3  H   UNL     1      -0.108  -7.420   2.378  0.00  0.00    +0.148 HD
BRANCH   2   4
ATOM      4  S   UNL     1      -0.840  -6.603   0.357  0.00  0.00    +0.058 S 
ATOM      5  O   UNL     1      -2.038  -7.108  -0.216  0.00  0.00    -0.153 OA
ATOM      6  O   UNL     1       0.447  -6.970  -0.121  0.00  0.00    -0.153 OA
BRANCH   4  10
ATOM      7  C   UNL     1      -1.081  -2.089   0.091  0.00  0.00    +0.033 A 
ATOM      8  C   UNL     1       0.155  -2.716   0.178  0.00  0.00    +0.025 A 
ATOM      9  C   UNL     1       0.225  -4.092   0.259  0.00  0.00    +0.030 A 
ATOM     10  C   UNL     1      -0.934  -4.847   0.254  0.00  0.00    +0.105 A 
ATOM     11  C   UNL     1      -2.166  -4.226   0.168  0.00  0.00    +0.030 A 
ATOM     12  C   UNL     1      -2.244  -2.849   0.093  0.00  0.00    +0.025 A 
BRANCH   7  16
ATOM     13  C   UNL     1      -2.194   1.470   0.609  0.00  0.00    +0.109 C 
ATOM     14  C   UNL     1      -2.169  -0.037   0.608  0.00  0.00    +0.214 C 
ATOM     15  O   UNL     1      -3.061  -0.658   1.145  0.00  0.00    -0.276 OA
ATOM     16  N   UNL     1      -1.156  -0.694   0.009  0.00  0.00    -0.286 N 
ATOM     17  H   UNL     1      -0.478  -0.200  -0.478  0.00  0.00    +0.155 HD
ENDBRANCH   7  16
ENDBRANCH   4  10
ENDBRANCH   2   4
ENDBRANCH   1   2
BRANCH   1  18
ATOM     18  C   UNL     1      -2.010  -7.503   4.074  0.00  0.00    +0.069 C 
BRANCH  18  19
ATOM     19  C   UNL     1      -3.179  -7.122   4.944  0.00  0.00    -0.032 C 
ATOM     20  C   UNL     1      -3.129  -6.565   6.176  0.00  0.00    -0.000 A 
ATOM     21  C   UNL     1      -2.014  -6.163   7.041  0.00  0.00    +0.010 A 
ATOM     22  C   UNL     1      -2.284  -5.620   8.250  0.00  0.00    +0.001 A 
ATOM     23  C   UNL     1      -3.599  -5.433   8.696  0.00  0.00    +0.002 A 
ATOM     24  C   UNL     1      -4.676  -5.777   7.958  0.00  0.00    +0.026 A 
ATOM     25  C   UNL     1      -4.509  -6.356   6.670  0.00  0.00    +0.043 A 
ATOM     26  N   UNL     1      -5.378  -6.768   5.779  0.00  0.00    -0.380 N 
ATOM     27  C   UNL     1      -4.647  -7.280   4.615  0.00  0.00    +0.145 C 
ATOM     28  H   UNL     1      -6.343  -6.736   5.873  0.00  0.00    +0.160 HD
ENDBRANCH  18  19
BRANCH  18  29
ATOM     29  C   UNL     1      -2.059  -8.981   3.784  0.00  0.00    -0.002 A 
ATOM     30  C   UNL     1      -1.149  -9.940   4.082  0.00  0.00    +0.012 A 
ATOM     31  C   UNL     1      -1.409 -11.247   3.715  0.00  0.00    +0.008 A 
ATOM     32  C   UNL     1      -2.565 -11.531   3.068  0.00  0.00    +0.045 A 
ATOM     33  S   UNL     1      -3.335  -9.924   2.965  0.00  0.00    -0.101 S 
ENDBRANCH  18  29
ENDBRANCH   1  18
TORSDOF 7
