REMARK  Name = ZINC42414658
REMARK  3 active torsions:
REMARK  status: ('A' for Active; 'I' for Inactive)
REMARK    1  A    between atoms: C_3  and  S_8
REMARK    2  A    between atoms: S_8  and  N_11
REMARK    3  A    between atoms: N_11  and  C_12
REMARK                            x       y       z     vdW  Elec       q    Type
REMARK                         _______ _______ _______ _____ _____    ______ ____
ROOT
ATOM      1  S   UNL     1       3.891   2.315  -0.023  0.00  0.00    +0.093 S 
ATOM      2  O   UNL     1       4.872   1.456  -0.588  0.00  0.00    -0.148 OA
ATOM      3  O   UNL     1       3.597   3.595  -0.564  0.00  0.00    -0.148 OA
ENDROOT
BRANCH   1   6
ATOM      4  C   UNL     1      -0.017   1.380   0.010  0.00  0.00    +0.040 A 
ATOM      5  C   UNL     1       1.171   2.087   0.002  0.00  0.00    +0.031 A 
ATOM      6  C   UNL     1       2.377   1.412  -0.013  0.00  0.00    +0.111 A 
ATOM      7  C   UNL     1       2.397   0.030  -0.021  0.00  0.00    +0.031 A 
ATOM      8  C   UNL     1       1.211  -0.679  -0.014  0.00  0.00    +0.040 A 
ATOM      9  C   UNL     1       0.002  -0.004   0.002  0.00  0.00    +0.124 A 
ATOM     10  F   UNL     1      -1.158  -0.696   0.009  0.00  0.00    -0.205 F 
ENDBRANCH   1   6
BRANCH   1  11
ATOM     11  N   UNL     1       4.326   2.557   1.556  0.00  0.00    -0.076 NA
BRANCH  11  12
ATOM     12  C   UNL     1       5.502   3.254   1.859  0.00  0.00    +0.184 A 
ATOM     13  C   UNL     1       5.992   3.526   3.147  0.00  0.00    +0.068 A 
ATOM     14  C   UNL     1       7.146   4.218   3.015  0.00  0.00    +0.107 A 
ATOM     15  N   UNL     1       7.382   4.381   1.696  0.00  0.00    -0.283 N 
ATOM     16  H   UNL     1       8.142   4.840   1.306  0.00  0.00    +0.188 HD
ATOM     17  N   UNL     1       6.341   3.764   0.989  0.00  0.00    -0.155 NA
ENDBRANCH  11  12
ENDBRANCH   1  11
TORSDOF 3
