REMARK  Name = ZINC64891140
REMARK  5 active torsions:
REMARK  status: ('A' for Active; 'I' for Inactive)
REMARK    1  A    between atoms: C_1  and  C_2
REMARK    2  A    between atoms: C_2  and  C_3
REMARK    3  A    between atoms: C_2  and  N_4
REMARK    4  A    between atoms: C_8  and  C_15
REMARK    5  A    between atoms: C_17  and  C_20
REMARK                            x       y       z     vdW  Elec       q    Type
REMARK                         _______ _______ _______ _____ _____    ______ ____
ROOT
ATOM      1  N   UNL     1      -1.372  -0.511   0.012  0.00  0.00    -0.290 N 
ATOM      2  C   UNL     1      -1.948  -1.322  -0.961  0.00  0.00    +0.070 A 
ATOM      3  C   UNL     1      -1.472  -1.868  -2.145  0.00  0.00    +0.029 A 
ATOM      4  C   UNL     1      -2.296  -2.651  -2.924  0.00  0.00    +0.014 A 
ATOM      5  C   UNL     1      -3.611  -2.898  -2.524  0.00  0.00    +0.025 A 
ATOM      6  C   UNL     1      -4.093  -2.353  -1.337  0.00  0.00    +0.039 A 
ATOM      7  C   UNL     1      -3.263  -1.566  -0.557  0.00  0.00    +0.068 A 
ATOM      8  N   UNL     1      -3.444  -0.895   0.651  0.00  0.00    -0.306 N 
ATOM      9  H   UNL     1      -4.260  -0.879   1.175  0.00  0.00    +0.170 HD
ATOM     10  C   UNL     1      -2.291  -0.277   0.968  0.00  0.00    +0.328 A 
ATOM     11  O   UNL     1      -2.107   0.394   1.967  0.00  0.00    -0.247 OA
ENDROOT
BRANCH   5  12
ATOM     12  C   UNL     1      -4.495  -3.742  -3.365  0.00  0.00    +0.202 A 
ATOM     13  N   UNL     1      -4.147  -4.326  -4.523  0.00  0.00    -0.187 NA
ATOM     14  C   UNL     1      -5.164  -5.000  -5.007  0.00  0.00    +0.260 A 
ATOM     15  O   UNL     1      -6.201  -4.863  -4.162  0.00  0.00    -0.332 OA
ATOM     16  N   UNL     1      -5.742  -4.045  -3.097  0.00  0.00    -0.056 NA
BRANCH  14  17
ATOM     17  C   UNL     1      -5.169  -5.776  -6.265  0.00  0.00    +0.053 A 
ATOM     18  C   UNL     1      -4.019  -5.841  -7.053  0.00  0.00    +0.014 A 
ATOM     19  C   UNL     1      -4.030  -6.567  -8.226  0.00  0.00    +0.001 A 
ATOM     20  C   UNL     1      -5.178  -7.229  -8.624  0.00  0.00    +0.001 A 
ATOM     21  C   UNL     1      -6.322  -7.169  -7.849  0.00  0.00    +0.016 A 
ATOM     22  C   UNL     1      -6.323  -6.451  -6.669  0.00  0.00    +0.030 A 
ATOM     23 BR   UNL     1      -7.886  -6.376  -5.606  0.00  0.00    -0.050 Br
ENDBRANCH  14  17
ENDBRANCH   5  12
BRANCH   1  25
ATOM     24  C   UNL     1      -0.019   1.526   0.010  0.00  0.00    +0.031 C 
ATOM     25  C   UNL     1       0.002  -0.004   0.002  0.00  0.00    +0.086 C 
ATOM     26  C   UNL     1       0.742  -0.511   1.242  0.00  0.00    +0.031 C 
ENDBRANCH   1  25
TORSDOF 3
