REMARK  Name = ZINC20410955
REMARK  9 active torsions:
REMARK  status: ('A' for Active; 'I' for Inactive)
REMARK    1  A    between atoms: C_1  and  C_2
REMARK    2  A    between atoms: C_8  and  C_43
REMARK    3  A    between atoms: C_9  and  O_42
REMARK    4  A    between atoms: C_19  and  C_21
REMARK    5  A    between atoms: C_21  and  N_22
REMARK    6  A    between atoms: N_25  and  C_28
REMARK    7  A    between atoms: C_28  and  C_29
REMARK    8  A    between atoms: C_28  and  C_35
REMARK    9  A    between atoms: C_28  and  O_41
REMARK                            x       y       z     vdW  Elec       q    Type
REMARK                         _______ _______ _______ _____ _____    ______ ____
ROOT
ATOM      1  N   UNL     1      -0.679   3.103  -1.258  0.00  0.00    +0.382 N 
ATOM      2  C   UNL     1      -0.372   1.672  -1.397  0.00  0.00    -0.063 C 
ATOM      3  C   UNL     1       0.493   1.222  -0.217  0.00  0.00    +0.069 C 
ATOM      4  N   UNL     1      -0.223   1.485   1.040  0.00  0.00    -0.271 NA
ATOM      5  C   UNL     1      -0.530   2.916   1.178  0.00  0.00    +0.069 C 
ATOM      6  C   UNL     1      -1.394   3.366  -0.002  0.00  0.00    -0.063 C 
ATOM      7  H   UNL     1       0.273   3.653  -1.229  0.00  0.00    -0.082 HD
ENDROOT
BRANCH   1   8
ATOM      8  C   UNL     1      -1.445   3.591  -2.413  0.00  0.00    -0.064 C 
BRANCH   8  23
ATOM      9  C   UNL     1      -6.820   5.817  -2.814  0.00  0.00    +0.008 C 
ATOM     10  C   UNL     1      -6.129   7.082  -2.719  0.00  0.00    -0.001 C 
ATOM     11  C   UNL     1      -6.414   7.883  -3.998  0.00  0.00    +0.008 C 
ATOM     12  C   UNL     1      -5.808   9.367  -3.825  0.00  0.00    +0.027 C 
ATOM     13  C   UNL     1      -4.343   9.167  -3.539  0.00  0.00    -0.027 C 
ATOM     14  C   UNL     1      -3.823   8.108  -3.038  0.00  0.00    -0.061 C 
ATOM     15  C   UNL     1      -4.664   6.921  -2.514  0.00  0.00    +0.018 C 
ATOM     16  C   UNL     1      -4.107   5.620  -3.113  0.00  0.00    +0.132 C 
ATOM     17  C   UNL     1      -2.551   5.580  -3.326  0.00  0.00    +0.071 C 
ATOM     18  C   UNL     1      -1.832   6.893  -3.709  0.00  0.00    +0.187 C 
ATOM     19  C   UNL     1      -2.299   8.033  -2.833  0.00  0.00    +0.076 C 
ATOM     20  O   UNL     1      -0.503   6.577  -3.299  0.00  0.00    -0.460 OA
ATOM     21  C   UNL     1      -0.549   5.898  -2.062  0.00  0.00    +0.309 C 
ATOM     22  O   UNL     1       0.227   5.960  -1.143  0.00  0.00    -0.251 OA
ATOM     23  C   UNL     1      -1.819   5.055  -2.193  0.00  0.00    +0.090 C 
ATOM     24  C   UNL     1      -4.455   6.823  -1.007  0.00  0.00    +0.018 C 
BRANCH  16  25
ATOM     25  O   UNL     1      -4.464   4.580  -2.300  0.00  0.00    -0.391 OA
ATOM     26  H   UNL     1      -4.160   3.554  -2.554  0.00  0.00    +0.210 HD
ENDBRANCH  16  25
ENDBRANCH   8  23
ENDBRANCH   1   8
BRANCH   4  27
ATOM     27  C   UNL     1       0.544   0.997   2.194  0.00  0.00    +0.172 C 
BRANCH  27  28
ATOM     28  C   UNL     1      -0.272   1.172   3.449  0.00  0.00    +0.003 A 
ATOM     29  C   UNL     1      -1.652   1.120   3.389  0.00  0.00    +0.008 A 
ATOM     30  C   UNL     1      -2.400   1.276   4.541  0.00  0.00    +0.000 A 
ATOM     31  C   UNL     1      -1.768   1.494   5.752  0.00  0.00    +0.000 A 
ATOM     32  C   UNL     1      -0.388   1.551   5.810  0.00  0.00    +0.000 A 
ATOM     33  C   UNL     1       0.360   1.391   4.659  0.00  0.00    +0.008 A 
ENDBRANCH  27  28
BRANCH  27  34
ATOM     34  C   UNL     1       0.865  -0.463   2.003  0.00  0.00    +0.003 A 
ATOM     35  C   UNL     1       0.059  -1.248   1.200  0.00  0.00    +0.008 A 
ATOM     36  C   UNL     1       0.355  -2.587   1.022  0.00  0.00    +0.000 A 
ATOM     37  C   UNL     1       1.453  -3.141   1.653  0.00  0.00    +0.000 A 
ATOM     38  C   UNL     1       2.256  -2.357   2.460  0.00  0.00    +0.000 A 
ATOM     39  C   UNL     1       1.962  -1.018   2.635  0.00  0.00    +0.008 A 
ENDBRANCH  27  34
BRANCH  27  40
ATOM     40  O   UNL     1       1.759   1.741   2.308  0.00  0.00    -0.366 OA
ATOM     41  H   UNL     1       2.467   1.516   3.119  0.00  0.00    +0.212 HD
ENDBRANCH  27  40
ENDBRANCH   4  27
TORSDOF 7
