REMARK  Name = ZINC09329506
REMARK  8 active torsions:
REMARK  status: ('A' for Active; 'I' for Inactive)
REMARK    1  A    between atoms: C_4  and  O_33
REMARK    2  A    between atoms: C_5  and  C_7
REMARK    3  A    between atoms: N_8  and  N_9
REMARK    4  A    between atoms: C_10  and  C_12
REMARK    5  A    between atoms: C_14  and  C_18
REMARK    6  A    between atoms: C_22  and  O_24
REMARK    7  A    between atoms: O_24  and  C_25
REMARK    8  A    between atoms: C_25  and  C_26
REMARK                            x       y       z     vdW  Elec       q    Type
REMARK                         _______ _______ _______ _____ _____    ______ ____
ROOT
ATOM      1  C   UNL     1       3.619  -6.314  -0.072  0.00  0.00    +0.149 A 
ATOM      2  C   UNL     1       4.772  -7.130  -0.082  0.00  0.00    +0.062 A 
ATOM      3  C   UNL     1       4.309  -8.415  -0.088  0.00  0.00    +0.067 A 
ATOM      4  N   UNL     1       2.947  -8.344  -0.081  0.00  0.00    -0.276 N 
ATOM      5  H   UNL     1       2.349  -9.108  -0.083  0.00  0.00    +0.189 HD
ATOM      6  N   UNL     1       2.572  -7.115  -0.066  0.00  0.00    -0.169 NA
ENDROOT
BRANCH   3   7
ATOM      7  C   UNL     1       5.127  -9.648  -0.100  0.00  0.00    +0.003 A 
ATOM      8  C   UNL     1       6.520  -9.564  -0.101  0.00  0.00    +0.010 A 
ATOM      9  C   UNL     1       7.281 -10.715  -0.112  0.00  0.00    +0.004 A 
ATOM     10  C   UNL     1       6.667 -11.954  -0.122  0.00  0.00    +0.046 A 
ATOM     11  C   UNL     1       5.282 -12.047  -0.121  0.00  0.00    +0.122 A 
ATOM     12  C   UNL     1       4.510 -10.898  -0.105  0.00  0.00    +0.055 A 
BRANCH  11  13
ATOM     13  O   UNL     1       4.684 -13.268  -0.130  0.00  0.00    -0.487 OA
BRANCH  13  14
ATOM     14  C   UNL     1       5.541 -14.411  -0.141  0.00  0.00    +0.264 C 
BRANCH  14  15
ATOM     15  C   UNL     1       4.706 -15.665  -0.151  0.00  0.00    -0.010 A 
ATOM     16  C   UNL     1       4.320 -16.247   1.042  0.00  0.00    +0.008 A 
ATOM     17  C   UNL     1       3.554 -17.398   1.034  0.00  0.00    +0.020 A 
ATOM     18  C   UNL     1       3.174 -17.967  -0.169  0.00  0.00    +0.041 A 
ATOM     19  C   UNL     1       3.561 -17.384  -1.362  0.00  0.00    +0.020 A 
ATOM     20  C   UNL     1       4.322 -16.230  -1.353  0.00  0.00    +0.008 A 
ATOM     21 CL   UNL     1       2.212 -19.412  -0.180  0.00  0.00    -0.084 Cl
ENDBRANCH  14  15
ENDBRANCH  13  14
ENDBRANCH  11  13
ENDBRANCH   3   7
BRANCH   1  23
ATOM     22  N   UNL     1       2.412  -4.186  -0.047  0.00  0.00    -0.202 N 
ATOM     23  C   UNL     1       3.592  -4.838  -0.062  0.00  0.00    +0.283 C 
ATOM     24  O   UNL     1       4.633  -4.210  -0.069  0.00  0.00    -0.267 OA
ATOM     25  H   UNL     1       1.581  -4.686  -0.042  0.00  0.00    +0.178 HD
BRANCH  22  27
ATOM     26  C   UNL     1       1.250  -2.157  -0.023  0.00  0.00    +0.142 C 
ATOM     27  N   UNL     1       2.386  -2.785  -0.038  0.00  0.00    -0.187 NA
BRANCH  26  32
ATOM     28  C   UNL     1      -0.017   1.375   0.010  0.00  0.00    +0.001 A 
ATOM     29  C   UNL     1       1.169   2.089   0.002  0.00  0.00    +0.004 A 
ATOM     30  C   UNL     1       2.383   1.428  -0.013  0.00  0.00    +0.046 A 
ATOM     31  C   UNL     1       2.420   0.044  -0.021  0.00  0.00    +0.125 A 
ATOM     32  C   UNL     1       1.222  -0.684  -0.014  0.00  0.00    +0.036 A 
ATOM     33  C   UNL     1       0.002  -0.004   0.002  0.00  0.00    +0.013 A 
BRANCH  31  34
ATOM     34  O   UNL     1       3.613  -0.607  -0.037  0.00  0.00    -0.506 OA
ATOM     35  H   UNL     1       3.967  -0.800   0.842  0.00  0.00    +0.292 HD
ENDBRANCH  31  34
ENDBRANCH  26  32
ENDBRANCH  22  27
ENDBRANCH   1  23
TORSDOF 8
