REMARK  Name = ZINC12314716
REMARK  7 active torsions:
REMARK  status: ('A' for Active; 'I' for Inactive)
REMARK    1  A    between atoms: C_1  and  C_2
REMARK    2  A    between atoms: C_2  and  C_3
REMARK    3  A    between atoms: C_2  and  N_4
REMARK    4  A    between atoms: C_6  and  C_9
REMARK    5  A    between atoms: C_23  and  C_24
REMARK    6  A    between atoms: C_23  and  N_61
REMARK    7  A    between atoms: N_27  and  C_29
REMARK                            x       y       z     vdW  Elec       q    Type
REMARK                         _______ _______ _______ _____ _____    ______ ____
ROOT
ATOM      1  C   UNL     1      -1.204  -0.907   0.009  0.00  0.00    +0.014 C 
ATOM      2  C   UNL     1      -1.772  -1.006  -1.387  0.00  0.00    +0.011 A 
ATOM      3  C   UNL     1      -3.097  -0.942  -1.650  0.00  0.00    -0.022 A 
ATOM      4  C   UNL     1      -3.256  -1.072  -3.081  0.00  0.00    +0.003 A 
ATOM      5  C   UNL     1      -4.378  -1.077  -3.916  0.00  0.00    +0.010 A 
ATOM      6  C   UNL     1      -4.149  -1.226  -5.262  0.00  0.00    +0.001 A 
ATOM      7  C   UNL     1      -2.872  -1.365  -5.780  0.00  0.00    +0.002 A 
ATOM      8  C   UNL     1      -1.745  -1.363  -4.978  0.00  0.00    +0.026 A 
ATOM      9  C   UNL     1      -1.946  -1.214  -3.607  0.00  0.00    +0.047 A 
ATOM     10  N   UNL     1      -1.077  -1.169  -2.554  0.00  0.00    -0.359 N 
ATOM     11  H   UNL     1      -0.112  -1.243  -2.623  0.00  0.00    +0.166 HD
ATOM     12  C   UNL     1      -4.149  -0.767  -0.583  0.00  0.00    +0.019 C 
ATOM     13  C   UNL     1      -3.505  -1.080   0.774  0.00  0.00    -0.072 C 
ATOM     14  N   UNL     1      -2.241  -0.315   0.887  0.00  0.00    +0.391 N 
ATOM     15  H   UNL     1      -2.412   0.653   0.593  0.00  0.00    -0.080 HD
ENDROOT
BRANCH   1  18
ATOM     16  N   UNL     1       2.067   0.704  -0.014  0.00  0.00    -0.269 N 
ATOM     17  C   UNL     1       1.295  -0.403  -0.013  0.00  0.00    +0.111 A 
ATOM     18  C   UNL     1       0.002  -0.004   0.002  0.00  0.00    -0.018 A 
ATOM     19  C   UNL     1      -0.017   1.395   0.010  0.00  0.00    +0.136 A 
ATOM     20  N   UNL     1       1.220   1.820   0.000  0.00  0.00    -0.179 NA
BRANCH  16  22
ATOM     21  C   UNL     1       4.058   0.610   1.404  0.00  0.00    +0.032 C 
ATOM     22  C   UNL     1       3.532   0.734  -0.028  0.00  0.00    +0.101 C 
ATOM     23  C   UNL     1       4.057  -0.433  -0.866  0.00  0.00    +0.032 C 
ENDBRANCH  16  22
ENDBRANCH   1  18
BRANCH  14  24
ATOM     24  C   UNL     1      -1.776  -0.316   2.289  0.00  0.00    -0.038 C 
BRANCH  24  25
ATOM     25  C   UNL     1      -2.747   0.481   3.122  0.00  0.00    -0.026 A 
ATOM     26  C   UNL     1      -2.684   1.857   3.367  0.00  0.00    +0.136 A 
ATOM     27  N   UNL     1      -3.697   2.185   4.128  0.00  0.00    -0.175 NA
ATOM     28  N   UNL     1      -4.434   1.024   4.399  0.00  0.00    -0.240 N 
ATOM     29  C   UNL     1      -3.829  -0.009   3.770  0.00  0.00    +0.116 A 
BRANCH  28  30
ATOM     30  C   UNL     1      -5.593   0.948   5.184  0.00  0.00    +0.065 A 
ATOM     31  C   UNL     1      -6.230  -0.273   5.366  0.00  0.00    +0.028 A 
ATOM     32  C   UNL     1      -7.369  -0.346   6.144  0.00  0.00    +0.002 A 
ATOM     33  C   UNL     1      -7.881   0.796   6.732  0.00  0.00    +0.000 A 
ATOM     34  C   UNL     1      -7.252   2.014   6.548  0.00  0.00    +0.002 A 
ATOM     35  C   UNL     1      -6.110   2.092   5.775  0.00  0.00    +0.028 A 
ENDBRANCH  28  30
ENDBRANCH  24  25
ENDBRANCH  14  24
TORSDOF 5
