REMARK  Name = ZINC34775459
REMARK  6 active torsions:
REMARK  status: ('A' for Active; 'I' for Inactive)
REMARK    1  A    between atoms: C_4  and  C_7
REMARK    2  A    between atoms: C_10  and  N_14
REMARK    3  A    between atoms: C_11  and  C_12
REMARK    4  A    between atoms: N_20  and  C_23
REMARK    5  A    between atoms: C_23  and  C_24
REMARK    6  A    between atoms: N_26  and  C_27
REMARK                            x       y       z     vdW  Elec       q    Type
REMARK                         _______ _______ _______ _____ _____    ______ ____
ROOT
ATOM      1  N   UNL     1       7.695  -3.335   0.357  0.00  0.00    -0.263 N 
ATOM      2  C   UNL     1       6.954  -3.879   1.342  0.00  0.00    +0.307 C 
ATOM      3  O   UNL     1       5.873  -3.400   1.624  0.00  0.00    -0.252 OA
ATOM      4  N   UNL     1       7.412  -4.953   2.015  0.00  0.00    -0.289 N 
ATOM      5  C   UNL     1       6.572  -5.637   3.010  0.00  0.00    +0.091 C 
ATOM      6  C   UNL     1       7.380  -5.793   4.303  0.00  0.00    -0.059 C 
ATOM      7  N   UNL     1       8.646  -6.475   4.008  0.00  0.00    +0.387 N 
ATOM      8  C   UNL     1       9.470  -5.640   3.125  0.00  0.00    -0.059 C 
ATOM      9  C   UNL     1       8.764  -5.479   1.770  0.00  0.00    +0.091 C 
ATOM     10  H   UNL     1       8.588  -3.670   0.180  0.00  0.00    +0.157 HD
ATOM     11  H   UNL     1       8.454  -7.356   3.553  0.00  0.00    -0.081 HD
ENDROOT
BRANCH   1  15
ATOM     12  C   UNL     1       7.003  -0.555  -2.076  0.00  0.00    +0.008 A 
ATOM     13  C   UNL     1       5.756  -0.315  -1.597  0.00  0.00    +0.056 A 
ATOM     14  S   UNL     1       5.587  -1.507  -0.283  0.00  0.00    -0.080 S 
ATOM     15  C   UNL     1       7.181  -2.295  -0.405  0.00  0.00    +0.091 A 
ATOM     16  C   UNL     1       7.777  -1.612  -1.458  0.00  0.00    +0.088 A 
BRANCH  12  20
ATOM     17  C   UNL     1       8.582   1.714  -5.306  0.00  0.00    +0.000 A 
ATOM     18  C   UNL     1       7.324   1.149  -5.411  0.00  0.00    +0.001 A 
ATOM     19  C   UNL     1       6.806   0.412  -4.366  0.00  0.00    +0.008 A 
ATOM     20  C   UNL     1       7.554   0.236  -3.203  0.00  0.00    -0.016 A 
ATOM     21  C   UNL     1       8.822   0.807  -3.103  0.00  0.00    +0.008 A 
ATOM     22  C   UNL     1       9.329   1.543  -4.154  0.00  0.00    +0.001 A 
ENDBRANCH  12  20
BRANCH  16  23
ATOM     23  C   UNL     1       9.098  -1.934  -1.907  0.00  0.00    +0.102 C 
ATOM     24  N   UNL     1      10.146  -2.190  -2.264  0.00  0.00    -0.191 NA
ENDBRANCH  16  23
ENDBRANCH   1  15
BRANCH   7  25
ATOM     25  C   UNL     1       9.370  -6.723   5.261  0.00  0.00    +0.019 C 
BRANCH  25  26
ATOM     26  C   UNL     1      10.610  -7.531   4.974  0.00  0.00    +0.201 C 
ATOM     27  O   UNL     1      10.865  -7.867   3.837  0.00  0.00    -0.278 OA
ATOM     28  N   UNL     1      11.435  -7.880   5.981  0.00  0.00    -0.287 N 
ATOM     29  H   UNL     1      11.198  -7.670   6.898  0.00  0.00    +0.155 HD
BRANCH  28  30
ATOM     30  C   UNL     1      12.635  -8.545   5.704  0.00  0.00    +0.033 A 
ATOM     31  C   UNL     1      13.762  -8.296   6.475  0.00  0.00    +0.023 A 
ATOM     32  C   UNL     1      14.945  -8.954   6.199  0.00  0.00    +0.002 A 
ATOM     33  C   UNL     1      15.007  -9.860   5.156  0.00  0.00    +0.000 A 
ATOM     34  C   UNL     1      13.886 -10.109   4.385  0.00  0.00    +0.002 A 
ATOM     35  C   UNL     1      12.698  -9.459   4.660  0.00  0.00    +0.023 A 
ENDBRANCH  28  30
ENDBRANCH  25  26
ENDBRANCH   7  25
TORSDOF 6
