REMARK  Name = ZINC15859975
REMARK  6 active torsions:
REMARK  status: ('A' for Active; 'I' for Inactive)
REMARK    1  A    between atoms: C_3  and  C_6
REMARK    2  A    between atoms: C_6  and  C_8
REMARK    3  A    between atoms: C_6  and  N_63
REMARK    4  A    between atoms: C_8  and  N_9
REMARK    5  A    between atoms: C_10  and  C_12
REMARK    6  A    between atoms: C_14  and  C_17
REMARK                            x       y       z     vdW  Elec       q    Type
REMARK                         _______ _______ _______ _____ _____    ______ ____
ROOT
ATOM      1  N   UNL     1       0.220  -0.118   0.320  0.00  0.00    -0.311 N 
ATOM      2  C   UNL     1      -0.823  -0.905   0.652  0.00  0.00    +0.266 C 
ATOM      3  O   UNL     1      -1.858  -0.407   1.047  0.00  0.00    -0.268 OA
ATOM      4  H   UNL     1       1.046  -0.515   0.004  0.00  0.00    +0.149 HD
ENDROOT
BRANCH   2   5
ATOM      5  C   UNL     1      -0.706  -2.379   0.535  0.00  0.00    +0.168 A 
ATOM      6  C   UNL     1      -1.702  -3.339   0.849  0.00  0.00    +0.086 A 
ATOM      7  C   UNL     1      -1.103  -4.536   0.567  0.00  0.00    +0.168 A 
ATOM      8  O   UNL     1       0.138  -4.246   0.139  0.00  0.00    -0.354 OA
ATOM      9  N   UNL     1       0.341  -3.054   0.127  0.00  0.00    -0.073 NA
BRANCH   7  10
ATOM     10  C   UNL     1      -1.699  -5.881   0.712  0.00  0.00    +0.020 A 
ATOM     11  C   UNL     1      -3.009  -6.024   1.173  0.00  0.00    +0.012 A 
ATOM     12  C   UNL     1      -3.550  -7.283   1.304  0.00  0.00    +0.004 A 
ATOM     13  C   UNL     1      -2.807  -8.414   0.981  0.00  0.00    -0.044 A 
ATOM     14  C   UNL     1      -1.514  -8.278   0.522  0.00  0.00    -0.044 A 
ATOM     15  C   UNL     1      -0.960  -7.015   0.385  0.00  0.00    +0.015 A 
ATOM     16  C   UNL     1      -0.660  -9.461   0.147  0.00  0.00    +0.035 C 
ATOM     17  C   UNL     1      -1.230 -10.747   0.742  0.00  0.00    +0.005 C 
ATOM     18  C   UNL     1      -2.716 -10.832   0.375  0.00  0.00    +0.005 C 
ATOM     19  C   UNL     1      -3.467  -9.757   1.157  0.00  0.00    +0.035 C 
ENDBRANCH   7  10
ENDBRANCH   2   5
BRANCH   1  20
ATOM     20  C   UNL     1       0.104   1.338   0.435  0.00  0.00    +0.094 C 
BRANCH  20  21
ATOM     21  C   UNL     1       1.418   1.990  -0.001  0.00  0.00    -0.013 C 
BRANCH  21  28
ATOM     22  C   UNL     1       2.275   1.562   2.232  0.00  0.00    -0.078 C 
ATOM     23  C   UNL     1       3.489   1.253   3.066  0.00  0.00    -0.019 C 
ATOM     24  C   UNL     1       4.234   2.572   3.356  0.00  0.00    -0.002 C 
ATOM     25  C   UNL     1       5.031   3.016   2.217  0.00  0.00    -0.002 C 
ATOM     26  C   UNL     1       4.164   3.289   0.970  0.00  0.00    -0.019 C 
ATOM     27  C   UNL     1       3.826   1.972   0.326  0.00  0.00    -0.078 C 
ATOM     28  N   UNL     1       2.517   1.376   0.761  0.00  0.00    +0.386 N 
ATOM     29  H   UNL     1       2.537   0.369   0.561  0.00  0.00    -0.081 HD
ENDBRANCH  21  28
BRANCH  21  32
ATOM     30  C   UNL     1       1.406   5.794  -0.205  0.00  0.00    +0.008 A 
ATOM     31  C   UNL     1       1.526   4.490  -0.648  0.00  0.00    +0.009 A 
ATOM     32  C   UNL     1       1.342   3.477   0.234  0.00  0.00    -0.022 A 
ATOM     33  S   UNL     1       0.981   4.361   1.742  0.00  0.00    -0.103 S 
ATOM     34  C   UNL     1       1.107   6.021   1.098  0.00  0.00    +0.045 A 
ENDBRANCH  21  32
ENDBRANCH  20  21
ENDBRANCH   1  20
TORSDOF 6
