REMARK  Name = ZINC05663607
REMARK  5 active torsions:
REMARK  status: ('A' for Active; 'I' for Inactive)
REMARK    1  A    between atoms: C_1  and  C_2
REMARK    2  A    between atoms: N_4  and  C_5
REMARK    3  A    between atoms: C_8  and  C_11
REMARK    4  A    between atoms: C_14  and  C_23
REMARK    5  A    between atoms: C_26  and  N_29
REMARK                            x       y       z     vdW  Elec       q    Type
REMARK                         _______ _______ _______ _____ _____    ______ ____
ROOT
ATOM      1  C   UNL     1       0.198   0.880  -0.158  0.00  0.00    +0.087 C 
ATOM      2  C   UNL     1      -0.648   1.233  -1.347  0.00  0.00    +0.075 C 
ATOM      3  C   UNL     1      -0.229   0.516  -2.581  0.00  0.00    +0.050 C 
ATOM      4  N   UNL     1       0.917   0.231  -2.966  0.00  0.00    -0.250 NA
ATOM      5  C   UNL     1       2.200   0.212  -2.608  0.00  0.00    +0.078 A 
ATOM      6  C   UNL     1       3.063  -0.427  -3.529  0.00  0.00    +0.029 A 
ATOM      7  C   UNL     1       4.405  -0.560  -3.282  0.00  0.00    +0.002 A 
ATOM      8  C   UNL     1       4.944  -0.059  -2.108  0.00  0.00    +0.001 A 
ATOM      9  C   UNL     1       4.127   0.579  -1.205  0.00  0.00    +0.017 A 
ATOM     10  C   UNL     1       2.755   0.733  -1.438  0.00  0.00    +0.034 A 
ATOM     11  S   UNL     1       1.840   1.587  -0.215  0.00  0.00    -0.115 S 
ENDROOT
BRANCH   1  15
ATOM     12  C   UNL     1      -1.767   2.271   3.373  0.00  0.00    +0.033 A 
ATOM     13  C   UNL     1      -1.530   0.914   3.197  0.00  0.00    +0.023 A 
ATOM     14  C   UNL     1      -0.895   0.468   2.055  0.00  0.00    +0.006 A 
ATOM     15  C   UNL     1      -0.495   1.371   1.087  0.00  0.00    -0.034 A 
ATOM     16  C   UNL     1      -0.724   2.723   1.262  0.00  0.00    +0.006 A 
ATOM     17  C   UNL     1      -1.364   3.175   2.399  0.00  0.00    +0.023 A 
BRANCH  12  21
ATOM     18  C   UNL     1      -2.980   2.519   6.927  0.00  0.00    +0.109 C 
ATOM     19  C   UNL     1      -2.197   2.108   5.707  0.00  0.00    +0.214 C 
ATOM     20  O   UNL     1      -1.375   1.219   5.785  0.00  0.00    -0.276 OA
ATOM     21  N   UNL     1      -2.410   2.727   4.529  0.00  0.00    -0.286 N 
ATOM     22  H   UNL     1      -3.009   3.489   4.483  0.00  0.00    +0.155 HD
ENDBRANCH  12  21
ENDBRANCH   1  15
BRANCH   3  23
ATOM     23  C   UNL     1      -1.323   0.083  -3.467  0.00  0.00    -0.004 A 
ATOM     24  C   UNL     1      -2.654   0.260  -3.078  0.00  0.00    +0.012 A 
ATOM     25  C   UNL     1      -3.672  -0.144  -3.916  0.00  0.00    +0.033 A 
ATOM     26  C   UNL     1      -3.380  -0.731  -5.134  0.00  0.00    +0.126 A 
ATOM     27  C   UNL     1      -2.064  -0.914  -5.524  0.00  0.00    +0.033 A 
ATOM     28  C   UNL     1      -1.035  -0.511  -4.700  0.00  0.00    +0.012 A 
BRANCH  26  29
ATOM     29  N   UNL     1      -4.479  -1.167  -6.024  0.00  0.00    +0.056 N 
ATOM     30  O   UNL     1      -4.225  -1.685  -7.097  0.00  0.00    -0.126 OA
ATOM     31  O   UNL     1      -5.638  -1.008  -5.684  0.00  0.00    -0.126 OA
ENDBRANCH  26  29
ENDBRANCH   3  23
TORSDOF 4
