REMARK  Name = ZINC48373896
REMARK  4 active torsions:
REMARK  status: ('A' for Active; 'I' for Inactive)
REMARK    1  A    between atoms: C_4  and  C_7
REMARK    2  A    between atoms: C_7  and  C_9
REMARK    3  A    between atoms: C_7  and  O_26
REMARK    4  A    between atoms: C_9  and  N_10
REMARK                            x       y       z     vdW  Elec       q    Type
REMARK                         _______ _______ _______ _____ _____    ______ ____
ROOT
ATOM      1  N   UNL     1       5.358  -1.774  -1.497  0.00  0.00    -0.221 N 
ATOM      2  C   UNL     1       6.561  -1.173  -1.599  0.00  0.00    +0.251 C 
ATOM      3  O   UNL     1       6.783   0.015  -1.690  0.00  0.00    -0.272 OA
ATOM      4  C   UNL     1       7.577  -2.294  -1.575  0.00  0.00    +0.138 C 
ATOM      5  C   UNL     1       8.370  -2.315  -2.876  0.00  0.00    +0.040 C 
ATOM      6  C   UNL     1       9.508  -3.333  -2.735  0.00  0.00    +0.008 C 
ATOM      7  C   UNL     1      10.522  -2.788  -1.730  0.00  0.00    +0.035 C 
ATOM      8  C   UNL     1       9.837  -2.380  -0.452  0.00  0.00    -0.042 A 
ATOM      9  C   UNL     1       8.480  -2.149  -0.383  0.00  0.00    -0.012 A 
ATOM     10  C   UNL     1       7.909  -1.769   0.825  0.00  0.00    +0.006 A 
ATOM     11  C   UNL     1       8.689  -1.624   1.954  0.00  0.00    +0.000 A 
ATOM     12  C   UNL     1      10.049  -1.859   1.885  0.00  0.00    +0.000 A 
ATOM     13  C   UNL     1      10.619  -2.235   0.686  0.00  0.00    +0.004 A 
ATOM     14  N   UNL     1       6.761  -3.509  -1.452  0.00  0.00    -0.281 N 
ATOM     15  C   UNL     1       5.477  -3.104  -1.408  0.00  0.00    +0.310 C 
ATOM     16  O   UNL     1       4.533  -3.862  -1.303  0.00  0.00    -0.252 OA
ATOM     17  H   UNL     1       7.083  -4.423  -1.407  0.00  0.00    +0.152 HD
ENDROOT
BRANCH   1  18
ATOM     18  C   UNL     1       4.080  -1.059  -1.480  0.00  0.00    +0.154 C 
BRANCH  18  19
ATOM     19  C   UNL     1       3.711  -0.707  -0.038  0.00  0.00    +0.162 C 
BRANCH  19  23
ATOM     20  C   UNL     1      -0.017   1.378   0.010  0.00  0.00    +0.000 A 
ATOM     21  C   UNL     1       1.171   2.086   0.002  0.00  0.00    +0.000 A 
ATOM     22  C   UNL     1       2.377   1.411  -0.013  0.00  0.00    +0.006 A 
ATOM     23  C   UNL     1       2.396   0.029  -0.020  0.00  0.00    -0.018 A 
ATOM     24  C   UNL     1       1.208  -0.679  -0.012  0.00  0.00    +0.006 A 
ATOM     25  C   UNL     1       0.002  -0.004   0.002  0.00  0.00    +0.000 A 
ENDBRANCH  19  23
BRANCH  19  26
ATOM     26  O   UNL     1       3.596  -1.907   0.731  0.00  0.00    -0.386 OA
ATOM     27  H   UNL     1       2.922  -2.519   0.405  0.00  0.00    +0.210 HD
ENDBRANCH  19  26
ENDBRANCH  18  19
ENDBRANCH   1  18
TORSDOF 4
