REMARK  Name = ZINC06257586
REMARK  2 active torsions:
REMARK  status: ('A' for Active; 'I' for Inactive)
REMARK    1  A    between atoms: C_3  and  C_24
REMARK    2  A    between atoms: C_6  and  C_7
REMARK                            x       y       z     vdW  Elec       q    Type
REMARK                         _______ _______ _______ _____ _____    ______ ____
ROOT
ATOM      1  C   UNL     1       3.584   1.792  -0.505  0.00  0.00    +0.105 C 
ATOM      2  C   UNL     1       3.698   3.134   0.193  0.00  0.00    +0.029 C 
ATOM      3  C   UNL     1       3.698   2.963   1.730  0.00  0.00    +0.033 C 
ATOM      4  C   UNL     1       3.116   4.278   2.217  0.00  0.00    -0.030 C 
ATOM      5  C   UNL     1       2.420   4.850   1.267  0.00  0.00    -0.023 C 
ATOM      6  C   UNL     1       2.440   4.000  -0.004  0.00  0.00    +0.049 C 
ATOM      7  C   UNL     1       1.175   3.170   0.009  0.00  0.00    -0.018 A 
ATOM      8  C   UNL     1      -0.042   3.839   0.021  0.00  0.00    +0.021 A 
ATOM      9  C   UNL     1      -1.229   3.134   0.028  0.00  0.00    +0.018 A 
ATOM     10  C   UNL     1      -1.217   1.750   0.017  0.00  0.00    +0.017 A 
ATOM     11  C   UNL     1      -0.013   1.076   0.008  0.00  0.00    +0.024 A 
ATOM     12  C   UNL     1       1.182   1.787   0.000  0.00  0.00    +0.031 A 
ATOM     13  N   UNL     1       2.393   1.086  -0.019  0.00  0.00    -0.336 N 
ATOM     14 BR   UNL     1      -2.876   4.062   0.044  0.00  0.00    -0.050 Br
ATOM     15  H   UNL     1       2.443   0.164   0.279  0.00  0.00    +0.147 HD
ENDROOT
BRANCH   1  21
ATOM     16  C   UNL     1       2.246   2.354  -2.544  0.00  0.00    +0.006 A 
ATOM     17  C   UNL     1       2.134   2.557  -3.904  0.00  0.00    +0.015 A 
ATOM     18  C   UNL     1       3.252   2.403  -4.725  0.00  0.00    +0.063 A 
ATOM     19  C   UNL     1       4.480   2.048  -4.162  0.00  0.00    +0.015 A 
ATOM     20  C   UNL     1       4.580   1.853  -2.800  0.00  0.00    +0.006 A 
ATOM     21  C   UNL     1       3.467   2.008  -1.992  0.00  0.00    -0.027 A 
BRANCH  18  22
ATOM     22  C   UNL     1       3.138   2.615  -6.183  0.00  0.00    +0.387 C 
ATOM     23  O   UNL     1       4.113   2.480  -6.894  0.00  0.00    -0.241 OA
ATOM     24  O   UNL     1       1.952   2.957  -6.723  0.00  0.00    -0.241 OA
ENDBRANCH  18  22
ENDBRANCH   1  21
TORSDOF 2
