REMARK  Name = ZINC12209583
REMARK  12 active torsions:
REMARK  status: ('A' for Active; 'I' for Inactive)
REMARK    1  A    between atoms: C_1  and  C_2
REMARK    2  A    between atoms: C_2  and  C_3
REMARK    3  A    between atoms: C_2  and  C_4
REMARK    4  A    between atoms: C_4  and  C_5
REMARK    5  A    between atoms: C_5  and  C_6
REMARK    6  A    between atoms: C_6  and  C_13
REMARK    7  A    between atoms: C_18  and  C_19
REMARK    8  A    between atoms: C_18  and  N_64
REMARK    9  A    between atoms: C_22  and  O_25
REMARK   10  A    between atoms: O_25  and  C_26
REMARK   11  A    between atoms: C_26  and  C_27
REMARK   12  A    between atoms: C_26  and  C_28
REMARK                            x       y       z     vdW  Elec       q    Type
REMARK                         _______ _______ _______ _____ _____    ______ ____
ROOT
ATOM      1  C   UNL     1      -0.842   4.863   2.053  0.00  0.00    +0.018 C 
ATOM      2  C   UNL     1       0.305   5.841   1.780  0.00  0.00    -0.013 C 
ATOM      3  C   UNL     1      -0.221   7.275   1.871  0.00  0.00    -0.078 C 
ATOM      4  C   UNL     1      -1.915   6.614   3.473  0.00  0.00    -0.078 C 
ATOM      5  C   UNL     1      -1.439   5.160   3.431  0.00  0.00    -0.013 C 
ATOM      6  N   UNL     1      -0.760   7.504   3.229  0.00  0.00    +0.382 N 
ATOM      7  H   UNL     1      -0.027   7.296   3.917  0.00  0.00    -0.081 HD
ENDROOT
BRANCH   1   8
ATOM      8  C   UNL     1      -0.309   3.429   2.024  0.00  0.00    +0.115 C 
ATOM      9  C   UNL     1       0.621   3.182   3.196  0.00  0.00    +0.244 C 
ATOM     10  O   UNL     1       1.662   3.753   3.437  0.00  0.00    -0.273 OA
ATOM     11  N   UNL     1       0.048   2.196   3.914  0.00  0.00    -0.238 N 
ATOM     12  C   UNL     1      -1.103   1.790   3.365  0.00  0.00    +0.307 C 
ATOM     13  O   UNL     1      -1.802   0.912   3.831  0.00  0.00    -0.252 OA
ATOM     14  N   UNL     1      -1.400   2.463   2.238  0.00  0.00    -0.285 N 
ATOM     15  H   UNL     1       0.422   1.827   4.729  0.00  0.00    +0.159 HD
ATOM     16  H   UNL     1      -2.181   2.337   1.677  0.00  0.00    +0.151 HD
BRANCH   8  17
ATOM     17  C   UNL     1       0.407   3.149   0.701  0.00  0.00    +0.036 C 
BRANCH  17  18
ATOM     18  C   UNL     1       0.773   1.665   0.624  0.00  0.00    +0.005 C 
BRANCH  18  20
ATOM     19  C   UNL     1       1.743  -0.118  -0.833  0.00  0.00    +0.007 C 
ATOM     20  C   UNL     1       1.488   1.385  -0.699  0.00  0.00    -0.017 C 
ATOM     21  C   UNL     1       2.823   2.132  -0.726  0.00  0.00    +0.007 C 
ENDBRANCH  18  20
ENDBRANCH  17  18
ENDBRANCH   8  17
ENDBRANCH   1   8
BRANCH   6  22
ATOM     22  C   UNL     1      -1.171   8.915   3.377  0.00  0.00    -0.043 C 
BRANCH  22  23
ATOM     23  C   UNL     1       0.059   9.785   3.341  0.00  0.00    -0.064 A 
ATOM     24  C   UNL     1       0.733  10.077   4.512  0.00  0.00    +0.005 A 
ATOM     25  C   UNL     1       1.865  10.869   4.481  0.00  0.00    +0.046 A 
ATOM     26  C   UNL     1       2.317  11.382   3.273  0.00  0.00    +0.121 A 
ATOM     27  C   UNL     1       1.636  11.092   2.100  0.00  0.00    +0.046 A 
ATOM     28  C   UNL     1       0.509  10.294   2.136  0.00  0.00    +0.005 A 
BRANCH  26  29
ATOM     29  O   UNL     1       3.426  12.167   3.241  0.00  0.00    -0.489 OA
BRANCH  29  30
ATOM     30  C   UNL     1       4.008  12.520   4.497  0.00  0.00    +0.167 C 
ATOM     31  C   UNL     1       4.952  11.406   4.954  0.00  0.00    +0.051 C 
ATOM     32  C   UNL     1       4.794  13.824   4.346  0.00  0.00    +0.051 C 
ENDBRANCH  29  30
ENDBRANCH  26  29
ENDBRANCH  22  23
ENDBRANCH   6  22
TORSDOF 8
