REMARK  Name = ZINC59660475
REMARK  8 active torsions:
REMARK  status: ('A' for Active; 'I' for Inactive)
REMARK    1  A    between atoms: C_1  and  C_2
REMARK    2  A    between atoms: C_2  and  N_3
REMARK    3  A    between atoms: N_3  and  C_4
REMARK    4  A    between atoms: N_3  and  C_6
REMARK    5  A    between atoms: C_4  and  C_5
REMARK    6  A    between atoms: C_9  and  C_12
REMARK    7  A    between atoms: C_23  and  S_28
REMARK    8  A    between atoms: S_28  and  N_31
REMARK                            x       y       z     vdW  Elec       q    Type
REMARK                         _______ _______ _______ _____ _____    ______ ____
ROOT
ATOM      1  C   UNL     1      -1.302  -6.165   0.447  0.00  0.00    +0.105 C 
ATOM      2  C   UNL     1      -0.177  -6.607   1.365  0.00  0.00    +0.029 C 
ATOM      3  C   UNL     1       1.236  -6.112   1.030  0.00  0.00    +0.033 C 
ATOM      4  C   UNL     1       1.884  -6.068   2.415  0.00  0.00    -0.030 C 
ATOM      5  C   UNL     1       0.953  -5.905   3.347  0.00  0.00    -0.023 C 
ATOM      6  C   UNL     1      -0.388  -5.816   2.691  0.00  0.00    +0.049 C 
ATOM      7  C   UNL     1      -1.629  -6.314   3.324  0.00  0.00    -0.018 A 
ATOM      8  C   UNL     1      -1.775  -6.412   4.690  0.00  0.00    +0.034 A 
ATOM      9  C   UNL     1      -2.960  -6.872   5.234  0.00  0.00    +0.109 A 
ATOM     10  C   UNL     1      -4.006  -7.236   4.404  0.00  0.00    +0.030 A 
ATOM     11  C   UNL     1      -3.867  -7.147   3.035  0.00  0.00    +0.025 A 
ATOM     12  C   UNL     1      -2.678  -6.692   2.478  0.00  0.00    +0.031 A 
ATOM     13  N   UNL     1      -2.549  -6.645   1.081  0.00  0.00    -0.336 N 
ATOM     14  H   UNL     1      -3.288  -6.931   0.522  0.00  0.00    +0.147 HD
ENDROOT
BRANCH   1  18
ATOM     15  C   UNL     1      -1.358  -1.906   0.119  0.00  0.00    +0.013 A 
ATOM     16  C   UNL     1      -0.597  -2.657  -0.757  0.00  0.00    +0.022 A 
ATOM     17  C   UNL     1      -0.579  -4.035  -0.651  0.00  0.00    +0.007 A 
ATOM     18  C   UNL     1      -1.321  -4.663   0.332  0.00  0.00    -0.027 A 
ATOM     19  C   UNL     1      -2.081  -3.912   1.209  0.00  0.00    +0.007 A 
ATOM     20  C   UNL     1      -2.096  -2.533   1.106  0.00  0.00    +0.022 A 
BRANCH  15  21
ATOM     21  N   UNL     1      -1.376  -0.513   0.012  0.00  0.00    -0.394 NA
ATOM     22  H   UNL     1      -1.974  -0.128   0.728  0.00  0.00    +0.126 HD
BRANCH  21  24
ATOM     23  C   UNL     1      -0.050   1.539   0.187  0.00  0.00    +0.022 C 
ATOM     24  C   UNL     1      -0.013   0.009   0.180  0.00  0.00    +0.081 C 
ENDBRANCH  21  24
BRANCH  21  25
ATOM     25  C   UNL     1      -1.887  -0.130  -1.311  0.00  0.00    +0.081 C 
ATOM     26  C   UNL     1      -3.348  -0.565  -1.438  0.00  0.00    +0.022 C 
ENDBRANCH  21  25
ENDBRANCH  15  21
ENDBRANCH   1  18
BRANCH   9  27
ATOM     27  S   UNL     1      -3.139  -6.995   6.982  0.00  0.00    +0.075 S 
ATOM     28  O   UNL     1      -4.147  -7.968   7.220  0.00  0.00    -0.150 OA
ATOM     29  O   UNL     1      -1.827  -7.112   7.517  0.00  0.00    -0.150 OA
BRANCH  27  30
ATOM     30  N   UNL     1      -3.741  -5.548   7.517  0.00  0.00    -0.202 N 
ATOM     31  C   UNL     1      -2.928  -4.400   7.925  0.00  0.00    +0.136 C 
ATOM     32  C   UNL     1      -3.938  -3.315   8.332  0.00  0.00    +0.058 C 
ATOM     33  C   UNL     1      -5.291  -3.955   8.115  0.00  0.00    -0.023 A 
ATOM     34  C   UNL     1      -5.097  -5.242   7.638  0.00  0.00    +0.054 A 
ATOM     35  C   UNL     1      -6.212  -6.035   7.355  0.00  0.00    +0.025 A 
ATOM     36  C   UNL     1      -7.484  -5.539   7.546  0.00  0.00    +0.002 A 
ATOM     37  C   UNL     1      -7.666  -4.252   8.018  0.00  0.00    +0.000 A 
ATOM     38  C   UNL     1      -6.567  -3.464   8.309  0.00  0.00    +0.005 A 
ENDBRANCH  27  30
ENDBRANCH   9  27
TORSDOF 6
