REMARK  Name = ZINC19840599
REMARK  12 active torsions:
REMARK  status: ('A' for Active; 'I' for Inactive)
REMARK    1  A    between atoms: N_3  and  C_24
REMARK    2  A    between atoms: N_6  and  C_7
REMARK    3  A    between atoms: C_7  and  C_8
REMARK    4  A    between atoms: C_8  and  C_9
REMARK    5  A    between atoms: C_9  and  N_10
REMARK    6  A    between atoms: C_11  and  C_13
REMARK    7  A    between atoms: C_13  and  C_14
REMARK    8  A    between atoms: C_24  and  C_25
REMARK    9  A    between atoms: C_25  and  C_26
REMARK   10  A    between atoms: C_26  and  N_27
REMARK   11  A    between atoms: C_28  and  C_30
REMARK   12  A    between atoms: C_30  and  C_31
REMARK                            x       y       z     vdW  Elec       q    Type
REMARK                         _______ _______ _______ _____ _____    ______ ____
ROOT
ATOM      1  C   UNL     1     -11.329   1.680   2.901  0.00  0.00    +0.066 C 
ATOM      2  C   UNL     1     -12.731   1.067   2.899  0.00  0.00    -0.063 C 
ATOM      3  N   UNL     1     -13.376   1.318   4.196  0.00  0.00    +0.381 N 
ATOM      4  C   UNL     1     -12.591   0.734   5.292  0.00  0.00    -0.063 C 
ATOM      5  C   UNL     1     -11.188   1.347   5.295  0.00  0.00    +0.066 C 
ATOM      6  N   UNL     1     -10.544   1.097   3.998  0.00  0.00    -0.306 NA
ATOM      7  H   UNL     1     -13.417   2.406   4.349  0.00  0.00    -0.082 HD
ENDROOT
BRANCH   6   8
ATOM      8  C   UNL     1      -9.166   1.605   3.988  0.00  0.00    +0.086 C 
BRANCH   8   9
ATOM      9  C   UNL     1      -8.450   1.111   2.729  0.00  0.00    +0.034 C 
BRANCH   9  10
ATOM     10  C   UNL     1      -7.014   1.641   2.718  0.00  0.00    +0.105 C 
BRANCH  10  11
ATOM     11  N   UNL     1      -6.329   1.169   1.513  0.00  0.00    -0.315 N 
ATOM     12  C   UNL     1      -5.045   1.513   1.289  0.00  0.00    +0.214 C 
ATOM     13  O   UNL     1      -4.457   2.214   2.085  0.00  0.00    -0.276 OA
ATOM     14  H   UNL     1      -6.862   0.533   0.790  0.00  0.00    +0.149 HD
BRANCH  12  15
ATOM     15  C   UNL     1      -4.340   1.027   0.049  0.00  0.00    +0.102 C 
BRANCH  15  16
ATOM     16  C   UNL     1      -2.904   1.556   0.038  0.00  0.00    -0.020 C 
ATOM     17  C   UNL     1      -2.188   1.063  -1.221  0.00  0.00    +0.011 C 
ATOM     18  C   UNL     1      -0.753   1.593  -1.232  0.00  0.00    -0.010 C 
ATOM     19  C   UNL     1      -0.013   1.086   0.008  0.00  0.00    +0.007 C 
ATOM     20  C   UNL     1      -0.729   1.579   1.267  0.00  0.00    -0.010 C 
ATOM     21  C   UNL     1      -2.164   1.050   1.278  0.00  0.00    +0.011 C 
ATOM     22  C   UNL     1      -0.750   3.109   1.275  0.00  0.00    +0.007 C 
ATOM     23  C   UNL     1      -1.490   3.616   0.036  0.00  0.00    -0.010 C 
ATOM     24  C   UNL     1      -0.773   3.123  -1.223  0.00  0.00    +0.007 C 
ATOM     25  C   UNL     1      -2.925   3.086   0.047  0.00  0.00    +0.011 C 
ENDBRANCH  15  16
ENDBRANCH  12  15
ENDBRANCH  10  11
ENDBRANCH   9  10
ENDBRANCH   8   9
ENDBRANCH   6   8
BRANCH   3  26
ATOM     26  C   UNL     1     -14.754   0.810   4.206  0.00  0.00    -0.077 C 
BRANCH  26  27
ATOM     27  C   UNL     1     -15.602   1.615   3.220  0.00  0.00    +0.000 C 
BRANCH  27  28
ATOM     28  C   UNL     1     -17.037   1.086   3.231  0.00  0.00    +0.102 C 
BRANCH  28  29
ATOM     29  N   UNL     1     -17.850   1.857   2.287  0.00  0.00    -0.315 N 
ATOM     30  C   UNL     1     -19.156   1.566   2.127  0.00  0.00    +0.214 C 
ATOM     31  O   UNL     1     -19.659   0.666   2.765  0.00  0.00    -0.276 OA
ATOM     32  H   UNL     1     -17.393   2.674   1.708  0.00  0.00    +0.149 HD
BRANCH  30  33
ATOM     33  C   UNL     1     -19.991   2.360   1.156  0.00  0.00    +0.102 C 
BRANCH  33  34
ATOM     34  C   UNL     1     -21.427   1.830   1.167  0.00  0.00    -0.020 C 
ATOM     35  C   UNL     1     -21.430   0.356   0.756  0.00  0.00    +0.011 C 
ATOM     36  C   UNL     1     -22.865  -0.174   0.767  0.00  0.00    -0.010 C 
ATOM     37  C   UNL     1     -23.713   0.632  -0.219  0.00  0.00    +0.007 C 
ATOM     38  C   UNL     1     -23.711   2.106   0.192  0.00  0.00    -0.010 C 
ATOM     39  C   UNL     1     -22.275   2.635   0.181  0.00  0.00    +0.011 C 
ATOM     40  C   UNL     1     -24.295   2.245   1.599  0.00  0.00    +0.007 C 
ATOM     41  C   UNL     1     -23.446   1.439   2.585  0.00  0.00    -0.010 C 
ATOM     42  C   UNL     1     -23.449  -0.035   2.175  0.00  0.00    +0.007 C 
ATOM     43  C   UNL     1     -22.011   1.969   2.574  0.00  0.00    +0.011 C 
ENDBRANCH  33  34
ENDBRANCH  30  33
ENDBRANCH  28  29
ENDBRANCH  27  28
ENDBRANCH  26  27
ENDBRANCH   3  26
TORSDOF 12
