REMARK  Name = ZINC29386508
REMARK  9 active torsions:
REMARK  status: ('A' for Active; 'I' for Inactive)
REMARK    1  A    between atoms: C_1  and  C_2
REMARK    2  A    between atoms: C_2  and  C_3
REMARK    3  A    between atoms: C_3  and  C_4
REMARK    4  A    between atoms: C_4  and  C_5
REMARK    5  A    between atoms: C_5  and  N_6
REMARK    6  A    between atoms: C_15  and  C_17
REMARK    7  A    between atoms: N_19  and  N_20
REMARK    8  A    between atoms: C_21  and  C_23
REMARK    9  A    between atoms: C_23  and  C_26
REMARK                            x       y       z     vdW  Elec       q    Type
REMARK                         _______ _______ _______ _____ _____    ______ ____
ROOT
ATOM      1  C   UNL     1       1.146   1.729  -0.019  0.00  0.00    +0.281 C 
ATOM      2  O   UNL     1       1.111   2.944  -0.022  0.00  0.00    -0.267 OA
ATOM      3  N   UNL     1      -0.001   1.022  -0.002  0.00  0.00    -0.229 N 
ATOM      4  H   UNL     1       0.031  -0.078   0.005  0.00  0.00    +0.173 HD
ENDROOT
BRANCH   1  14
ATOM      5  N   UNL     1       3.575  -0.964  -0.040  0.00  0.00    -0.228 N 
ATOM      6  C   UNL     1       4.804  -0.410  -0.057  0.00  0.00    +0.275 A 
ATOM      7  O   UNL     1       5.802  -1.107  -0.067  0.00  0.00    -0.266 OA
ATOM      8  C   UNL     1       4.911   1.056  -0.063  0.00  0.00    +0.050 A 
ATOM      9  C   UNL     1       6.131   1.724  -0.081  0.00  0.00    +0.014 A 
ATOM     10  C   UNL     1       6.146   3.103  -0.086  0.00  0.00    +0.001 A 
ATOM     11  C   UNL     1       4.960   3.825  -0.074  0.00  0.00    +0.001 A 
ATOM     12  C   UNL     1       3.741   3.181  -0.057  0.00  0.00    +0.011 A 
ATOM     13  C   UNL     1       3.703   1.791  -0.057  0.00  0.00    +0.020 A 
ATOM     14  C   UNL     1       2.445   1.028  -0.033  0.00  0.00    +0.155 A 
ATOM     15  N   UNL     1       2.492  -0.282  -0.029  0.00  0.00    -0.163 NA
BRANCH   5  16
ATOM     16  C   UNL     1       3.473  -2.426  -0.035  0.00  0.00    +0.147 C 
BRANCH  16  17
ATOM     17  C   UNL     1       3.455  -2.930   1.410  0.00  0.00    +0.023 C 
BRANCH  17  18
ATOM     18  C   UNL     1       3.349  -4.457   1.415  0.00  0.00    +0.002 C 
BRANCH  18  20
ATOM     19  C   UNL     1       3.226  -6.488   2.865  0.00  0.00    +0.004 C 
ATOM     20  C   UNL     1       3.332  -4.961   2.860  0.00  0.00    -0.003 C 
ENDBRANCH  18  20
ENDBRANCH  17  18
ENDBRANCH  16  17
ENDBRANCH   5  16
ENDBRANCH   1  14
BRANCH   3  21
ATOM     21  N   UNL     1      -1.234   1.687   0.005  0.00  0.00    -0.233 N 
ATOM     22  C   UNL     1      -2.381   0.980   0.016  0.00  0.00    +0.240 C 
ATOM     23  O   UNL     1      -2.349  -0.229  -0.076  0.00  0.00    -0.273 OA
ATOM     24  H   UNL     1      -1.266   2.786   0.002  0.00  0.00    +0.173 HD
BRANCH  22  25
ATOM     25  C   UNL     1      -3.704   1.691   0.143  0.00  0.00    +0.073 C 
ATOM     26  C   UNL     1      -4.824   1.276  -0.814  0.00  0.00    +0.022 C 
ATOM     27  C   UNL     1      -4.118   2.621  -1.000  0.00  0.00    +0.022 C 
BRANCH  25  28
ATOM     28  C   UNL     1      -4.096   2.090   1.542  0.00  0.00    -0.032 A 
ATOM     29  C   UNL     1      -4.868   3.218   1.748  0.00  0.00    +0.006 A 
ATOM     30  C   UNL     1      -5.232   3.582   3.031  0.00  0.00    +0.015 A 
ATOM     31  C   UNL     1      -4.814   2.824   4.109  0.00  0.00    +0.018 A 
ATOM     32  C   UNL     1      -4.037   1.698   3.903  0.00  0.00    +0.015 A 
ATOM     33  C   UNL     1      -3.678   1.332   2.619  0.00  0.00    +0.006 A 
ATOM     34 BR   UNL     1      -5.306   3.325   5.865  0.00  0.00    -0.050 Br
ENDBRANCH  25  28
ENDBRANCH  22  25
ENDBRANCH   3  21
TORSDOF 8
