REMARK  Name = ZINC40363135
REMARK  8 active torsions:
REMARK  status: ('A' for Active; 'I' for Inactive)
REMARK    1  A    between atoms: C_4  and  C_7
REMARK    2  A    between atoms: C_7  and  S_8
REMARK    3  A    between atoms: S_8  and  C_9
REMARK    4  A    between atoms: C_12  and  C_22
REMARK    5  A    between atoms: N_13  and  C_14
REMARK    6  A    between atoms: C_22  and  N_23
REMARK    7  A    between atoms: C_24  and  C_26
REMARK    8  A    between atoms: C_26  and  C_28
REMARK                            x       y       z     vdW  Elec       q    Type
REMARK                         _______ _______ _______ _____ _____    ______ ____
ROOT
ATOM      1  C   UNL     1       5.786  -1.866   1.477  0.00  0.00    +0.197 A 
ATOM      2  N   UNL     1       6.367  -2.186   0.344  0.00  0.00    -0.122 NA
ATOM      3  N   UNL     1       7.470  -2.804   0.578  0.00  0.00    -0.132 NA
ATOM      4  C   UNL     1       7.658  -2.916   1.862  0.00  0.00    +0.156 A 
ATOM      5  N   UNL     1       6.595  -2.318   2.484  0.00  0.00    -0.271 N 
ENDROOT
BRANCH   5   6
ATOM      6  C   UNL     1       6.379  -2.196   3.864  0.00  0.00    +0.070 A 
ATOM      7  C   UNL     1       5.691  -3.187   4.551  0.00  0.00    +0.047 A 
ATOM      8  C   UNL     1       5.480  -3.064   5.911  0.00  0.00    +0.043 A 
ATOM      9  C   UNL     1       5.954  -1.954   6.589  0.00  0.00    +0.021 A 
ATOM     10  C   UNL     1       6.639  -0.966   5.908  0.00  0.00    +0.023 A 
ATOM     11  C   UNL     1       6.858  -1.086   4.548  0.00  0.00    +0.065 A 
ATOM     12 CL   UNL     1       7.725   0.153   3.695  0.00  0.00    -0.081 Cl
ATOM     13 CL   UNL     1       4.619  -4.303   6.770  0.00  0.00    -0.083 Cl
ENDBRANCH   5   6
BRANCH   1  14
ATOM     14  S   UNL     1       4.257  -1.011   1.666  0.00  0.00    -0.081 S 
BRANCH  14  15
ATOM     15  C   UNL     1       3.711  -0.707  -0.038  0.00  0.00    +0.112 C 
BRANCH  15  19
ATOM     16  C   UNL     1      -0.017   1.378   0.010  0.00  0.00    +0.000 A 
ATOM     17  C   UNL     1       1.171   2.086   0.002  0.00  0.00    +0.000 A 
ATOM     18  C   UNL     1       2.377   1.411  -0.013  0.00  0.00    +0.004 A 
ATOM     19  C   UNL     1       2.396   0.029  -0.020  0.00  0.00    -0.037 A 
ATOM     20  C   UNL     1       1.208  -0.679  -0.012  0.00  0.00    +0.004 A 
ATOM     21  C   UNL     1       0.002  -0.004   0.002  0.00  0.00    +0.000 A 
ENDBRANCH  15  19
ENDBRANCH  14  15
ENDBRANCH   1  14
BRANCH   4  22
ATOM     22  C   UNL     1       8.832  -3.577   2.538  0.00  0.00    +0.181 C 
BRANCH  22  23
ATOM     23  N   UNL     1       9.887  -2.586   2.764  0.00  0.00    -0.307 N 
ATOM     24  C   UNL     1      11.039  -2.952   3.359  0.00  0.00    +0.236 C 
ATOM     25  O   UNL     1      11.203  -4.102   3.709  0.00  0.00    -0.274 OA
ATOM     26  H   UNL     1       9.756  -1.666   2.485  0.00  0.00    +0.149 HD
BRANCH  24  27
ATOM     27  C   UNL     1      12.124  -1.933   3.592  0.00  0.00    +0.196 C 
ATOM     28 CL   UNL     1      12.162  -1.482   5.337  0.00  0.00    -0.107 Cl
BRANCH  27  29
ATOM     29  C   UNL     1      13.456  -2.517   3.195  0.00  0.00    -0.021 A 
ATOM     30  C   UNL     1      13.972  -3.596   3.888  0.00  0.00    +0.005 A 
ATOM     31  C   UNL     1      15.193  -4.132   3.524  0.00  0.00    +0.000 A 
ATOM     32  C   UNL     1      15.898  -3.589   2.466  0.00  0.00    +0.000 A 
ATOM     33  C   UNL     1      15.381  -2.511   1.772  0.00  0.00    +0.000 A 
ATOM     34  C   UNL     1      14.158  -1.978   2.133  0.00  0.00    +0.005 A 
ENDBRANCH  27  29
ENDBRANCH  24  27
ENDBRANCH  22  23
ENDBRANCH   4  22
TORSDOF 8
