REMARK  Name = ZINC59310293
REMARK  8 active torsions:
REMARK  status: ('A' for Active; 'I' for Inactive)
REMARK    1  A    between atoms: C_1  and  C_2
REMARK    2  A    between atoms: C_2  and  C_4
REMARK    3  A    between atoms: C_2  and  N_10
REMARK    4  A    between atoms: C_11  and  C_13
REMARK    5  A    between atoms: C_13  and  S_14
REMARK    6  A    between atoms: S_14  and  C_15
REMARK    7  A    between atoms: N_20  and  N_21
REMARK    8  A    between atoms: C_22  and  C_23
REMARK                            x       y       z     vdW  Elec       q    Type
REMARK                         _______ _______ _______ _____ _____    ______ ____
ROOT
ATOM      1  C   UNL     1      -5.707  -1.821   2.741  0.00  0.00    +0.211 A 
ATOM      2  N   UNL     1      -6.549  -2.054   3.754  0.00  0.00    -0.186 NA
ATOM      3  C   UNL     1      -7.684  -2.531   3.286  0.00  0.00    +0.232 A 
ATOM      4  N   UNL     1      -7.580  -2.610   1.943  0.00  0.00    -0.245 N 
ATOM      5  N   UNL     1      -6.298  -2.143   1.614  0.00  0.00    -0.144 NA
ATOM      6  N   UNL     1      -8.787  -2.888   4.040  0.00  0.00    -0.205 N 
ATOM      7  H   UNL     1      -9.582  -3.232   3.603  0.00  0.00    +0.177 HD
ATOM      8  H   UNL     1      -8.259  -2.926   1.326  0.00  0.00    +0.192 HD
ENDROOT
BRANCH   6   9
ATOM      9  N   UNL     1      -8.758  -2.753   5.434  0.00  0.00    -0.188 NA
ATOM     10  C   UNL     1      -9.779  -3.083   6.131  0.00  0.00    +0.139 C 
BRANCH  10  11
ATOM     11  C   UNL     1      -9.748  -2.942   7.597  0.00  0.00    +0.002 A 
ATOM     12  C   UNL     1     -10.963  -3.201   8.390  0.00  0.00    +0.010 A 
ATOM     13  C   UNL     1     -10.946  -3.077   9.702  0.00  0.00    +0.009 A 
ATOM     14  C   UNL     1      -9.702  -2.677  10.381  0.00  0.00    -0.017 A 
ATOM     15  C   UNL     1      -9.650  -2.530  11.845  0.00  0.00    +0.009 A 
ATOM     16  C   UNL     1      -8.526  -2.172  12.435  0.00  0.00    +0.009 A 
ATOM     17  C   UNL     1      -7.319  -1.916  11.631  0.00  0.00    -0.017 A 
ATOM     18  C   UNL     1      -6.053  -1.515  12.268  0.00  0.00    +0.008 A 
ATOM     19  C   UNL     1      -4.989  -1.293  11.523  0.00  0.00    +0.001 A 
ATOM     20  C   UNL     1      -5.054  -1.443  10.059  0.00  0.00    +0.008 A 
ATOM     21  C   UNL     1      -6.183  -1.801   9.487  0.00  0.00    -0.017 A 
ATOM     22  C   UNL     1      -7.369  -2.047  10.326  0.00  0.00    -0.002 A 
ATOM     23  C   UNL     1      -8.624  -2.448   9.668  0.00  0.00    -0.002 A 
ATOM     24  C   UNL     1      -8.634  -2.589   8.201  0.00  0.00    -0.008 A 
ATOM     25  C   UNL     1      -7.402  -2.327   7.443  0.00  0.00    +0.010 A 
ATOM     26  C   UNL     1      -6.286  -1.961   8.028  0.00  0.00    +0.009 A 
ENDBRANCH  10  11
ENDBRANCH   6   9
BRANCH   1  27
ATOM     27  S   UNL     1      -4.073  -1.180   2.894  0.00  0.00    -0.075 S 
BRANCH  27  28
ATOM     28  C   UNL     1      -3.474  -1.093   1.184  0.00  0.00    +0.173 C 
BRANCH  28  30
ATOM     29  N   UNL     1      -1.414  -0.401   0.003  0.00  0.00    -0.308 N 
ATOM     30  C   UNL     1      -2.067  -0.553   1.172  0.00  0.00    +0.224 C 
ATOM     31  O   UNL     1      -1.522  -0.256   2.214  0.00  0.00    -0.275 OA
ATOM     32  H   UNL     1      -1.850  -0.638  -0.831  0.00  0.00    +0.149 HD
BRANCH  29  34
ATOM     33  C   UNL     1      -0.087   1.654  -0.001  0.00  0.00    +0.033 C 
ATOM     34  C   UNL     1      -0.046   0.124  -0.009  0.00  0.00    +0.100 C 
BRANCH  34  35
ATOM     35  C   UNL     1       0.664  -0.352  -1.250  0.00  0.00    -0.027 A 
ATOM     36  C   UNL     1      -0.007  -0.392  -2.458  0.00  0.00    +0.005 A 
ATOM     37  C   UNL     1       0.644  -0.829  -3.596  0.00  0.00    +0.000 A 
ATOM     38  C   UNL     1       1.966  -1.226  -3.527  0.00  0.00    +0.000 A 
ATOM     39  C   UNL     1       2.638  -1.185  -2.319  0.00  0.00    +0.000 A 
ATOM     40  C   UNL     1       1.988  -0.744  -1.182  0.00  0.00    +0.005 A 
ENDBRANCH  34  35
ENDBRANCH  29  34
ENDBRANCH  28  30
ENDBRANCH  27  28
ENDBRANCH   1  27
TORSDOF 7
