REMARK  Name = ZINC46583358
REMARK  11 active torsions:
REMARK  status: ('A' for Active; 'I' for Inactive)
REMARK    1  A    between atoms: C_1  and  C_2
REMARK    2  A    between atoms: C_2  and  O_3
REMARK    3  A    between atoms: O_3  and  C_4
REMARK    4  A    between atoms: C_4  and  C_6
REMARK    5  A    between atoms: C_7  and  C_19
REMARK    6  A    between atoms: C_12  and  C_14
REMARK    7  A    between atoms: C_19  and  N_20
REMARK    8  A    between atoms: N_20  and  C_21
REMARK    9  A    between atoms: N_20  and  C_22
REMARK   10  A    between atoms: C_22  and  C_24
REMARK   11  A    between atoms: C_22  and  C_25
REMARK                            x       y       z     vdW  Elec       q    Type
REMARK                         _______ _______ _______ _____ _____    ______ ____
ROOT
ATOM      1  C   UNL     1      -3.032  -2.521   0.301  0.00  0.00    +0.079 C 
ATOM      2  C   UNL     1      -3.088  -3.824  -0.051  0.00  0.00    +0.008 C 
ATOM      3  N   UNL     1      -4.284  -4.441  -0.281  0.00  0.00    -0.274 N 
ATOM      4  C   UNL     1      -5.469  -3.825  -0.181  0.00  0.00    +0.304 C 
ATOM      5  O   UNL     1      -6.482  -4.459  -0.405  0.00  0.00    -0.252 OA
ATOM      6  N   UNL     1      -5.575  -2.526   0.161  0.00  0.00    -0.285 N 
ATOM      7  C   UNL     1      -4.341  -1.771   0.436  0.00  0.00    +0.179 C 
ATOM      8  H   UNL     1      -4.275  -5.378  -0.531  0.00  0.00    +0.156 HD
ATOM      9  H   UNL     1      -6.444  -2.099   0.227  0.00  0.00    +0.151 HD
ENDROOT
BRANCH   7  10
ATOM     10  C   UNL     1      -4.302  -0.595  -0.505  0.00  0.00    +0.130 A 
ATOM     11  C   UNL     1      -4.022   0.676  -0.165  0.00  0.00    +0.047 A 
ATOM     12  C   UNL     1      -4.096   1.444  -1.350  0.00  0.00    +0.041 A 
ATOM     13  C   UNL     1      -4.418   0.596  -2.344  0.00  0.00    +0.195 A 
ATOM     14  O   UNL     1      -4.536  -0.638  -1.827  0.00  0.00    -0.466 OA
ENDBRANCH   7  10
BRANCH   1  15
ATOM     15  C   UNL     1      -1.794  -1.881   0.540  0.00  0.00    +0.339 C 
ATOM     16  O   UNL     1      -0.764  -2.529   0.541  0.00  0.00    -0.245 OA
BRANCH  15  17
ATOM     17  O   UNL     1      -1.754  -0.551   0.766  0.00  0.00    -0.462 OA
BRANCH  17  19
ATOM     18  C   UNL     1      -0.625   1.533   1.234  0.00  0.00    +0.048 C 
ATOM     19  C   UNL     1      -0.469   0.029   1.000  0.00  0.00    +0.229 C 
ENDBRANCH  17  19
ENDBRANCH  15  17
ENDBRANCH   1  15
BRANCH   2  20
ATOM     20  C   UNL     1      -1.809  -4.609  -0.192  0.00  0.00    -0.026 C 
BRANCH  20  21
ATOM     21  N   UNL     1      -1.415  -5.143   1.119  0.00  0.00    +0.386 N 
ATOM     22  C   UNL     1      -2.439  -6.084   1.592  0.00  0.00    -0.095 C 
ATOM     23  H   UNL     1      -1.326  -4.384   1.778  0.00  0.00    -0.081 HD
BRANCH  21  24
ATOM     24  C   UNL     1      -0.128  -5.840   0.997  0.00  0.00    -0.041 C 
ATOM     25  C   UNL     1       0.938  -4.860   0.504  0.00  0.00    -0.008 C 
BRANCH  24  26
ATOM     26  C   UNL     1       0.276  -6.388   2.341  0.00  0.00    -0.061 A 
ATOM     27  C   UNL     1       0.061  -5.641   3.484  0.00  0.00    +0.003 A 
ATOM     28  C   UNL     1       0.431  -6.143   4.718  0.00  0.00    +0.020 A 
ATOM     29  C   UNL     1       1.018  -7.393   4.808  0.00  0.00    +0.041 A 
ATOM     30  C   UNL     1       1.232  -8.140   3.664  0.00  0.00    +0.020 A 
ATOM     31  C   UNL     1       0.856  -7.639   2.431  0.00  0.00    +0.003 A 
ATOM     32 CL   UNL     1       1.484  -8.023   6.357  0.00  0.00    -0.084 Cl
ENDBRANCH  24  26
ENDBRANCH  21  24
ENDBRANCH  20  21
ENDBRANCH   2  20
TORSDOF 8
