REMARK  Name = ZINC15959811
REMARK  8 active torsions:
REMARK  status: ('A' for Active; 'I' for Inactive)
REMARK    1  A    between atoms: C_1  and  C_2
REMARK    2  A    between atoms: C_4  and  C_40
REMARK    3  A    between atoms: C_13  and  C_16
REMARK    4  A    between atoms: C_16  and  C_17
REMARK    5  A    between atoms: C_20  and  O_23
REMARK    6  A    between atoms: N_26  and  C_29
REMARK    7  A    between atoms: C_29  and  C_30
REMARK    8  A    between atoms: C_30  and  C_31
REMARK                            x       y       z     vdW  Elec       q    Type
REMARK                         _______ _______ _______ _____ _____    ______ ____
ROOT
ATOM      1  C   UNL     1      -2.664   1.680   0.642  0.00  0.00    +0.044 C 
ATOM      2  C   UNL     1      -2.579   0.180   0.523  0.00  0.00    -0.050 A 
ATOM      3  C   UNL     1      -3.172  -0.465  -0.546  0.00  0.00    +0.008 A 
ATOM      4  C   UNL     1      -3.097  -1.838  -0.661  0.00  0.00    -0.029 A 
ATOM      5  C   UNL     1      -2.423  -2.585   0.302  0.00  0.00    +0.042 A 
ATOM      6  C   UNL     1      -1.832  -1.925   1.376  0.00  0.00    +0.004 A 
ATOM      7  C   UNL     1      -1.904  -0.554   1.482  0.00  0.00    +0.011 A 
ATOM      8  C   UNL     1      -1.203  -2.997   2.220  0.00  0.00    +0.136 C 
ATOM      9  C   UNL     1       0.308  -2.782   2.375  0.00  0.00    +0.122 C 
ATOM     10  C   UNL     1       0.624  -3.260   3.819  0.00  0.00    +0.107 C 
ATOM     11  C   UNL     1      -0.730  -3.741   4.384  0.00  0.00    +0.072 C 
ATOM     12  N   UNL     1      -1.753  -3.000   3.589  0.00  0.00    -0.295 NA
ATOM     13  C   UNL     1       1.053  -1.992   4.521  0.00  0.00    +0.227 C 
ATOM     14  O   UNL     1       1.383  -1.913   5.685  0.00  0.00    -0.275 OA
ATOM     15  N   UNL     1       1.010  -0.971   3.659  0.00  0.00    -0.241 N 
ATOM     16  C   UNL     1       0.609  -1.300   2.409  0.00  0.00    +0.228 C 
ATOM     17  O   UNL     1       0.504  -0.542   1.469  0.00  0.00    -0.275 OA
ATOM     18  C   UNL     1      -1.504  -4.285   1.505  0.00  0.00    +0.243 C 
ATOM     19  O   UNL     1      -1.174  -5.400   1.851  0.00  0.00    -0.273 OA
ATOM     20  N   UNL     1      -2.212  -3.962   0.406  0.00  0.00    -0.283 N 
ATOM     21  C   UNL     1      -3.746  -2.531  -1.831  0.00  0.00    +0.045 C 
ATOM     22  H   UNL     1      -1.878  -2.059   3.930  0.00  0.00    +0.124 HD
ATOM     23  H   UNL     1      -2.538  -4.609  -0.238  0.00  0.00    +0.155 HD
ENDROOT
BRANCH  11  24
ATOM     24  C   UNL     1      -0.874  -5.254   4.205  0.00  0.00    +0.054 C 
BRANCH  24  25
ATOM     25  C   UNL     1      -0.360  -5.956   5.435  0.00  0.00    -0.046 A 
ATOM     26  C   UNL     1       0.972  -6.320   5.517  0.00  0.00    +0.007 A 
ATOM     27  C   UNL     1       1.445  -6.964   6.643  0.00  0.00    +0.045 A 
ATOM     28  C   UNL     1       0.584  -7.246   7.694  0.00  0.00    +0.117 A 
ATOM     29  C   UNL     1      -0.752  -6.880   7.609  0.00  0.00    +0.045 A 
ATOM     30  C   UNL     1      -1.219  -6.231   6.483  0.00  0.00    +0.007 A 
BRANCH  28  31
ATOM     31  O   UNL     1       1.047  -7.880   8.803  0.00  0.00    -0.507 OA
ATOM     32  H   UNL     1       1.373  -7.283   9.490  0.00  0.00    +0.292 HD
ENDBRANCH  28  31
ENDBRANCH  24  25
ENDBRANCH  11  24
BRANCH  15  33
ATOM     33  C   UNL     1       1.374   0.398   4.033  0.00  0.00    +0.121 C 
BRANCH  33  34
ATOM     34  C   UNL     1       2.868   0.614   3.787  0.00  0.00    +0.054 C 
BRANCH  34  35
ATOM     35  C   UNL     1       3.243   2.022   4.172  0.00  0.00    -0.046 A 
ATOM     36  C   UNL     1       3.172   3.037   3.236  0.00  0.00    +0.004 A 
ATOM     37  C   UNL     1       3.515   4.328   3.589  0.00  0.00    +0.000 A 
ATOM     38  C   UNL     1       3.929   4.605   4.879  0.00  0.00    +0.000 A 
ATOM     39  C   UNL     1       3.999   3.591   5.815  0.00  0.00    +0.000 A 
ATOM     40  C   UNL     1       3.652   2.300   5.463  0.00  0.00    +0.004 A 
ENDBRANCH  34  35
ENDBRANCH  33  34
ENDBRANCH  15  33
TORSDOF 6
