REMARK  Name = ZINC28056805
REMARK  8 active torsions:
REMARK  status: ('A' for Active; 'I' for Inactive)
REMARK    1  A    between atoms: C_1  and  C_2
REMARK    2  A    between atoms: C_2  and  O_3
REMARK    3  A    between atoms: O_3  and  C_4
REMARK    4  A    between atoms: C_7  and  C_10
REMARK    5  A    between atoms: C_16  and  C_21
REMARK    6  A    between atoms: C_28  and  C_30
REMARK    7  A    between atoms: C_34  and  O_36
REMARK    8  A    between atoms: O_36  and  C_37
REMARK                            x       y       z     vdW  Elec       q    Type
REMARK                         _______ _______ _______ _____ _____    ______ ____
ROOT
ATOM      1  C   UNL     1       2.810   4.114   2.564  0.00  0.00    +0.234 C 
ATOM      2  C   UNL     1       3.423   3.462   1.345  0.00  0.00    +0.025 C 
ATOM      3  C   UNL     1       4.485   2.670   1.497  0.00  0.00    +0.050 C 
ATOM      4  C   UNL     1       5.003   2.437   2.866  0.00  0.00    +0.038 A 
ATOM      5  C   UNL     1       6.272   1.915   3.084  0.00  0.00    +0.016 A 
ATOM      6  C   UNL     1       6.712   1.713   4.378  0.00  0.00    -0.050 A 
ATOM      7  C   UNL     1       5.896   2.027   5.451  0.00  0.00    +0.007 A 
ATOM      8  C   UNL     1       4.631   2.548   5.242  0.00  0.00    +0.046 A 
ATOM      9  C   UNL     1       4.178   2.756   3.953  0.00  0.00    +0.131 A 
ATOM     10  O   UNL     1       2.946   3.268   3.707  0.00  0.00    -0.479 OA
ATOM     11  C   UNL     1       8.088   1.148   4.623  0.00  0.00    +0.044 C 
ATOM     12  N   UNL     1       5.125   2.060   0.411  0.00  0.00    -0.282 N 
ATOM     13  C   UNL     1       4.792   2.508  -0.857  0.00  0.00    +0.240 A 
ATOM     14  N   UNL     1       5.354   2.307  -2.014  0.00  0.00    -0.092 NA
ATOM     15  N   UNL     1       4.705   2.929  -2.938  0.00  0.00    -0.021 NA
ATOM     16  N   UNL     1       3.693   3.558  -2.434  0.00  0.00    -0.042 NA
ATOM     17  N   UNL     1       3.712   3.302  -1.062  0.00  0.00    -0.201 N 
ATOM     18  C   UNL     1       2.812   3.745  -0.005  0.00  0.00    +0.174 C 
ATOM     19  H   UNL     1       5.859   1.259   0.584  0.00  0.00    +0.155 HD
ENDROOT
BRANCH   1  23
ATOM     20  C   UNL     1       4.783   7.829   3.318  0.00  0.00    +0.121 A 
ATOM     21  C   UNL     1       3.517   7.817   2.752  0.00  0.00    +0.046 A 
ATOM     22  C   UNL     1       2.881   6.615   2.509  0.00  0.00    +0.011 A 
ATOM     23  C   UNL     1       3.506   5.424   2.830  0.00  0.00    -0.003 A 
ATOM     24  C   UNL     1       4.766   5.433   3.400  0.00  0.00    +0.011 A 
ATOM     25  C   UNL     1       5.408   6.633   3.640  0.00  0.00    +0.046 A 
BRANCH  20  26
ATOM     26  O   UNL     1       5.411   9.010   3.558  0.00  0.00    -0.492 OA
BRANCH  26  28
ATOM     27  C   UNL     1       7.255  10.364   4.336  0.00  0.00    +0.048 C 
ATOM     28  C   UNL     1       6.713   8.946   4.143  0.00  0.00    +0.225 C 
ENDBRANCH  26  28
ENDBRANCH  20  26
ENDBRANCH   1  23
BRANCH  18  29
ATOM     29  C   UNL     1       1.502   3.011  -0.125  0.00  0.00    -0.015 A 
ATOM     30  C   UNL     1       1.471   1.632  -0.029  0.00  0.00    +0.006 A 
ATOM     31  C   UNL     1       0.271   0.955  -0.139  0.00  0.00    +0.004 A 
ATOM     32  C   UNL     1      -0.902   1.656  -0.349  0.00  0.00    +0.045 A 
ATOM     33  C   UNL     1      -0.875   3.040  -0.440  0.00  0.00    +0.120 A 
ATOM     34  C   UNL     1       0.332   3.716  -0.330  0.00  0.00    +0.051 A 
BRANCH  33  35
ATOM     35  O   UNL     1      -2.027   3.731  -0.641  0.00  0.00    -0.495 OA
ATOM     36  C   UNL     1      -3.231   2.969  -0.744  0.00  0.00    +0.277 C 
ENDBRANCH  33  35
ENDBRANCH  18  29
TORSDOF 5
