REMARK  Name = ZINC12876587
REMARK  12 active torsions:
REMARK  status: ('A' for Active; 'I' for Inactive)
REMARK    1  A    between atoms: C_1  and  C_2
REMARK    2  A    between atoms: C_2  and  N_72
REMARK    3  A    between atoms: C_3  and  C_4
REMARK    4  A    between atoms: C_3  and  N_72
REMARK    5  A    between atoms: C_5  and  C_6
REMARK    6  A    between atoms: C_5  and  N_72
REMARK    7  A    between atoms: C_6  and  C_7
REMARK    8  A    between atoms: C_7  and  N_8
REMARK    9  A    between atoms: C_14  and  C_30
REMARK   10  A    between atoms: C_26  and  C_29
REMARK   11  A    between atoms: C_35  and  O_36
REMARK   12  A    between atoms: O_36  and  C_37
REMARK                            x       y       z     vdW  Elec       q    Type
REMARK                         _______ _______ _______ _____ _____    ______ ____
ROOT
ATOM      1  N   UNL     1      -2.201   2.809  -3.234  0.00  0.00    -0.291 N 
ATOM      2  C   UNL     1      -0.792   3.156  -3.158  0.00  0.00    +0.203 C 
ATOM      3  C   UNL     1      -0.103   2.475  -2.020  0.00  0.00    +0.234 C 
ATOM      4  O   UNL     1       1.069   2.726  -1.835  0.00  0.00    -0.274 OA
ATOM      5  N   UNL     1      -0.695   1.608  -1.195  0.00  0.00    -0.280 N 
ATOM      6  C   UNL     1       0.035   1.126  -0.008  0.00  0.00    +0.122 C 
ATOM      7  C   UNL     1      -0.694   1.607   1.253  0.00  0.00    +0.072 C 
ATOM      8  C   UNL     1      -2.176   1.373   1.083  0.00  0.00    -0.008 A 
ATOM      9  C   UNL     1      -3.204   1.343   2.103  0.00  0.00    +0.004 A 
ATOM     10  C   UNL     1      -3.166   1.501   3.492  0.00  0.00    +0.010 A 
ATOM     11  C   UNL     1      -4.363   1.412   4.160  0.00  0.00    +0.001 A 
ATOM     12  C   UNL     1      -5.558   1.177   3.500  0.00  0.00    +0.002 A 
ATOM     13  C   UNL     1      -5.625   1.015   2.127  0.00  0.00    +0.026 A 
ATOM     14  C   UNL     1      -4.425   1.101   1.423  0.00  0.00    +0.047 A 
ATOM     15  N   UNL     1      -4.135   0.991   0.093  0.00  0.00    -0.356 N 
ATOM     16  H   UNL     1      -4.784   0.823  -0.608  0.00  0.00    +0.166 HD
ATOM     17  C   UNL     1      -2.790   1.154  -0.101  0.00  0.00    +0.054 A 
ATOM     18  C   UNL     1      -2.051   1.106  -1.418  0.00  0.00    +0.151 C 
ATOM     19  C   UNL     1      -2.779   1.893  -2.457  0.00  0.00    +0.245 C 
ATOM     20  O   UNL     1      -3.965   1.687  -2.602  0.00  0.00    -0.273 OA
ATOM     21  C   UNL     1      -1.971  -0.354  -1.868  0.00  0.00    +0.048 C 
ENDROOT
BRANCH   7  22
ATOM     22  C   UNL     1      -0.193   0.838   2.448  0.00  0.00    +0.003 A 
ATOM     23  C   UNL     1      -0.331  -0.536   2.494  0.00  0.00    +0.008 A 
ATOM     24  C   UNL     1       0.132  -1.243   3.588  0.00  0.00    +0.001 A 
ATOM     25  C   UNL     1       0.726  -0.576   4.644  0.00  0.00    +0.004 A 
ATOM     26  C   UNL     1       0.861   0.798   4.606  0.00  0.00    +0.046 A 
ATOM     27  C   UNL     1       0.401   1.509   3.506  0.00  0.00    +0.124 A 
BRANCH  27  28
ATOM     28  O   UNL     1       0.534   2.861   3.466  0.00  0.00    -0.495 OA
ATOM     29  C   UNL     1       1.155   3.486   4.591  0.00  0.00    +0.277 C 
ENDBRANCH  27  28
ENDBRANCH   7  22
BRANCH   1  30
ATOM     30  C   UNL     1      -3.033   3.504  -4.219  0.00  0.00    +0.106 C 
BRANCH  30  31
ATOM     31  C   UNL     1      -3.019   2.728  -5.537  0.00  0.00    +0.000 C 
BRANCH  31  32
ATOM     32  C   UNL     1      -3.888   3.454  -6.566  0.00  0.00    -0.077 C 
BRANCH  32  33
ATOM     33  N   UNL     1      -3.750   2.771  -7.870  0.00  0.00    +0.379 N 
ATOM     34  H   UNL     1      -2.763   2.529  -8.017  0.00  0.00    -0.082 HD
BRANCH  33  36
ATOM     35  C   UNL     1      -4.220   0.734  -9.141  0.00  0.00    -0.017 C 
ATOM     36  C   UNL     1      -4.554   1.530  -7.878  0.00  0.00    -0.082 C 
ENDBRANCH  33  36
BRANCH  33  37
ATOM     37  C   UNL     1      -4.192   3.666  -8.959  0.00  0.00    -0.082 C 
ATOM     38  C   UNL     1      -3.089   4.692  -9.228  0.00  0.00    -0.017 C 
ENDBRANCH  33  37
ENDBRANCH  32  33
ENDBRANCH  31  32
ENDBRANCH  30  31
ENDBRANCH   1  30
TORSDOF 8
