REMARK  Name = ZINC09286058
REMARK  8 active torsions:
REMARK  status: ('A' for Active; 'I' for Inactive)
REMARK    1  A    between atoms: C_4  and  C_7
REMARK    2  A    between atoms: C_7  and  C_8
REMARK    3  A    between atoms: C_14  and  C_16
REMARK    4  A    between atoms: C_16  and  O_17
REMARK    5  A    between atoms: O_17  and  C_18
REMARK    6  A    between atoms: C_21  and  C_25
REMARK    7  A    between atoms: C_25  and  N_72
REMARK    8  A    between atoms: N_28  and  C_31
REMARK                            x       y       z     vdW  Elec       q    Type
REMARK                         _______ _______ _______ _____ _____    ______ ____
ROOT
ATOM      1  C   UNL     1      -2.721   5.464   0.045  0.00  0.00    +0.202 A 
ATOM      2  C   UNL     1      -1.660   6.301   0.050  0.00  0.00    +0.244 A 
ATOM      3  O   UNL     1      -1.832   7.630   0.052  0.00  0.00    -0.466 OA
ATOM      4  C   UNL     1      -3.047   8.188   0.061  0.00  0.00    +0.092 A 
ATOM      5  C   UNL     1      -4.161   7.429   0.062  0.00  0.00    +0.094 A 
ATOM      6  C   UNL     1      -4.031   6.017   0.054  0.00  0.00    +0.226 A 
ATOM      7  O   UNL     1      -5.017   5.296   0.055  0.00  0.00    -0.284 OA
ENDROOT
BRANCH   1   8
ATOM      8  O   UNL     1      -2.539   4.116   0.036  0.00  0.00    -0.476 OA
BRANCH   8   9
ATOM      9  C   UNL     1      -1.191   3.643   0.028  0.00  0.00    +0.325 C 
BRANCH   9  16
ATOM     10  C   UNL     1       2.263   0.156   1.052  0.00  0.00    -0.004 C 
ATOM     11  C   UNL     1       0.880  -0.492   1.159  0.00  0.00    +0.023 C 
ATOM     12  C   UNL     1       0.002  -0.004   0.002  0.00  0.00    +0.108 C 
ATOM     13  N   UNL     1      -0.018   1.465   0.010  0.00  0.00    -0.299 N 
ATOM     14  C   UNL     1       1.261   2.189   0.002  0.00  0.00    +0.108 C 
ATOM     15  C   UNL     1       2.125   1.677   1.158  0.00  0.00    +0.023 C 
ATOM     16  C   UNL     1      -1.187   2.136   0.019  0.00  0.00    +0.253 C 
ATOM     17  O   UNL     1      -2.236   1.527   0.021  0.00  0.00    -0.272 OA
BRANCH  10  18
ATOM     18  C   UNL     1       3.154  -0.355   2.187  0.00  0.00    +0.038 C 
BRANCH  18  22
ATOM     19  C   UNL     1       7.109   1.180   1.693  0.00  0.00    +0.000 A 
ATOM     20  C   UNL     1       6.180   1.889   2.430  0.00  0.00    +0.000 A 
ATOM     21  C   UNL     1       4.900   1.392   2.590  0.00  0.00    +0.003 A 
ATOM     22  C   UNL     1       4.549   0.187   2.012  0.00  0.00    -0.047 A 
ATOM     23  C   UNL     1       5.480  -0.525   1.278  0.00  0.00    +0.003 A 
ATOM     24  C   UNL     1       6.759  -0.026   1.115  0.00  0.00    +0.000 A 
ENDBRANCH  18  22
ENDBRANCH  10  18
ENDBRANCH   9  16
ENDBRANCH   8   9
ENDBRANCH   1   8
BRANCH   4  25
ATOM     25  C   UNL     1      -3.173   9.690   0.070  0.00  0.00    -0.003 C 
BRANCH  25  31
ATOM     26  C   UNL     1      -4.426   9.716   2.143  0.00  0.00    -0.059 C 
ATOM     27  C   UNL     1      -4.385  10.168   3.604  0.00  0.00    +0.086 C 
ATOM     28  N   UNL     1      -4.269  11.632   3.658  0.00  0.00    -0.333 N 
ATOM     29  C   UNL     1      -3.050  12.086   2.974  0.00  0.00    +0.086 C 
ATOM     30  C   UNL     1      -3.091  11.634   1.512  0.00  0.00    -0.059 C 
ATOM     31  N   UNL     1      -3.186  10.159   1.472  0.00  0.00    +0.386 N 
ATOM     32  H   UNL     1      -2.378   9.759   1.965  0.00  0.00    -0.081 HD
BRANCH  28  33
ATOM     33  C   UNL     1      -4.301  12.089   4.979  0.00  0.00    +0.030 A 
ATOM     34  C   UNL     1      -3.258  12.860   5.474  0.00  0.00    +0.026 A 
ATOM     35  C   UNL     1      -3.294  13.314   6.778  0.00  0.00    +0.040 A 
ATOM     36  C   UNL     1      -4.365  12.993   7.595  0.00  0.00    +0.124 A 
ATOM     37  C   UNL     1      -5.404  12.220   7.105  0.00  0.00    +0.040 A 
ATOM     38  C   UNL     1      -5.375  11.768   5.800  0.00  0.00    +0.026 A 
ATOM     39  F   UNL     1      -4.396  13.434   8.871  0.00  0.00    -0.205 F 
ENDBRANCH  28  33
ENDBRANCH  25  31
ENDBRANCH   4  25
TORSDOF 8
