REMARK  Name = ZINC03978550
REMARK  7 active torsions:
REMARK  status: ('A' for Active; 'I' for Inactive)
REMARK    1  A    between atoms: C_1  and  C_2
REMARK    2  A    between atoms: C_6  and  C_29
REMARK    3  A    between atoms: C_6  and  O_30
REMARK    4  A    between atoms: C_12  and  O_20
REMARK    5  A    between atoms: C_15  and  C_19
REMARK    6  A    between atoms: O_20  and  C_21
REMARK    7  A    between atoms: C_21  and  C_23
REMARK                            x       y       z     vdW  Elec       q    Type
REMARK                         _______ _______ _______ _____ _____    ______ ____
ROOT
ATOM      1  C   UNL     1       3.853  -0.777   1.318  0.00  0.00    +0.039 C 
ATOM      2  C   UNL     1       4.047   0.707   1.485  0.00  0.00    -0.076 C 
ATOM      3  C   UNL     1       3.409   1.581   0.759  0.00  0.00    -0.028 C 
ATOM      4  C   UNL     1       2.405   1.227  -0.309  0.00  0.00    +0.030 C 
ATOM      5  C   UNL     1       1.119   1.991  -0.044  0.00  0.00    +0.042 C 
ATOM      6  C   UNL     1      -0.151   1.171   0.072  0.00  0.00    +0.100 C 
ATOM      7  C   UNL     1      -0.927   1.633   1.318  0.00  0.00    +0.209 C 
ATOM      8  C   UNL     1      -0.144   1.296   2.579  0.00  0.00    +0.059 C 
ATOM      9  C   UNL     1      -0.932   1.757   3.816  0.00  0.00    +0.070 C 
ATOM     10  C   UNL     1      -0.090   1.499   5.062  0.00  0.00    +0.188 C 
ATOM     11  C   UNL     1       1.079   2.477   5.143  0.00  0.00    +0.075 C 
ATOM     12  C   UNL     1       2.386   1.723   5.099  0.00  0.00    -0.073 C 
ATOM     13  C   UNL     1       3.122   1.775   4.017  0.00  0.00    -0.027 C 
ATOM     14  C   UNL     1       4.428   1.034   3.924  0.00  0.00    +0.031 C 
ATOM     15  C   UNL     1       5.024   1.207   2.526  0.00  0.00    +0.034 C 
ATOM     16  C   UNL     1       2.833   0.931   6.299  0.00  0.00    +0.039 C 
ATOM     17  C   UNL     1      -1.278   3.213   3.661  0.00  0.00    +0.036 C 
ATOM     18  C   UNL     1      -1.580   3.976   4.710  0.00  0.00    +0.020 C 
ATOM     19  C   UNL     1      -1.308   3.802   2.314  0.00  0.00    +0.335 C 
ATOM     20  O   UNL     1      -1.484   4.999   2.202  0.00  0.00    -0.245 OA
ATOM     21  O   UNL     1      -1.143   3.060   1.214  0.00  0.00    -0.455 OA
ATOM     22  C   UNL     1       0.074  -0.331   0.151  0.00  0.00    +0.045 C 
ENDROOT
BRANCH   6  23
ATOM     23  O   UNL     1      -0.979   1.444  -1.075  0.00  0.00    -0.385 OA
ATOM     24  H   UNL     1      -0.594   1.157  -1.915  0.00  0.00    +0.210 HD
ENDBRANCH   6  23
BRANCH  10  25
ATOM     25  O   UNL     1      -0.909   1.599   6.255  0.00  0.00    -0.461 OA
BRANCH  25  26
ATOM     26  C   UNL     1      -1.600   0.506   6.614  0.00  0.00    +0.304 C 
ATOM     27  O   UNL     1      -1.452  -0.528   6.007  0.00  0.00    -0.251 OA
ATOM     28  C   UNL     1      -2.562   0.569   7.773  0.00  0.00    +0.136 C 
ENDBRANCH  25  26
ENDBRANCH  10  25
TORSDOF 3
