REMARK  Name = ZINC12634885
REMARK  5 active torsions:
REMARK  status: ('A' for Active; 'I' for Inactive)
REMARK    1  A    between atoms: N_9  and  C_30
REMARK    2  A    between atoms: C_10  and  S_12
REMARK    3  A    between atoms: S_12  and  C_13
REMARK    4  A    between atoms: C_13  and  C_14
REMARK    5  A    between atoms: N_19  and  C_20
REMARK                            x       y       z     vdW  Elec       q    Type
REMARK                         _______ _______ _______ _____ _____    ______ ____
ROOT
ATOM      1  S   UNL     1       5.838  -6.518   0.433  0.00  0.00    -0.078 S 
ENDROOT
BRANCH   1  11
ATOM      2  C   UNL     1      12.398  -7.473   0.710  0.00  0.00    +0.001 A 
ATOM      3  C   UNL     1      12.100  -6.121   0.606  0.00  0.00    +0.002 A 
ATOM      4  C   UNL     1      10.806  -5.689   0.535  0.00  0.00    +0.028 A 
ATOM      5  C   UNL     1       9.763  -6.620   0.567  0.00  0.00    +0.079 A 
ATOM      6  C   UNL     1      10.070  -7.996   0.672  0.00  0.00    +0.065 A 
ATOM      7  C   UNL     1      11.401  -8.408   0.743  0.00  0.00    +0.015 A 
ATOM      8  C   UNL     1       8.958  -8.955   0.703  0.00  0.00    +0.267 A 
ATOM      9  O   UNL     1       9.159 -10.152   0.792  0.00  0.00    -0.267 OA
ATOM     10  N   UNL     1       7.702  -8.458   0.628  0.00  0.00    -0.253 N 
ATOM     11  C   UNL     1       7.495  -7.110   0.528  0.00  0.00    +0.177 A 
ATOM     12  N   UNL     1       8.473  -6.238   0.494  0.00  0.00    -0.223 NA
BRANCH  10  13
ATOM     13  C   UNL     1       6.605  -9.330   0.653  0.00  0.00    +0.087 A 
ATOM     14  C   UNL     1       6.096  -9.842  -0.533  0.00  0.00    +0.029 A 
ATOM     15  C   UNL     1       5.018 -10.705  -0.505  0.00  0.00    +0.002 A 
ATOM     16  C   UNL     1       4.438 -11.053   0.701  0.00  0.00    +0.003 A 
ATOM     17  C   UNL     1       4.939 -10.542   1.885  0.00  0.00    +0.040 A 
ATOM     18  C   UNL     1       6.021  -9.681   1.865  0.00  0.00    +0.147 A 
ATOM     19  F   UNL     1       6.509  -9.181   3.021  0.00  0.00    -0.203 F 
ENDBRANCH  10  13
ENDBRANCH   1  11
BRANCH   1  20
ATOM     20  C   UNL     1       6.146  -4.738   0.320  0.00  0.00    +0.173 C 
BRANCH  20  21
ATOM     21  C   UNL     1       4.832  -4.006   0.226  0.00  0.00    +0.231 C 
ATOM     22  O   UNL     1       3.790  -4.627   0.235  0.00  0.00    -0.274 OA
ATOM     23  N   UNL     1       4.814  -2.662   0.133  0.00  0.00    -0.239 N 
ATOM     24  C   UNL     1       3.639  -2.008   0.049  0.00  0.00    +0.310 C 
ATOM     25  O   UNL     1       2.595  -2.630   0.058  0.00  0.00    -0.252 OA
ATOM     26  N   UNL     1       3.622  -0.663  -0.045  0.00  0.00    -0.269 N 
ATOM     27  H   UNL     1       5.647  -2.166   0.125  0.00  0.00    +0.159 HD
ATOM     28  H   UNL     1       4.454  -0.172  -0.130  0.00  0.00    +0.156 HD
BRANCH  26  29
ATOM     29  C   UNL     1       2.401   0.025  -0.019  0.00  0.00    +0.038 A 
ATOM     30  C   UNL     1       1.346  -0.460   0.741  0.00  0.00    +0.027 A 
ATOM     31  C   UNL     1       0.142   0.218   0.766  0.00  0.00    +0.051 A 
ATOM     32  C   UNL     1      -0.016   1.384   0.032  0.00  0.00    +0.162 A 
ATOM     33  C   UNL     1       1.040   1.873  -0.728  0.00  0.00    +0.164 A 
ATOM     34  C   UNL     1       2.247   1.192  -0.754  0.00  0.00    +0.072 A 
ATOM     35  O   UNL     1       0.906   3.021  -1.448  0.00  0.00    -0.485 OA
ATOM     36  C   UNL     1      -0.429   3.474  -1.696  0.00  0.00    +0.270 C 
ATOM     37  C   UNL     1      -1.215   3.396  -0.380  0.00  0.00    +0.270 C 
ATOM     38  O   UNL     1      -1.212   2.034   0.062  0.00  0.00    -0.485 OA
ENDBRANCH  26  29
ENDBRANCH  20  21
ENDBRANCH   1  20
TORSDOF 5
