REMARK  Name = ZINC34756350
REMARK  7 active torsions:
REMARK  status: ('A' for Active; 'I' for Inactive)
REMARK    1  A    between atoms: C_1  and  C_2
REMARK    2  A    between atoms: C_2  and  C_3
REMARK    3  A    between atoms: C_3  and  N_4
REMARK    4  A    between atoms: C_17  and  S_19
REMARK    5  A    between atoms: S_19  and  C_20
REMARK    6  A    between atoms: C_20  and  C_21
REMARK    7  A    between atoms: C_24  and  N_27
REMARK                            x       y       z     vdW  Elec       q    Type
REMARK                         _______ _______ _______ _____ _____    ______ ____
ROOT
ATOM      1  N   UNL     1       0.160  -2.626   0.229  0.00  0.00    +0.382 N 
ATOM      2  C   UNL     1      -0.113  -4.052   0.014  0.00  0.00    -0.060 C 
ATOM      3  C   UNL     1       0.474  -4.864   1.174  0.00  0.00    +0.088 C 
ATOM      4  N   UNL     1       1.901  -4.531   1.301  0.00  0.00    -0.318 N 
ATOM      5  C   UNL     1       2.279  -3.111   1.358  0.00  0.00    +0.088 C 
ATOM      6  C   UNL     1       1.607  -2.382   0.190  0.00  0.00    -0.060 C 
ATOM      7  C   UNL     1       2.860  -5.525   1.365  0.00  0.00    +0.134 A 
ATOM      8  C   UNL     1       3.342  -5.980   2.625  0.00  0.00    +0.051 A 
ATOM      9  C   UNL     1       2.960  -5.532   3.967  0.00  0.00    -0.025 A 
ATOM     10  C   UNL     1       3.572  -6.131   5.008  0.00  0.00    -0.004 A 
ATOM     11  S   UNL     1       4.676  -7.311   4.280  0.00  0.00    -0.073 S 
ATOM     12  C   UNL     1       4.316  -6.996   2.572  0.00  0.00    +0.115 A 
ATOM     13  N   UNL     1       4.745  -7.484   1.424  0.00  0.00    -0.215 NA
ATOM     14  C   UNL     1       4.261  -7.021   0.279  0.00  0.00    +0.191 A 
ATOM     15  N   UNL     1       3.336  -6.068   0.258  0.00  0.00    -0.206 NA
ATOM     16  C   UNL     1       3.361  -5.854   6.466  0.00  0.00    +0.043 C 
ATOM     17  C   UNL     1       2.611  -4.522   6.603  0.00  0.00    +0.005 C 
ATOM     18  C   UNL     1       1.421  -4.527   5.639  0.00  0.00    +0.005 C 
ATOM     19  C   UNL     1       1.921  -4.439   4.196  0.00  0.00    +0.037 C 
ATOM     20  H   UNL     1      -0.202  -2.348   1.129  0.00  0.00    -0.082 HD
ENDROOT
BRANCH   1  21
ATOM     21  C   UNL     1      -0.496  -1.839  -0.824  0.00  0.00    -0.079 C 
BRANCH  21  23
ATOM     22  C   UNL     1      -2.697  -1.176  -1.802  0.00  0.00    +0.002 C 
ATOM     23  C   UNL     1      -2.014  -1.994  -0.706  0.00  0.00    -0.022 C 
ENDBRANCH  21  23
ENDBRANCH   1  21
BRANCH  14  24
ATOM     24  S   UNL     1       4.850  -7.688  -1.241  0.00  0.00    -0.081 S 
BRANCH  24  25
ATOM     25  C   UNL     1       6.066  -8.935  -0.732  0.00  0.00    +0.112 C 
BRANCH  25  26
ATOM     26  C   UNL     1       6.654  -9.591  -1.954  0.00  0.00    -0.037 A 
ATOM     27  C   UNL     1       6.059 -10.718  -2.488  0.00  0.00    +0.007 A 
ATOM     28  C   UNL     1       6.599 -11.320  -3.609  0.00  0.00    +0.033 A 
ATOM     29  C   UNL     1       7.735 -10.794  -4.196  0.00  0.00    +0.126 A 
ATOM     30  C   UNL     1       8.330  -9.667  -3.663  0.00  0.00    +0.033 A 
ATOM     31  C   UNL     1       7.787  -9.062  -2.544  0.00  0.00    +0.007 A 
BRANCH  29  32
ATOM     32  N   UNL     1       8.314 -11.440  -5.396  0.00  0.00    +0.056 N 
ATOM     33  O   UNL     1       7.793 -12.426  -5.863  0.00  0.00    -0.126 OA
ATOM     34  O   UNL     1       9.307 -10.980  -5.910  0.00  0.00    -0.126 OA
ENDBRANCH  29  32
ENDBRANCH  25  26
ENDBRANCH  24  25
ENDBRANCH  14  24
TORSDOF 6
