REMARK  Name = ZINC45896367
REMARK  7 active torsions:
REMARK  status: ('A' for Active; 'I' for Inactive)
REMARK    1  A    between atoms: C_1  and  C_2
REMARK    2  A    between atoms: C_2  and  C_3
REMARK    3  A    between atoms: C_2  and  C_4
REMARK    4  A    between atoms: C_4  and  N_5
REMARK    5  A    between atoms: N_8  and  C_9
REMARK    6  A    between atoms: C_18  and  O_19
REMARK    7  A    between atoms: N_20  and  C_21
REMARK                            x       y       z     vdW  Elec       q    Type
REMARK                         _______ _______ _______ _____ _____    ______ ____
ROOT
ATOM      1  C   UNL     1      -5.383  -0.577  -2.729  0.00  0.00    +0.140 A 
ATOM      2  C   UNL     1      -6.113  -0.181  -3.888  0.00  0.00    +0.075 A 
ATOM      3  C   UNL     1      -7.566  -0.463  -3.901  0.00  0.00    +0.042 A 
ATOM      4  C   UNL     1      -8.361  -0.114  -4.989  0.00  0.00    +0.013 A 
ATOM      5  C   UNL     1      -9.711  -0.394  -4.963  0.00  0.00    +0.001 A 
ATOM      6  C   UNL     1     -10.274  -1.019  -3.861  0.00  0.00    +0.004 A 
ATOM      7  C   UNL     1      -9.495  -1.369  -2.778  0.00  0.00    +0.047 A 
ATOM      8  C   UNL     1      -8.133  -1.095  -2.786  0.00  0.00    +0.141 A 
ATOM      9  O   UNL     1      -7.354  -1.431  -1.735  0.00  0.00    -0.424 OA
ATOM     10  C   UNL     1      -6.034  -1.188  -1.710  0.00  0.00    +0.309 A 
ATOM     11  N   UNL     1      -5.520   0.410  -4.903  0.00  0.00    -0.380 N 
ATOM     12  H   UNL     1      -4.733   0.958  -4.753  0.00  0.00    +0.160 HD
ENDROOT
BRANCH   1  16
ATOM     13  N   UNL     1      -2.207   1.155  -2.524  0.00  0.00    -0.299 N 
ATOM     14  C   UNL     1      -3.524   0.922  -2.689  0.00  0.00    +0.304 C 
ATOM     15  O   UNL     1      -4.287   1.851  -2.876  0.00  0.00    -0.253 OA
ATOM     16  N   UNL     1      -3.996  -0.340  -2.647  0.00  0.00    -0.262 N 
ATOM     17  H   UNL     1      -1.598   0.414  -2.375  0.00  0.00    +0.150 HD
ATOM     18  H   UNL     1      -3.381  -1.085  -2.561  0.00  0.00    +0.157 HD
BRANCH  13  19
ATOM     19  C   UNL     1      -1.694   2.526  -2.569  0.00  0.00    +0.108 C 
BRANCH  19  21
ATOM     20  C   UNL     1       0.494   1.789  -3.524  0.00  0.00    +0.009 C 
ATOM     21  C   UNL     1      -0.179   2.512  -2.356  0.00  0.00    -0.000 C 
ATOM     22  C   UNL     1       0.339   3.949  -2.279  0.00  0.00    +0.009 C 
ENDBRANCH  19  21
ENDBRANCH  13  19
ENDBRANCH   1  16
BRANCH  11  23
ATOM     23  C   UNL     1      -6.047   0.242  -6.259  0.00  0.00    +0.079 C 
ATOM     24  C   UNL     1      -4.912  -0.166  -7.221  0.00  0.00    +0.024 C 
ATOM     25  C   UNL     1      -5.246   0.576  -8.539  0.00  0.00    +0.002 C 
ATOM     26  C   UNL     1      -5.788   1.937  -8.037  0.00  0.00    +0.002 C 
ATOM     27  C   UNL     1      -6.604   1.579  -6.778  0.00  0.00    +0.024 C 
ENDBRANCH  11  23
BRANCH  10  28
ATOM     28  O   UNL     1      -5.326  -1.562  -0.619  0.00  0.00    -0.479 OA
ATOM     29  H   UNL     1      -5.856  -1.991   0.066  0.00  0.00    +0.295 HD
ENDBRANCH  10  28
TORSDOF 5
