REMARK  Name = ZINC08456148
REMARK  10 active torsions:
REMARK  status: ('A' for Active; 'I' for Inactive)
REMARK    1  A    between atoms: C_1  and  C_2
REMARK    2  A    between atoms: C_6  and  N_8
REMARK    3  A    between atoms: C_10  and  C_14
REMARK    4  A    between atoms: C_11  and  C_13
REMARK    5  A    between atoms: C_14  and  C_16
REMARK    6  A    between atoms: C_14  and  C_23
REMARK    7  A    between atoms: C_21  and  O_22
REMARK    8  A    between atoms: C_24  and  C_37
REMARK    9  A    between atoms: N_27  and  C_30
REMARK   10  A    between atoms: C_34  and  C_36
REMARK                            x       y       z     vdW  Elec       q    Type
REMARK                         _______ _______ _______ _____ _____    ______ ____
ROOT
ATOM      1  C   UNL     1       0.101  -5.806   4.526  0.00  0.00    +0.097 C 
ENDROOT
BRANCH   1   4
ATOM      2  N   UNL     1      -0.514  -2.882   2.362  0.00  0.00    -0.219 N 
ATOM      3  C   UNL     1      -0.372  -4.213   2.522  0.00  0.00    +0.276 A 
ATOM      4  C   UNL     1      -0.122  -4.457   3.892  0.00  0.00    +0.051 A 
ATOM      5  C   UNL     1      -0.119  -3.271   4.534  0.00  0.00    +0.039 A 
ATOM      6  N   UNL     1      -0.352  -2.283   3.619  0.00  0.00    -0.294 N 
ATOM      7  C   UNL     1       0.109  -3.068   6.010  0.00  0.00    +0.065 C 
ATOM      8  O   UNL     1      -0.445  -5.055   1.644  0.00  0.00    -0.266 OA
ATOM      9  H   UNL     1      -0.399  -1.333   3.807  0.00  0.00    +0.187 HD
BRANCH   2  15
ATOM     10  C   UNL     1      -1.286   1.319  -0.071  0.00  0.00    +0.044 C 
ATOM     11  C   UNL     1      -1.151  -0.181  -0.050  0.00  0.00    -0.048 A 
ATOM     12  C   UNL     1      -1.282  -0.903  -1.222  0.00  0.00    +0.003 A 
ATOM     13  C   UNL     1      -1.159  -2.280  -1.207  0.00  0.00    +0.002 A 
ATOM     14  C   UNL     1      -0.904  -2.940  -0.020  0.00  0.00    +0.028 A 
ATOM     15  C   UNL     1      -0.772  -2.218   1.159  0.00  0.00    +0.067 A 
ATOM     16  C   UNL     1      -0.890  -0.834   1.139  0.00  0.00    +0.031 A 
ENDBRANCH   2  15
ENDBRANCH   1   4
BRANCH   1  17
ATOM     17  C   UNL     1       1.322  -6.449   3.921  0.00  0.00    +0.051 A 
ATOM     18  C   UNL     1       1.751  -7.707   4.152  0.00  0.00    +0.039 A 
ATOM     19  N   UNL     1       2.886  -7.917   3.422  0.00  0.00    -0.294 N 
ATOM     20  H   UNL     1       3.405  -8.736   3.399  0.00  0.00    +0.187 HD
ATOM     21  N   UNL     1       3.172  -6.744   2.711  0.00  0.00    -0.219 N 
ATOM     22  C   UNL     1       2.214  -5.841   3.007  0.00  0.00    +0.276 A 
ATOM     23  O   UNL     1       2.134  -4.708   2.570  0.00  0.00    -0.266 OA
ATOM     24  C   UNL     1       1.090  -8.710   5.061  0.00  0.00    +0.065 C 
BRANCH  21  25
ATOM     25  C   UNL     1       4.253  -6.545   1.846  0.00  0.00    +0.067 A 
ATOM     26  C   UNL     1       4.419  -5.323   1.208  0.00  0.00    +0.028 A 
ATOM     27  C   UNL     1       5.488  -5.130   0.355  0.00  0.00    +0.002 A 
ATOM     28  C   UNL     1       6.392  -6.153   0.135  0.00  0.00    +0.003 A 
ATOM     29  C   UNL     1       6.229  -7.372   0.768  0.00  0.00    -0.048 A 
ATOM     30  C   UNL     1       5.166  -7.569   1.627  0.00  0.00    +0.031 A 
ATOM     31  C   UNL     1       7.216  -8.484   0.524  0.00  0.00    +0.044 C 
ENDBRANCH  21  25
ENDBRANCH   1  17
BRANCH   1  32
ATOM     32  C   UNL     1      -1.102  -6.681   4.280  0.00  0.00    +0.006 A 
ATOM     33  C   UNL     1      -1.378  -7.134   3.005  0.00  0.00    +0.008 A 
ATOM     34  C   UNL     1      -2.481  -7.936   2.779  0.00  0.00    +0.001 A 
ATOM     35  C   UNL     1      -3.310  -8.287   3.828  0.00  0.00    +0.004 A 
ATOM     36  C   UNL     1      -3.038  -7.837   5.105  0.00  0.00    +0.046 A 
ATOM     37  C   UNL     1      -1.929  -7.036   5.335  0.00  0.00    +0.121 A 
BRANCH  37  38
ATOM     38  O   UNL     1      -1.655  -6.596   6.592  0.00  0.00    -0.506 OA
ATOM     39  H   UNL     1      -2.070  -5.751   6.812  0.00  0.00    +0.292 HD
ENDBRANCH  37  38
ENDBRANCH   1  32
TORSDOF 6
