REMARK  Name = ZINC45232996
REMARK  8 active torsions:
REMARK  status: ('A' for Active; 'I' for Inactive)
REMARK    1  A    between atoms: C_1  and  C_2
REMARK    2  A    between atoms: C_7  and  C_8
REMARK    3  A    between atoms: C_7  and  C_9
REMARK    4  A    between atoms: C_11  and  N_13
REMARK    5  A    between atoms: N_16  and  C_17
REMARK    6  A    between atoms: C_17  and  C_19
REMARK    7  A    between atoms: C_17  and  C_26
REMARK    8  A    between atoms: N_30  and  C_31
REMARK                            x       y       z     vdW  Elec       q    Type
REMARK                         _______ _______ _______ _____ _____    ______ ____
ROOT
ATOM      1  N   UNL     1      -2.268  -0.017   1.012  0.00  0.00    -0.296 N 
ATOM      2  C   UNL     1      -3.606  -0.100   0.874  0.00  0.00    +0.301 C 
ATOM      3  O   UNL     1      -4.084  -0.746  -0.038  0.00  0.00    -0.253 OA
ATOM      4  N   UNL     1      -4.413   0.533   1.748  0.00  0.00    -0.286 N 
ATOM      5  H   UNL     1      -1.886   0.499   1.739  0.00  0.00    +0.151 HD
ATOM      6  H   UNL     1      -4.032   1.049   2.475  0.00  0.00    +0.151 HD
ENDROOT
BRANCH   1  16
ATOM      7  C   UNL     1      -0.019   1.526   0.010  0.00  0.00    +0.013 C 
ATOM      8  C   UNL     1       0.002  -0.004   0.002  0.00  0.00    -0.008 C 
ATOM      9  C   UNL     1       0.744  -0.669  -1.197  0.00  0.00    +0.009 C 
ATOM     10  C   UNL     1       1.062  -2.103  -0.714  0.00  0.00    +0.005 C 
ATOM     11  C   UNL     1       0.481  -2.169   0.732  0.00  0.00    -0.003 C 
ATOM     12  C   UNL     1       0.727  -0.695   1.211  0.00  0.00    -0.025 C 
ATOM     13  C   UNL     1       0.031  -0.400   2.541  0.00  0.00    +0.012 C 
ATOM     14  C   UNL     1       2.216  -0.348   1.260  0.00  0.00    +0.012 C 
ATOM     15  C   UNL     1      -1.065  -2.175   0.532  0.00  0.00    +0.027 C 
ATOM     16  C   UNL     1      -1.389  -0.705   0.062  0.00  0.00    +0.081 C 
ENDBRANCH   1  16
BRANCH   4  17
ATOM     17  C   UNL     1      -5.868   0.443   1.599  0.00  0.00    +0.171 C 
BRANCH  17  18
ATOM     18  C   UNL     1      -6.525   0.668   2.936  0.00  0.00    -0.020 A 
ATOM     19  C   UNL     1      -6.037   1.639   3.790  0.00  0.00    +0.009 A 
ATOM     20  C   UNL     1      -6.640   1.847   5.017  0.00  0.00    +0.038 A 
ATOM     21  C   UNL     1      -7.732   1.081   5.390  0.00  0.00    +0.123 A 
ATOM     22  C   UNL     1      -8.219   0.109   4.533  0.00  0.00    +0.038 A 
ATOM     23  C   UNL     1      -7.619  -0.093   3.305  0.00  0.00    +0.009 A 
ATOM     24  F   UNL     1      -8.321   1.283   6.589  0.00  0.00    -0.205 F 
ENDBRANCH  17  18
BRANCH  17  25
ATOM     25  C   UNL     1      -6.339   1.492   0.625  0.00  0.00    +0.134 A 
ATOM     26  N   UNL     1      -5.954   2.738   0.604  0.00  0.00    -0.238 NA
ATOM     27  C   UNL     1      -6.579   3.378  -0.396  0.00  0.00    +0.130 A 
ATOM     28  C   UNL     1      -7.381   2.494  -1.019  0.00  0.00    +0.106 A 
ATOM     29  N   UNL     1      -7.226   1.296  -0.375  0.00  0.00    -0.336 N 
ATOM     30  C   UNL     1      -7.897   0.037  -0.707  0.00  0.00    +0.150 C 
ENDBRANCH  17  25
ENDBRANCH   4  17
TORSDOF 4
