REMARK  Name = ZINC16401206
REMARK  4 active torsions:
REMARK  status: ('A' for Active; 'I' for Inactive)
REMARK    1  A    between atoms: C_6  and  C_7
REMARK    2  A    between atoms: C_7  and  O_28
REMARK    3  A    between atoms: N_10  and  C_13
REMARK    4  A    between atoms: N_26  and  O_27
REMARK                            x       y       z     vdW  Elec       q    Type
REMARK                         _______ _______ _______ _____ _____    ______ ____
ROOT
ATOM      1  C   UNL     1      -1.313  -0.739   0.092  0.00  0.00    +0.088 C 
ATOM      2  C   UNL     1      -1.677  -1.099   1.535  0.00  0.00    +0.021 C 
ATOM      3  C   UNL     1      -2.952  -1.945   1.539  0.00  0.00    -0.075 C 
ATOM      4  N   UNL     1      -2.729  -3.174   0.768  0.00  0.00    +0.385 N 
ATOM      5  C   UNL     1      -2.451  -2.839  -0.634  0.00  0.00    -0.075 C 
ATOM      6  C   UNL     1      -1.157  -2.027  -0.721  0.00  0.00    +0.021 C 
ATOM      7  H   UNL     1      -1.944  -3.675   1.155  0.00  0.00    -0.081 HD
ENDROOT
BRANCH   4   8
ATOM      8  C   UNL     1      -3.929  -4.019   0.839  0.00  0.00    -0.020 C 
ATOM      9  C   UNL     1      -3.708  -5.289   0.015  0.00  0.00    -0.009 C 
ATOM     10  C   UNL     1      -2.323  -5.242  -0.633  0.00  0.00    -0.001 C 
ATOM     11  C   UNL     1      -1.579  -6.546  -0.341  0.00  0.00    -0.000 C 
ATOM     12  C   UNL     1      -0.213  -6.228   0.270  0.00  0.00    -0.000 C 
ATOM     13  C   UNL     1      -0.061  -6.976   1.597  0.00  0.00    -0.000 C 
ATOM     14  C   UNL     1       0.341  -5.990   2.695  0.00  0.00    +0.000 C 
ATOM     15  C   UNL     1      -0.621  -6.123   3.877  0.00  0.00    +0.000 C 
ATOM     16  C   UNL     1      -1.233  -4.757   4.194  0.00  0.00    +0.000 C 
ATOM     17  C   UNL     1      -2.758  -4.878   4.234  0.00  0.00    +0.006 C 
ATOM     18  C   UNL     1      -3.379  -3.772   3.378  0.00  0.00    +0.052 C 
ATOM     19  C   UNL     1      -4.197  -4.391   2.274  0.00  0.00    +0.044 C 
ATOM     20  N   UNL     1      -5.120  -5.231   2.556  0.00  0.00    -0.098 NA
BRANCH  20  21
ATOM     21  O   UNL     1      -5.372  -5.581   3.905  0.00  0.00    -0.409 OA
ATOM     22  H   UNL     1      -6.086  -6.223   4.018  0.00  0.00    +0.328 HD
ENDBRANCH  20  21
ENDBRANCH   4   8
BRANCH   1  28
ATOM     23  C   UNL     1      -0.029   1.408   0.163  0.00  0.00    +0.008 A 
ATOM     24  C   UNL     1       1.161   2.112   0.147  0.00  0.00    +0.020 A 
ATOM     25  C   UNL     1       2.363   1.436   0.045  0.00  0.00    +0.041 A 
ATOM     26  C   UNL     1       2.375   0.056  -0.043  0.00  0.00    +0.020 A 
ATOM     27  C   UNL     1       1.185  -0.648  -0.028  0.00  0.00    +0.008 A 
ATOM     28  C   UNL     1      -0.017   0.029   0.075  0.00  0.00    -0.016 A 
ATOM     29 CL   UNL     1       3.857   2.320   0.025  0.00  0.00    -0.084 Cl
ENDBRANCH   1  28
BRANCH   1  30
ATOM     30  O   UNL     1      -2.350   0.063  -0.478  0.00  0.00    -0.384 OA
ATOM     31  H   UNL     1      -2.506   0.895  -0.011  0.00  0.00    +0.211 HD
ENDBRANCH   1  30
TORSDOF 4
