REMARK  Name = ZINC01475023
REMARK  6 active torsions:
REMARK  status: ('A' for Active; 'I' for Inactive)
REMARK    1  A    between atoms: C_1  and  N_2
REMARK    2  A    between atoms: N_7  and  C_10
REMARK    3  A    between atoms: N_11  and  C_14
REMARK    4  A    between atoms: C_14  and  C_15
REMARK    5  A    between atoms: N_17  and  N_18
REMARK    6  A    between atoms: C_19  and  C_20
REMARK                            x       y       z     vdW  Elec       q    Type
REMARK                         _______ _______ _______ _____ _____    ______ ____
ROOT
ATOM      1  C   UNL     1      -0.018   1.461   0.010  0.00  0.00    +0.155 C 
ATOM      2  N   UNL     1       0.002  -0.004   0.002  0.00  0.00    -0.280 N 
ATOM      3  C   UNL     1      -1.189  -0.712   0.004  0.00  0.00    +0.168 A 
ATOM      4  C   UNL     1      -1.144  -2.100  -0.004  0.00  0.00    +0.152 A 
ATOM      5  C   UNL     1       0.111  -2.748  -0.013  0.00  0.00    +0.282 A 
ATOM      6  O   UNL     1       0.176  -3.964  -0.021  0.00  0.00    -0.265 OA
ATOM      7  N   UNL     1       1.236  -2.003  -0.015  0.00  0.00    -0.262 N 
ATOM      8  C   UNL     1       1.178  -0.660  -0.013  0.00  0.00    +0.333 A 
ATOM      9  O   UNL     1       2.213  -0.022  -0.020  0.00  0.00    -0.246 OA
ATOM     10  C   UNL     1       2.541  -2.668  -0.025  0.00  0.00    +0.157 C 
ATOM     11  N   UNL     1      -2.456  -2.530   0.000  0.00  0.00    -0.316 N 
ATOM     12  C   UNL     1      -3.231  -1.427   0.010  0.00  0.00    +0.202 A 
ATOM     13  N   UNL     1      -2.477  -0.358   0.012  0.00  0.00    -0.218 NA
ENDROOT
BRANCH  11  14
ATOM     14  C   UNL     1      -2.918  -3.920  -0.006  0.00  0.00    +0.220 C 
BRANCH  14  15
ATOM     15  C   UNL     1      -2.952  -4.444   1.406  0.00  0.00    +0.252 C 
ATOM     16  O   UNL     1      -2.622  -3.727   2.328  0.00  0.00    -0.272 OA
ATOM     17  N   UNL     1      -3.348  -5.710   1.646  0.00  0.00    -0.205 N 
ATOM     18  H   UNL     1      -3.612  -6.283   0.909  0.00  0.00    +0.177 HD
BRANCH  17  19
ATOM     19  N   UNL     1      -3.380  -6.197   2.959  0.00  0.00    -0.187 NA
ATOM     20  C   UNL     1      -3.762  -7.419   3.191  0.00  0.00    +0.145 C 
BRANCH  20  21
ATOM     21  C   UNL     1      -3.795  -7.929   4.565  0.00  0.00    +0.033 A 
ATOM     22  C   UNL     1      -4.161  -9.184   5.021  0.00  0.00    +0.018 A 
ATOM     23  C   UNL     1      -4.109  -9.428   6.374  0.00  0.00    +0.023 A 
ATOM     24  C   UNL     1      -3.704  -8.438   7.213  0.00  0.00    +0.055 A 
ATOM     25  S   UNL     1      -3.368  -7.096   6.085  0.00  0.00    -0.080 S 
ATOM     26 BR   UNL     1      -3.534  -8.475   9.096  0.00  0.00    -0.043 Br
ENDBRANCH  20  21
ENDBRANCH  17  19
ENDBRANCH  14  15
ENDBRANCH  11  14
TORSDOF 4
