REMARK  Name = ZINC24716873
REMARK  12 active torsions:
REMARK  status: ('A' for Active; 'I' for Inactive)
REMARK    1  A    between atoms: C_1  and  C_2
REMARK    2  A    between atoms: C_2  and  O_3
REMARK    3  A    between atoms: O_3  and  C_4
REMARK    4  A    between atoms: C_6  and  C_14
REMARK    5  A    between atoms: C_9  and  O_10
REMARK    6  A    between atoms: O_10  and  C_11
REMARK    7  A    between atoms: C_14  and  N_15
REMARK    8  A    between atoms: N_15  and  C_16
REMARK    9  A    between atoms: N_15  and  C_32
REMARK   10  A    between atoms: C_16  and  C_17
REMARK   11  A    between atoms: C_26  and  S_28
REMARK   12  A    between atoms: S_28  and  N_31
REMARK                            x       y       z     vdW  Elec       q    Type
REMARK                         _______ _______ _______ _____ _____    ______ ____
ROOT
ATOM      1  N   UNL     1       3.891   0.060   3.709  0.00  0.00    +0.390 N 
ATOM      2  H   UNL     1       3.795   0.733   4.573  0.00  0.00    -0.080 HD
ENDROOT
BRANCH   1   3
ATOM      3  C   UNL     1       3.895   0.885   2.493  0.00  0.00    -0.068 C 
ATOM      4  C   UNL     1       5.010   0.636   1.475  0.00  0.00    -0.017 C 
ATOM      5  C   UNL     1       5.026   1.903   2.334  0.00  0.00    -0.017 C 
ENDBRANCH   1   3
BRANCH   1   6
ATOM      6  C   UNL     1       2.742  -0.856   3.720  0.00  0.00    -0.042 C 
BRANCH   6   9
ATOM      7  C   UNL     1      -0.349   1.096   2.766  0.00  0.00    +0.162 A 
ATOM      8  C   UNL     1       0.824   0.364   2.673  0.00  0.00    +0.051 A 
ATOM      9  C   UNL     1       1.466  -0.060   3.822  0.00  0.00    -0.060 A 
ATOM     10  C   UNL     1       0.942   0.246   5.064  0.00  0.00    +0.005 A 
ATOM     11  C   UNL     1      -0.228   0.976   5.163  0.00  0.00    +0.050 A 
ATOM     12  C   UNL     1      -0.874   1.408   4.016  0.00  0.00    +0.168 A 
BRANCH   7  13
ATOM     13  O   UNL     1      -0.982   1.513   1.637  0.00  0.00    -0.489 OA
BRANCH  13  15
ATOM     14  C   UNL     1      -1.231   1.713  -0.759  0.00  0.00    +0.048 C 
ATOM     15  C   UNL     1      -0.383   1.161   0.388  0.00  0.00    +0.226 C 
ENDBRANCH  13  15
ENDBRANCH   7  13
BRANCH  12  16
ATOM     16  O   UNL     1      -2.022   2.131   4.112  0.00  0.00    -0.431 OA
BRANCH  16  17
ATOM     17  C   UNL     1      -2.502   2.414   5.427  0.00  0.00    +0.541 C 
ATOM     18  F   UNL     1      -2.757   1.214   6.099  0.00  0.00    -0.166 F 
ATOM     19  F   UNL     1      -1.538   3.146   6.129  0.00  0.00    -0.166 F 
ENDBRANCH  16  17
ENDBRANCH  12  16
ENDBRANCH   6   9
ENDBRANCH   1   6
BRANCH   1  20
ATOM     20  C   UNL     1       5.153  -0.678   3.849  0.00  0.00    +0.020 C 
BRANCH  20  21
ATOM     21  C   UNL     1       5.329  -1.106   5.283  0.00  0.00    +0.203 C 
ATOM     22  O   UNL     1       4.448  -0.895   6.091  0.00  0.00    -0.277 OA
ATOM     23  N   UNL     1       6.463  -1.722   5.668  0.00  0.00    -0.272 N 
ATOM     24  C   UNL     1       7.591  -2.035   4.786  0.00  0.00    +0.118 C 
ATOM     25  C   UNL     1       8.628  -2.725   5.687  0.00  0.00    +0.056 C 
ATOM     26  C   UNL     1       7.983  -2.758   7.054  0.00  0.00    -0.023 A 
ATOM     27  C   UNL     1       6.735  -2.162   6.968  0.00  0.00    +0.040 A 
ATOM     28  C   UNL     1       5.944  -2.076   8.115  0.00  0.00    +0.026 A 
ATOM     29  C   UNL     1       6.402  -2.578   9.315  0.00  0.00    +0.030 A 
ATOM     30  C   UNL     1       7.649  -3.171   9.390  0.00  0.00    +0.105 A 
ATOM     31  C   UNL     1       8.438  -3.260   8.258  0.00  0.00    +0.034 A 
BRANCH  30  32
ATOM     32  S   UNL     1       8.231  -3.811  10.925  0.00  0.00    +0.056 S 
ATOM     33  O   UNL     1       9.650  -3.825  10.848  0.00  0.00    -0.153 OA
ATOM     34  O   UNL     1       7.531  -3.115  11.947  0.00  0.00    -0.153 OA
BRANCH  32  35
ATOM     35  N   UNL     1       7.746  -5.392  11.012  0.00  0.00    -0.204 NA
ATOM     36  H   UNL     1       8.091  -5.830  11.960  0.00  0.00    +0.144 HD
ATOM     37  H   UNL     1       8.176  -5.954  10.170  0.00  0.00    +0.144 HD
ENDBRANCH  32  35
ENDBRANCH  30  32
ENDBRANCH  20  21
ENDBRANCH   1  20
TORSDOF 11
