REMARK  Name = ZINC12340642
REMARK  6 active torsions:
REMARK  status: ('A' for Active; 'I' for Inactive)
REMARK    1  A    between atoms: C_1  and  C_2
REMARK    2  A    between atoms: C_3  and  C_19
REMARK    3  A    between atoms: C_16  and  C_17
REMARK    4  A    between atoms: N_20  and  N_21
REMARK    5  A    between atoms: N_21  and  C_22
REMARK    6  A    between atoms: C_22  and  N_24
REMARK                            x       y       z     vdW  Elec       q    Type
REMARK                         _______ _______ _______ _____ _____    ______ ____
ROOT
ATOM      1  C   UNL     1       2.388  -1.092  -2.628  0.00  0.00    +0.046 C 
ATOM      2  C   UNL     1       1.801  -0.178  -1.584  0.00  0.00    -0.016 A 
ATOM      3  C   UNL     1       2.425  -0.019  -0.351  0.00  0.00    +0.064 A 
ATOM      4  C   UNL     1       1.853   0.845   0.611  0.00  0.00    +0.266 A 
ATOM      5  O   UNL     1       2.396   0.987   1.693  0.00  0.00    -0.267 OA
ATOM      6  N   UNL     1       0.713   1.513   0.345  0.00  0.00    -0.259 N 
ATOM      7  C   UNL     1      -0.026   2.405   1.123  0.00  0.00    +0.075 A 
ATOM      8  C   UNL     1       0.146   2.903   2.407  0.00  0.00    +0.028 A 
ATOM      9  C   UNL     1      -0.771   3.795   2.927  0.00  0.00    +0.002 A 
ATOM     10  C   UNL     1      -1.861   4.194   2.172  0.00  0.00    +0.002 A 
ATOM     11  C   UNL     1      -2.042   3.704   0.895  0.00  0.00    +0.028 A 
ATOM     12  C   UNL     1      -1.125   2.806   0.363  0.00  0.00    +0.065 A 
ATOM     13  N   UNL     1      -1.040   2.151  -0.858  0.00  0.00    -0.338 N 
ATOM     14  H   UNL     1      -1.668   2.234  -1.592  0.00  0.00    +0.167 HD
ATOM     15  C   UNL     1       0.084   1.375  -0.852  0.00  0.00    +0.137 A 
ATOM     16  C   UNL     1       0.615   0.528  -1.839  0.00  0.00    +0.096 A 
ENDROOT
BRANCH  16  17
ATOM     17  C   UNL     1      -0.051   0.385  -3.099  0.00  0.00    +0.103 C 
ATOM     18  N   UNL     1      -0.579   0.272  -4.098  0.00  0.00    -0.191 NA
ENDBRANCH  16  17
BRANCH   3  19
ATOM     19  C   UNL     1       3.670  -0.744  -0.051  0.00  0.00    +0.144 C 
ATOM     20  N   UNL     1       3.659  -2.039   0.055  0.00  0.00    -0.188 NA
BRANCH  20  21
ATOM     21  N   UNL     1       2.440  -2.730   0.062  0.00  0.00    -0.219 N 
ATOM     22  H   UNL     1       1.609  -2.249  -0.073  0.00  0.00    +0.176 HD
BRANCH  21  23
ATOM     23  C   UNL     1       2.423  -4.064   0.258  0.00  0.00    +0.147 C 
ATOM     24  S   UNL     1       0.934  -4.909   0.268  0.00  0.00    -0.017 S 
BRANCH  23  25
ATOM     25  N   UNL     1       3.579  -4.732   0.447  0.00  0.00    -0.339 N 
ATOM     26  H   UNL     1       4.422  -4.253   0.441  0.00  0.00    +0.144 HD
ATOM     27  H   UNL     1       3.567  -5.691   0.587  0.00  0.00    +0.144 HD
ENDBRANCH  23  25
ENDBRANCH  21  23
ENDBRANCH  20  21
ENDBRANCH   3  19
TORSDOF 5
