REMARK  Name = ZINC53629590
REMARK  6 active torsions:
REMARK  status: ('A' for Active; 'I' for Inactive)
REMARK    1  A    between atoms: C_6  and  C_7
REMARK    2  A    between atoms: C_11  and  C_21
REMARK    3  A    between atoms: C_15  and  C_17
REMARK    4  A    between atoms: N_23  and  C_24
REMARK    5  A    between atoms: C_24  and  C_25
REMARK    6  A    between atoms: C_25  and  C_26
REMARK                            x       y       z     vdW  Elec       q    Type
REMARK                         _______ _______ _______ _____ _____    ______ ____
ROOT
ATOM      1  C   UNL     1      -1.268  -0.764   0.011  0.00  0.00    +0.050 C 
ATOM      2  N   UNL     1      -1.246  -2.080   0.009  0.00  0.00    -0.342 N 
ATOM      3  C   UNL     1      -2.397  -2.798   0.016  0.00  0.00    +0.116 C 
ATOM      4  C   UNL     1      -2.566  -4.137   0.015  0.00  0.00    +0.045 C 
ATOM      5  C   UNL     1      -4.056  -4.387   0.025  0.00  0.00    +0.185 C 
ATOM      6  N   UNL     1      -4.656  -3.042   0.032  0.00  0.00    -0.218 NA
ATOM      7  N   UNL     1      -3.621  -2.145   0.026  0.00  0.00    -0.215 N 
ATOM      8  C   UNL     1      -3.658  -0.771   0.028  0.00  0.00    +0.133 C 
ATOM      9  C   UNL     1      -2.505  -0.072   0.026  0.00  0.00    +0.055 C 
ATOM     10  H   UNL     1      -5.254  -2.908  -0.769  0.00  0.00    +0.146 HD
ATOM     11  H   UNL     1      -0.393  -2.543   0.002  0.00  0.00    +0.167 HD
ENDROOT
BRANCH   1  17
ATOM     12  C   UNL     1      -0.017   1.391   0.010  0.00  0.00    +0.013 A 
ATOM     13  C   UNL     1       1.169   2.095   0.002  0.00  0.00    +0.039 A 
ATOM     14  C   UNL     1       2.379   1.418  -0.013  0.00  0.00    +0.123 A 
ATOM     15  C   UNL     1       2.403   0.032  -0.021  0.00  0.00    +0.039 A 
ATOM     16  C   UNL     1       1.222  -0.681  -0.014  0.00  0.00    +0.013 A 
ATOM     17  C   UNL     1       0.002  -0.004   0.002  0.00  0.00    -0.001 A 
ATOM     18  F   UNL     1       3.538   2.111  -0.020  0.00  0.00    -0.205 F 
ENDBRANCH   1  17
BRANCH   8  19
ATOM     19  C   UNL     1      -4.981  -0.049   0.039  0.00  0.00    +0.432 C 
ATOM     20  F   UNL     1      -4.758   1.333   0.040  0.00  0.00    -0.165 F 
ATOM     21  F   UNL     1      -5.714  -0.402  -1.099  0.00  0.00    -0.165 F 
ATOM     22  F   UNL     1      -5.698  -0.406   1.185  0.00  0.00    -0.165 F 
ENDBRANCH   8  19
BRANCH   5  23
ATOM     23  C   UNL     1      -4.471  -5.145  -1.209  0.00  0.00    +0.236 C 
ATOM     24  O   UNL     1      -5.252  -4.647  -1.992  0.00  0.00    -0.274 OA
ATOM     25  N   UNL     1      -3.974  -6.376  -1.444  0.00  0.00    -0.313 N 
ATOM     26  H   UNL     1      -3.349  -6.774  -0.817  0.00  0.00    +0.149 HD
BRANCH  25  27
ATOM     27  C   UNL     1      -4.377  -7.112  -2.644  0.00  0.00    +0.110 C 
BRANCH  27  28
ATOM     28  C   UNL     1      -3.674  -8.471  -2.669  0.00  0.00    +0.073 C 
BRANCH  28  29
ATOM     29  C   UNL     1      -4.089  -9.229  -3.904  0.00  0.00    +0.035 A 
ATOM     30  H   UNL     1      -4.039 -10.122  -6.892  0.00  0.00    +0.166 HD
ATOM     31  C   UNL     1      -3.534  -9.116  -5.125  0.00  0.00    +0.105 A 
ATOM     32  N   UNL     1      -4.208  -9.977  -5.948  0.00  0.00    -0.352 N 
ATOM     33  C   UNL     1      -5.152 -10.587  -5.200  0.00  0.00    +0.171 A 
ATOM     34  N   UNL     1      -5.072 -10.138  -3.977  0.00  0.00    -0.350 N 
ATOM     35  H   UNL     1      -5.636 -10.417  -3.239  0.00  0.00    +0.166 HD
ENDBRANCH  28  29
ENDBRANCH  27  28
ENDBRANCH  25  27
ENDBRANCH   5  23
TORSDOF 6
