REMARK  Name = ZINC02918749
REMARK  3 active torsions:
REMARK  status: ('A' for Active; 'I' for Inactive)
REMARK    1  A    between atoms: C_5  and  C_7
REMARK    2  A    between atoms: C_10  and  C_22
REMARK    3  A    between atoms: C_26  and  N_28
REMARK                            x       y       z     vdW  Elec       q    Type
REMARK                         _______ _______ _______ _____ _____    ______ ____
ROOT
ATOM      1  C   UNL     1      -4.147   5.430  -1.886  0.00  0.00    +0.125 C 
ATOM      2  C   UNL     1      -2.825   6.020  -1.370  0.00  0.00    +0.057 C 
ATOM      3  C   UNL     1      -2.552   5.500   0.046  0.00  0.00    +0.106 C 
ATOM      4  N   UNL     1      -3.623   5.976   0.940  0.00  0.00    -0.309 N 
ATOM      5  C   UNL     1      -4.919   5.880   0.455  0.00  0.00    +0.175 A 
ATOM      6  N   UNL     1      -5.186   5.622  -0.870  0.00  0.00    -0.306 N 
ATOM      7  C   UNL     1      -6.545   5.590  -1.008  0.00  0.00    +0.069 A 
ATOM      8  C   UNL     1      -7.378   5.373  -2.099  0.00  0.00    +0.028 A 
ATOM      9  C   UNL     1      -8.744   5.413  -1.869  0.00  0.00    +0.002 A 
ATOM     10  C   UNL     1      -9.269   5.657  -0.612  0.00  0.00    +0.002 A 
ATOM     11  C   UNL     1      -8.461   5.877   0.490  0.00  0.00    +0.028 A 
ATOM     12  C   UNL     1      -7.078   5.841   0.281  0.00  0.00    +0.065 A 
ATOM     13  N   UNL     1      -6.037   6.009   1.120  0.00  0.00    -0.327 N 
ATOM     14  H   UNL     1      -3.373   6.378   1.933  0.00  0.00    +0.149 HD
ATOM     15  H   UNL     1      -6.014   6.222   2.199  0.00  0.00    +0.169 HD
ENDROOT
BRANCH   1  20
ATOM     16  C   UNL     1      -5.136   8.139  -4.323  0.00  0.00    +0.001 A 
ATOM     17  C   UNL     1      -5.290   7.418  -5.492  0.00  0.00    +0.003 A 
ATOM     18  C   UNL     1      -5.074   6.053  -5.496  0.00  0.00    +0.039 A 
ATOM     19  C   UNL     1      -4.700   5.409  -4.329  0.00  0.00    +0.129 A 
ATOM     20  C   UNL     1      -4.551   6.131  -3.158  0.00  0.00    +0.011 A 
ATOM     21  C   UNL     1      -4.766   7.496  -3.156  0.00  0.00    +0.008 A 
ATOM     22  F   UNL     1      -4.484   4.075  -4.333  0.00  0.00    -0.205 F 
ENDBRANCH   1  20
BRANCH   3  23
ATOM     23  C   UNL     1      -2.531   3.994   0.037  0.00  0.00    -0.025 A 
ATOM     24  C   UNL     1      -3.719   3.286   0.038  0.00  0.00    +0.005 A 
ATOM     25  C   UNL     1      -3.700   1.904   0.030  0.00  0.00    +0.003 A 
ATOM     26  C   UNL     1      -2.494   1.229   0.021  0.00  0.00    +0.033 A 
ATOM     27  C   UNL     1      -1.306   1.936   0.019  0.00  0.00    +0.127 A 
ATOM     28  C   UNL     1      -1.325   3.319   0.032  0.00  0.00    +0.038 A 
BRANCH  27  29
ATOM     29  N   UNL     1      -0.014   1.214   0.009  0.00  0.00    +0.056 N 
ATOM     30  O   UNL     1       0.002  -0.004   0.002  0.00  0.00    -0.126 OA
ATOM     31  O   UNL     1       1.032   1.837   0.002  0.00  0.00    -0.126 OA
ENDBRANCH  27  29
ENDBRANCH   3  23
TORSDOF 3
