REMARK  Name = ZINC44714284
REMARK  9 active torsions:
REMARK  status: ('A' for Active; 'I' for Inactive)
REMARK    1  A    between atoms: C_1  and  C_2
REMARK    2  A    between atoms: C_3  and  C_9
REMARK    3  A    between atoms: C_4  and  C_8
REMARK    4  A    between atoms: C_9  and  C_11
REMARK    5  A    between atoms: C_9  and  N_12
REMARK    6  A    between atoms: C_13  and  C_15
REMARK    7  A    between atoms: C_26  and  C_28
REMARK    8  A    between atoms: C_35  and  C_39
REMARK    9  A    between atoms: N_37  and  C_38
REMARK                            x       y       z     vdW  Elec       q    Type
REMARK                         _______ _______ _______ _____ _____    ______ ____
ROOT
ATOM      1  C   UNL     1      -2.503  -1.220  -5.514  0.00  0.00    +0.100 C 
ATOM      2  C   UNL     1      -3.794  -1.577  -4.742  0.00  0.00    +0.121 C 
ATOM      3  N   UNL     1      -4.735  -0.477  -5.059  0.00  0.00    -0.296 N 
ATOM      4  C   UNL     1      -4.497  -0.189  -6.493  0.00  0.00    +0.115 C 
ATOM      5  C   UNL     1      -2.970  -0.312  -6.665  0.00  0.00    -0.004 C 
ATOM      6  C   UNL     1      -2.639  -0.952  -8.010  0.00  0.00    -0.010 C 
ATOM      7  C   UNL     1      -3.059  -0.004  -9.137  0.00  0.00    -0.082 C 
ATOM      8  N   UNL     1      -2.352   1.274  -8.994  0.00  0.00    +0.379 N 
ATOM      9  C   UNL     1      -2.748   1.927  -7.739  0.00  0.00    -0.082 C 
ATOM     10  C   UNL     1      -2.314   1.061  -6.553  0.00  0.00    -0.010 C 
ATOM     11  C   UNL     1      -5.611   0.125  -4.230  0.00  0.00    +0.250 C 
ATOM     12  O   UNL     1      -5.623  -0.161  -3.048  0.00  0.00    -0.270 OA
ATOM     13  H   UNL     1      -1.357   1.108  -8.986  0.00  0.00    -0.086 HD
ATOM     14  H   UNL     1      -2.584   1.874  -9.771  0.00  0.00    -0.086 HD
ENDROOT
BRANCH  11  15
ATOM     15  C   UNL     1      -6.554   1.130  -4.756  0.00  0.00    +0.074 A 
ATOM     16  C   UNL     1      -7.098   0.989  -6.040  0.00  0.00    +0.127 A 
ATOM     17  N   UNL     1      -7.938   1.871  -6.527  0.00  0.00    -0.235 NA
ATOM     18  C   UNL     1      -8.317   2.939  -5.832  0.00  0.00    +0.160 A 
ATOM     19  C   UNL     1      -7.816   3.154  -4.532  0.00  0.00    +0.060 A 
ATOM     20  C   UNL     1      -6.922   2.231  -3.979  0.00  0.00    +0.067 A 
ATOM     21 CL   UNL     1      -6.284   2.450  -2.379  0.00  0.00    -0.082 Cl
ATOM     22  C   UNL     1      -8.420   4.394  -4.055  0.00  0.00    +0.071 A 
ATOM     23  N   UNL     1      -9.195   4.843  -5.000  0.00  0.00    -0.174 NA
ATOM     24  N   UNL     1      -9.158   3.982  -6.101  0.00  0.00    -0.249 N 
ATOM     25  C   UNL     1      -9.904   4.168  -7.348  0.00  0.00    +0.174 C 
ATOM     26  C   UNL     1      -8.190   5.037  -2.712  0.00  0.00    +0.068 C 
ENDBRANCH  11  15
BRANCH   1  28
ATOM     27  N   UNL     1      -0.215  -0.596  -4.813  0.00  0.00    -0.308 N 
ATOM     28  C   UNL     1      -1.544  -0.481  -4.619  0.00  0.00    +0.219 C 
ATOM     29  O   UNL     1      -1.966   0.218  -3.722  0.00  0.00    -0.275 OA
ATOM     30  H   UNL     1       0.123  -1.155  -5.530  0.00  0.00    +0.149 HD
BRANCH  27  31
ATOM     31  C   UNL     1       0.718   0.123  -3.942  0.00  0.00    +0.104 C 
ATOM     32  C   UNL     1       0.822   1.579  -4.398  0.00  0.00    +0.033 C 
BRANCH  31  35
ATOM     33  C   UNL     1       2.194  -0.762  -6.555  0.00  0.00    +0.065 C 
ATOM     34  C   UNL     1       2.715  -0.908  -5.149  0.00  0.00    +0.038 A 
ATOM     35  C   UNL     1       2.077  -0.526  -4.018  0.00  0.00    +0.015 A 
ATOM     36  C   UNL     1       2.901  -0.838  -2.932  0.00  0.00    +0.065 A 
ATOM     37  N   UNL     1       3.995  -1.388  -3.394  0.00  0.00    -0.179 NA
ATOM     38  N   UNL     1       3.898  -1.448  -4.790  0.00  0.00    -0.281 N 
ATOM     39  H   UNL     1       4.566  -1.812  -5.393  0.00  0.00    +0.189 HD
ATOM     40  C   UNL     1       2.585  -0.584  -1.481  0.00  0.00    +0.068 C 
ENDBRANCH  31  35
ENDBRANCH  27  31
ENDBRANCH   1  28
TORSDOF 4
