REMARK  Name = ZINC12860992
REMARK  2 active torsions:
REMARK  status: ('A' for Active; 'I' for Inactive)
REMARK    1  A    between atoms: C_4  and  N_15
REMARK    2  A    between atoms: C_5  and  C_7
REMARK                            x       y       z     vdW  Elec       q    Type
REMARK                         _______ _______ _______ _____ _____    ______ ____
ROOT
ATOM      1  C   UNL     1       1.555   7.517   0.133  0.00  0.00    +0.001 A 
ATOM      2  C   UNL     1       0.366   8.187  -0.102  0.00  0.00    +0.002 A 
ATOM      3  C   UNL     1      -0.821   7.488  -0.199  0.00  0.00    +0.023 A 
ATOM      4  C   UNL     1      -0.827   6.106  -0.067  0.00  0.00    +0.034 A 
ATOM      5  C   UNL     1       0.374   5.427   0.175  0.00  0.00    +0.030 A 
ATOM      6  C   UNL     1       1.566   6.145   0.272  0.00  0.00    +0.012 A 
ENDROOT
BRANCH   5   7
ATOM      7  C   UNL     1       0.379   3.956   0.322  0.00  0.00    +0.134 A 
ATOM      8  N   UNL     1       1.369   3.165   0.652  0.00  0.00    -0.156 NA
ATOM      9  N   UNL     1       1.192   1.791   0.743  0.00  0.00    -0.193 N 
ATOM     10  C   UNL     1       1.914   0.653   1.040  0.00  0.00    +0.249 A 
ATOM     11  N   UNL     1       1.113  -0.370   0.938  0.00  0.00    -0.135 NA
ATOM     12  N   UNL     1      -0.065   0.023   0.599  0.00  0.00    -0.121 NA
ATOM     13  C   UNL     1      -0.067   1.315   0.470  0.00  0.00    +0.218 A 
ATOM     14  S   UNL     1      -0.966   2.801   0.100  0.00  0.00    -0.026 S 
ENDBRANCH   5   7
BRANCH   4  15
ATOM     15  N   UNL     1      -2.023   5.399  -0.171  0.00  0.00    -0.357 N 
ATOM     16  H   UNL     1      -2.130   4.557   0.298  0.00  0.00    +0.142 HD
ATOM     17  H   UNL     1      -2.748   5.749  -0.712  0.00  0.00    +0.142 HD
ENDBRANCH   4  15
TORSDOF 2
