REMARK  Name = ZINC39464068
REMARK  4 active torsions:
REMARK  status: ('A' for Active; 'I' for Inactive)
REMARK    1  A    between atoms: C_4  and  C_7
REMARK    2  A    between atoms: C_7  and  P_8
REMARK    3  A    between atoms: C_16  and  O_25
REMARK    4  A    between atoms: C_17  and  O_24
REMARK                            x       y       z     vdW  Elec       q    Type
REMARK                         _______ _______ _______ _____ _____    ______ ____
ROOT
ATOM      1  P   UNL     1       4.260  -1.012   1.674  0.00  0.00    +0.289 P 
ATOM      2  O   UNL     1       3.278  -1.866   2.380  0.00  0.00    -0.271 OA
ATOM      3  N   UNL     1       5.750  -1.728   1.677  0.00  0.00    -0.179 NA
ATOM      4  N   UNL     1       6.486  -1.612   2.836  0.00  0.00    -0.226 NA
ATOM      5  C   UNL     1       7.785  -2.282   2.670  0.00  0.00    +0.108 C 
ATOM      6  C   UNL     1       8.438  -2.435   4.043  0.00  0.00    +0.052 C 
ATOM      7  C   UNL     1       8.459  -1.101   4.747  0.00  0.00    -0.038 A 
ATOM      8  C   UNL     1       9.335  -0.927   5.808  0.00  0.00    +0.053 A 
ATOM      9  C   UNL     1       9.385   0.280   6.482  0.00  0.00    +0.158 A 
ATOM     10  C   UNL     1       8.551   1.323   6.089  0.00  0.00    +0.159 A 
ATOM     11  C   UNL     1       7.680   1.143   5.030  0.00  0.00    +0.054 A 
ATOM     12  C   UNL     1       7.632  -0.070   4.357  0.00  0.00    -0.020 A 
ATOM     13  C   UNL     1       6.665  -0.210   3.211  0.00  0.00    +0.129 C 
ATOM     14  C   UNL     1       5.329   0.428   3.604  0.00  0.00    +0.194 C 
ATOM     15  O   UNL     1       4.449   0.397   2.463  0.00  0.00    -0.314 OA
ATOM     16  H   UNL     1       6.089  -2.205   0.903  0.00  0.00    +0.151 HD
ENDROOT
BRANCH  10  17
ATOM     17  O   UNL     1       8.593   2.514   6.744  0.00  0.00    -0.503 OA
ATOM     18  H   UNL     1       9.226   3.144   6.375  0.00  0.00    +0.292 HD
ENDBRANCH  10  17
BRANCH   9  19
ATOM     19  O   UNL     1      10.245   0.446   7.522  0.00  0.00    -0.503 OA
ATOM     20  H   UNL     1      11.115   0.780   7.264  0.00  0.00    +0.292 HD
ENDBRANCH   9  19
BRANCH   1  21
ATOM     21  C   UNL     1       3.711  -0.707  -0.038  0.00  0.00    +0.150 C 
BRANCH  21  25
ATOM     22  C   UNL     1      -0.017   1.378   0.010  0.00  0.00    +0.000 A 
ATOM     23  C   UNL     1       1.171   2.086   0.002  0.00  0.00    +0.000 A 
ATOM     24  C   UNL     1       2.377   1.411  -0.013  0.00  0.00    +0.004 A 
ATOM     25  C   UNL     1       2.396   0.029  -0.020  0.00  0.00    -0.037 A 
ATOM     26  C   UNL     1       1.208  -0.679  -0.012  0.00  0.00    +0.004 A 
ATOM     27  C   UNL     1       0.002  -0.004   0.002  0.00  0.00    +0.000 A 
ENDBRANCH  21  25
ENDBRANCH   1  21
TORSDOF 4
