REMARK  Name = ZINC49555403
REMARK  9 active torsions:
REMARK  status: ('A' for Active; 'I' for Inactive)
REMARK    1  A    between atoms: C_1  and  C_2
REMARK    2  A    between atoms: C_2  and  C_4
REMARK    3  A    between atoms: C_2  and  N_9
REMARK    4  A    between atoms: C_4  and  C_5
REMARK    5  A    between atoms: C_5  and  N_6
REMARK    6  A    between atoms: N_6  and  C_7
REMARK    7  A    between atoms: N_6  and  C_8
REMARK    8  A    between atoms: N_9  and  C_10
REMARK    9  A    between atoms: C_19  and  N_20
REMARK                            x       y       z     vdW  Elec       q    Type
REMARK                         _______ _______ _______ _____ _____    ______ ____
ROOT
ATOM      1  C   UNL     1      -0.346  -0.691  -2.330  0.00  0.00    +0.059 A 
ATOM      2  C   UNL     1       0.018  -1.500  -3.430  0.00  0.00    +0.022 A 
ATOM      3  C   UNL     1       1.026  -2.470  -3.319  0.00  0.00    +0.027 A 
ATOM      4  C   UNL     1       1.350  -3.232  -4.402  0.00  0.00    +0.019 A 
ATOM      5  C   UNL     1       0.692  -3.059  -5.619  0.00  0.00    +0.017 A 
ATOM      6  C   UNL     1      -0.289  -2.127  -5.760  0.00  0.00    +0.027 A 
ATOM      7  C   UNL     1      -0.651  -1.322  -4.665  0.00  0.00    +0.048 A 
ATOM      8  N   UNL     1      -1.613  -0.400  -4.779  0.00  0.00    -0.359 N 
ATOM      9  C   UNL     1      -1.965   0.360  -3.767  0.00  0.00    +0.107 A 
ATOM     10  C   UNL     1      -1.358   0.244  -2.518  0.00  0.00    +0.062 A 
ATOM     11 BR   UNL     1       2.708  -4.539  -4.252  0.00  0.00    -0.050 Br
ATOM     12  H   UNL     1      -2.064  -0.289  -5.631  0.00  0.00    +0.165 HD
ENDROOT
BRANCH  10  13
ATOM     13  N   UNL     1      -1.763   1.067  -1.458  0.00  0.00    -0.355 N 
ATOM     14  H   UNL     1      -1.275   1.054  -0.619  0.00  0.00    +0.142 HD
ATOM     15  H   UNL     1      -2.531   1.651  -1.562  0.00  0.00    +0.142 HD
ENDBRANCH  10  13
BRANCH   1  16
ATOM     16  N   UNL     1       0.284  -0.830  -1.097  0.00  0.00    -0.339 N 
ATOM     17  H   UNL     1       1.238  -0.673  -1.020  0.00  0.00    +0.146 HD
BRANCH  16  19
ATOM     18  C   UNL     1       0.082  -0.518   1.320  0.00  0.00    +0.027 C 
ATOM     19  C   UNL     1      -0.494  -1.212   0.084  0.00  0.00    +0.066 C 
BRANCH  19  20
ATOM     20  C   UNL     1      -0.424  -2.729   0.271  0.00  0.00    +0.003 C 
BRANCH  20  21
ATOM     21  C   UNL     1      -1.111  -3.421  -0.908  0.00  0.00    -0.078 C 
BRANCH  21  22
ATOM     22  N   UNL     1      -1.044  -4.877  -0.728  0.00  0.00    +0.376 N 
ATOM     23  C   UNL     1      -1.824  -5.261   0.457  0.00  0.00    -0.097 C 
ATOM     24  C   UNL     1      -1.597  -5.543  -1.915  0.00  0.00    -0.097 C 
ATOM     25  H   UNL     1      -0.083  -5.157  -0.602  0.00  0.00    -0.083 HD
ENDBRANCH  21  22
ENDBRANCH  20  21
ENDBRANCH  19  20
ENDBRANCH  16  19
ENDBRANCH   1  16
TORSDOF 6
