REMARK  Name = ZINC38687059
REMARK  9 active torsions:
REMARK  status: ('A' for Active; 'I' for Inactive)
REMARK    1  A    between atoms: C_1  and  C_2
REMARK    2  A    between atoms: C_2  and  C_3
REMARK    3  A    between atoms: C_2  and  C_4
REMARK    4  A    between atoms: C_7  and  C_10
REMARK    5  A    between atoms: C_15  and  O_24
REMARK    6  A    between atoms: C_19  and  N_23
REMARK    7  A    between atoms: C_20  and  C_21
REMARK    8  A    between atoms: O_24  and  C_25
REMARK    9  A    between atoms: C_25  and  C_27
REMARK                            x       y       z     vdW  Elec       q    Type
REMARK                         _______ _______ _______ _____ _____    ______ ____
ROOT
ATOM      1  C   UNL     1       2.725  -1.914  -4.711  0.00  0.00    +0.098 C 
ATOM      2  C   UNL     1       4.132  -1.378  -4.731  0.00  0.00    +0.008 A 
ATOM      3  C   UNL     1       4.361  -0.084  -5.165  0.00  0.00    +0.012 A 
ATOM      4  C   UNL     1       5.644   0.425  -5.189  0.00  0.00    +0.047 A 
ATOM      5  C   UNL     1       6.710  -0.363  -4.778  0.00  0.00    +0.135 A 
ATOM      6  C   UNL     1       6.485  -1.658  -4.343  0.00  0.00    +0.093 A 
ATOM      7  C   UNL     1       5.193  -2.168  -4.318  0.00  0.00    +0.138 A 
ATOM      8  O   UNL     1       4.989  -3.439  -3.890  0.00  0.00    -0.441 OA
ATOM      9  C   UNL     1       3.852  -4.079  -4.211  0.00  0.00    +0.199 C 
ATOM     10  C   UNL     1       2.745  -3.413  -4.606  0.00  0.00    +0.098 C 
ENDROOT
BRANCH   1  14
ATOM     11  C   UNL     1       0.636  -0.291  -1.358  0.00  0.00    -0.045 A 
ATOM     12  C   UNL     1       0.175  -0.054  -2.639  0.00  0.00    +0.004 A 
ATOM     13  C   UNL     1       0.851  -0.580  -3.725  0.00  0.00    +0.005 A 
ATOM     14  C   UNL     1       1.988  -1.341  -3.528  0.00  0.00    -0.035 A 
ATOM     15  C   UNL     1       2.449  -1.576  -2.246  0.00  0.00    +0.005 A 
ATOM     16  C   UNL     1       1.776  -1.048  -1.161  0.00  0.00    +0.004 A 
BRANCH  11  18
ATOM     17  C   UNL     1      -0.136   1.808  -0.285  0.00  0.00    +0.012 C 
ATOM     18  C   UNL     1      -0.102   0.282  -0.175  0.00  0.00    +0.013 C 
ATOM     19  C   UNL     1      -1.532  -0.260  -0.154  0.00  0.00    +0.012 C 
ENDBRANCH  11  18
ENDBRANCH   1  14
BRANCH   9  20
ATOM     20  N   UNL     1       3.816  -5.449  -4.134  0.00  0.00    -0.328 N 
ATOM     21  H   UNL     1       4.603  -5.940  -3.851  0.00  0.00    +0.145 HD
ATOM     22  H   UNL     1       3.002  -5.926  -4.362  0.00  0.00    +0.145 HD
ENDBRANCH   9  20
BRANCH  10  23
ATOM     23  C   UNL     1       1.565  -4.156  -4.932  0.00  0.00    +0.101 C 
ATOM     24  N   UNL     1       0.629  -4.745  -5.191  0.00  0.00    -0.191 NA
ENDBRANCH  10  23
BRANCH   5  25
ATOM     25  O   UNL     1       7.974   0.137  -4.802  0.00  0.00    -0.423 OA
BRANCH  25  26
ATOM     26  C   UNL     1       8.834  -0.367  -5.702  0.00  0.00    +0.357 C 
ATOM     27  O   UNL     1       8.449  -1.162  -6.526  0.00  0.00    -0.246 OA
BRANCH  26  28
ATOM     28  C   UNL     1      10.279   0.059  -5.684  0.00  0.00    +0.319 C 
ATOM     29  C   UNL     1      10.946  -0.427  -4.390  0.00  0.00    +0.285 C 
ATOM     30  O   UNL     1      12.318  -0.019  -4.412  0.00  0.00    -0.484 OA
ATOM     31  C   UNL     1      13.003  -0.239  -5.567  0.00  0.00    +0.162 A 
ATOM     32  C   UNL     1      14.390  -0.212  -5.551  0.00  0.00    +0.049 A 
ATOM     33  C   UNL     1      15.099  -0.430  -6.717  0.00  0.00    +0.004 A 
ATOM     34  C   UNL     1      14.430  -0.676  -7.901  0.00  0.00    +0.004 A 
ATOM     35  C   UNL     1      13.048  -0.706  -7.923  0.00  0.00    +0.049 A 
ATOM     36  C   UNL     1      12.330  -0.488  -6.756  0.00  0.00    +0.163 A 
ATOM     37  O   UNL     1      10.970  -0.528  -6.792  0.00  0.00    -0.470 OA
ENDBRANCH  26  28
ENDBRANCH  25  26
ENDBRANCH   5  25
TORSDOF 7
