REMARK  Name = ZINC00827981
REMARK  18 active torsions:
REMARK  status: ('A' for Active; 'I' for Inactive)
REMARK    1  A    between atoms: C_1  and  C_2
REMARK    2  A    between atoms: C_5  and  N_9
REMARK    3  A    between atoms: C_6  and  C_8
REMARK    4  A    between atoms: N_9  and  C_10
REMARK    5  A    between atoms: C_10  and  C_11
REMARK    6  A    between atoms: C_11  and  C_13
REMARK    7  A    between atoms: C_11  and  O_36
REMARK    8  A    between atoms: C_13  and  O_14
REMARK    9  A    between atoms: O_14  and  C_15
REMARK   10  A    between atoms: C_18  and  O_21
REMARK   11  A    between atoms: O_21  and  C_22
REMARK   12  A    between atoms: C_22  and  C_23
REMARK   13  A    between atoms: C_23  and  C_25
REMARK   14  A    between atoms: C_23  and  O_35
REMARK   15  A    between atoms: C_25  and  N_26
REMARK   16  A    between atoms: N_26  and  C_27
REMARK   17  A    between atoms: C_30  and  C_34
REMARK   18  A    between atoms: C_32  and  C_33
REMARK                            x       y       z     vdW  Elec       q    Type
REMARK                         _______ _______ _______ _____ _____    ______ ____
ROOT
ATOM      1  C   UNL     1       6.082   1.149  -0.183  0.00  0.00    +0.121 A 
ATOM      2  C   UNL     1       6.248   2.523  -0.087  0.00  0.00    +0.049 A 
ATOM      3  C   UNL     1       7.517   3.068  -0.108  0.00  0.00    +0.049 A 
ATOM      4  C   UNL     1       8.624   2.243  -0.233  0.00  0.00    +0.121 A 
ATOM      5  C   UNL     1       8.458   0.870  -0.334  0.00  0.00    +0.049 A 
ATOM      6  C   UNL     1       7.190   0.324  -0.309  0.00  0.00    +0.049 A 
ENDROOT
BRANCH   1   7
ATOM      7  O   UNL     1       4.833   0.612  -0.158  0.00  0.00    -0.489 OA
BRANCH   7   8
ATOM      8  C   UNL     1       3.738   1.520  -0.025  0.00  0.00    +0.261 C 
BRANCH   8   9
ATOM      9  C   UNL     1       2.424   0.737  -0.017  0.00  0.00    +0.169 C 
BRANCH   9  10
ATOM     10  O   UNL     1       2.370  -0.091   1.146  0.00  0.00    -0.387 OA
ATOM     11  H   UNL     1       2.417   0.397   1.979  0.00  0.00    +0.210 HD
ENDBRANCH   9  10
BRANCH   9  12
ATOM     12  C   UNL     1       1.248   1.716  -0.001  0.00  0.00    +0.136 C 
BRANCH  12  13
ATOM     13  N   UNL     1      -0.011   0.966   0.007  0.00  0.00    -0.341 N 
ATOM     14  H   UNL     1       0.002  -0.004   0.002  0.00  0.00    +0.146 HD
BRANCH  13  19
ATOM     15  C   UNL     1      -4.960   3.734   0.043  0.00  0.00    +0.044 C 
ATOM     16  C   UNL     1      -3.645   2.998   0.034  0.00  0.00    -0.050 A 
ATOM     17  C   UNL     1      -2.458   3.708   0.033  0.00  0.00    +0.005 A 
ATOM     18  C   UNL     1      -1.251   3.037   0.025  0.00  0.00    +0.023 A 
ATOM     19  C   UNL     1      -1.230   1.648   0.017  0.00  0.00    +0.030 A 
ATOM     20  C   UNL     1      -2.424   0.939   0.013  0.00  0.00    -0.029 A 
ATOM     21  C   UNL     1      -3.628   1.616   0.027  0.00  0.00    +0.008 A 
ATOM     22  C   UNL     1      -2.407  -0.568  -0.002  0.00  0.00    +0.045 C 
ENDBRANCH  13  19
ENDBRANCH  12  13
ENDBRANCH   9  12
ENDBRANCH   8   9
ENDBRANCH   7   8
ENDBRANCH   1   7
BRANCH   4  23
ATOM     23  O   UNL     1       9.873   2.781  -0.257  0.00  0.00    -0.489 OA
BRANCH  23  24
ATOM     24  C   UNL     1       9.970   4.202  -0.148  0.00  0.00    +0.261 C 
BRANCH  24  25
ATOM     25  C   UNL     1      11.442   4.618  -0.194  0.00  0.00    +0.169 C 
BRANCH  25  26
ATOM     26  O   UNL     1      11.987   4.299  -1.476  0.00  0.00    -0.387 OA
ATOM     27  H   UNL     1      11.543   4.740  -2.213  0.00  0.00    +0.210 HD
ENDBRANCH  25  26
BRANCH  25  28
ATOM     28  C   UNL     1      11.553   6.125   0.047  0.00  0.00    +0.136 C 
BRANCH  28  29
ATOM     29  N   UNL     1      12.963   6.523   0.003  0.00  0.00    -0.341 N 
ATOM     30  H   UNL     1      13.650   5.858  -0.161  0.00  0.00    +0.146 HD
BRANCH  29  31
ATOM     31  C   UNL     1      13.317   7.860   0.197  0.00  0.00    +0.030 A 
ATOM     32  C   UNL     1      12.334   8.814   0.432  0.00  0.00    +0.023 A 
ATOM     33  C   UNL     1      12.687  10.135   0.624  0.00  0.00    +0.005 A 
ATOM     34  C   UNL     1      14.018  10.509   0.583  0.00  0.00    -0.050 A 
ATOM     35  C   UNL     1      14.999   9.563   0.350  0.00  0.00    +0.008 A 
ATOM     36  C   UNL     1      14.652   8.239   0.162  0.00  0.00    -0.029 A 
ATOM     37  C   UNL     1      15.723   7.207  -0.086  0.00  0.00    +0.045 C 
ATOM     38  C   UNL     1      14.400  11.951   0.794  0.00  0.00    +0.044 C 
ENDBRANCH  29  31
ENDBRANCH  28  29
ENDBRANCH  25  28
ENDBRANCH  24  25
ENDBRANCH  23  24
ENDBRANCH   4  23
TORSDOF 14
