REMARK  Name = ZINC20208098
REMARK  7 active torsions:
REMARK  status: ('A' for Active; 'I' for Inactive)
REMARK    1  A    between atoms: C_1  and  C_2
REMARK    2  A    between atoms: C_4  and  C_18
REMARK    3  A    between atoms: C_5  and  C_17
REMARK    4  A    between atoms: N_6  and  C_7
REMARK    5  A    between atoms: C_11  and  C_13
REMARK    6  A    between atoms: C_28  and  S_30
REMARK    7  A    between atoms: S_30  and  C_33
REMARK                            x       y       z     vdW  Elec       q    Type
REMARK                         _______ _______ _______ _____ _____    ______ ____
ROOT
ATOM      1  C   UNL     1      -0.266   1.422  -0.017  0.00  0.00    +0.064 C 
ATOM      2  C   UNL     1      -0.171  -0.082  -0.017  0.00  0.00    +0.022 A 
ATOM      3  C   UNL     1      -0.052  -0.853  -1.110  0.00  0.00    +0.031 A 
ATOM      4  C   UNL     1       0.004  -2.243  -0.635  0.00  0.00    -0.003 A 
ATOM      5  C   UNL     1      -0.089  -2.175   0.746  0.00  0.00    +0.028 A 
ATOM      6  N   UNL     1      -0.187  -0.877   1.095  0.00  0.00    -0.317 N 
ATOM      7  C   UNL     1      -0.076  -3.348   1.692  0.00  0.00    +0.064 C 
ENDROOT
BRANCH   4   8
ATOM      8  C   UNL     1       0.129  -3.413  -1.427  0.00  0.00    +0.026 C 
ATOM      9  C   UNL     1       0.588  -3.322  -2.725  0.00  0.00    +0.081 C 
ATOM     10  C   UNL     1       1.180  -2.065  -3.261  0.00  0.00    +0.153 C 
ATOM     11  N   UNL     1       1.872  -1.230  -2.532  0.00  0.00    -0.283 NA
ATOM     12  N   UNL     1       0.921  -1.865  -4.634  0.00  0.00    -0.150 N 
ATOM     13  C   UNL     1       0.635  -2.977  -5.396  0.00  0.00    +0.182 C 
ATOM     14  N   UNL     1       0.478  -4.209  -4.982  0.00  0.00    -0.152 NA
ATOM     15  C   UNL     1       0.523  -4.472  -3.658  0.00  0.00    +0.273 C 
ATOM     16  O   UNL     1       0.507  -5.619  -3.241  0.00  0.00    -0.268 OA
ATOM     17  S   UNL     1       0.520  -2.291  -7.027  0.00  0.00    -0.015 S 
ATOM     18  C   UNL     1       0.757  -0.577  -6.576  0.00  0.00    +0.235 C 
ATOM     19  N   UNL     1       0.939  -0.652  -5.289  0.00  0.00    -0.145 NA
ATOM     20  H   UNL     1       2.208  -0.408  -2.922  0.00  0.00    +0.188 HD
BRANCH  18  21
ATOM     21  S   UNL     1       0.748   0.850  -7.610  0.00  0.00    +0.019 S 
ATOM     22  O   UNL     1      -0.158   0.532  -8.658  0.00  0.00    -0.168 OA
ATOM     23  O   UNL     1       0.485   1.934  -6.730  0.00  0.00    -0.168 OA
ATOM     24  C   UNL     1       2.437   0.967  -8.259  0.00  0.00    +0.202 C 
ENDBRANCH  18  21
ENDBRANCH   4   8
BRANCH   6  25
ATOM     25  C   UNL     1      -0.294  -0.409   2.412  0.00  0.00    +0.047 A 
ATOM     26  C   UNL     1       0.760  -0.580   3.299  0.00  0.00    +0.026 A 
ATOM     27  C   UNL     1       0.652  -0.118   4.596  0.00  0.00    +0.003 A 
ATOM     28  C   UNL     1      -0.505   0.515   5.011  0.00  0.00    +0.012 A 
ATOM     29  C   UNL     1      -1.557   0.688   4.130  0.00  0.00    +0.057 A 
ATOM     30  C   UNL     1      -1.452   0.233   2.830  0.00  0.00    +0.038 A 
BRANCH  29  31
ATOM     31  C   UNL     1      -2.816   1.377   4.587  0.00  0.00    +0.417 C 
ATOM     32  F   UNL     1      -2.684   1.749   5.929  0.00  0.00    -0.166 F 
ATOM     33  F   UNL     1      -3.033   2.518   3.806  0.00  0.00    -0.166 F 
ATOM     34  F   UNL     1      -3.902   0.505   4.449  0.00  0.00    -0.166 F 
ENDBRANCH  29  31
ENDBRANCH   6  25
TORSDOF 4
