REMARK  Name = ZINC56557201
REMARK  5 active torsions:
REMARK  status: ('A' for Active; 'I' for Inactive)
REMARK    1  A    between atoms: C_5  and  C_7
REMARK    2  A    between atoms: C_7  and  C_8
REMARK    3  A    between atoms: C_8  and  N_9
REMARK    4  A    between atoms: N_12  and  N_13
REMARK    5  A    between atoms: N_16  and  C_17
REMARK                            x       y       z     vdW  Elec       q    Type
REMARK                         _______ _______ _______ _____ _____    ______ ____
ROOT
ATOM      1  N   UNL     1       1.414  -4.167   1.401  0.00  0.00    -0.298 N 
ATOM      2  C   UNL     1       1.538  -4.846   2.558  0.00  0.00    +0.316 C 
ATOM      3  O   UNL     1       1.640  -4.243   3.609  0.00  0.00    -0.251 OA
ATOM      4  N   UNL     1       1.549  -6.194   2.551  0.00  0.00    -0.217 N 
ATOM      5  H   UNL     1       1.333  -4.648   0.562  0.00  0.00    +0.150 HD
ATOM      6  H   UNL     1       1.638  -6.683   3.384  0.00  0.00    +0.174 HD
ENDROOT
BRANCH   4   7
ATOM      7  N   UNL     1       1.431  -6.889   1.340  0.00  0.00    -0.217 N 
ATOM      8  C   UNL     1       1.442  -8.237   1.333  0.00  0.00    +0.320 C 
ATOM      9  O   UNL     1       1.340  -8.840   0.282  0.00  0.00    -0.251 OA
ATOM     10  N   UNL     1       1.566  -8.916   2.490  0.00  0.00    -0.268 N 
ATOM     11  H   UNL     1       1.342  -6.400   0.507  0.00  0.00    +0.174 HD
ATOM     12  H   UNL     1       1.715  -8.437   3.320  0.00  0.00    +0.156 HD
BRANCH  10  13
ATOM     13  C   UNL     1       1.480 -10.313   2.495  0.00  0.00    +0.035 A 
ATOM     14  C   UNL     1       0.888 -10.970   3.566  0.00  0.00    +0.024 A 
ATOM     15  C   UNL     1       0.804 -12.349   3.567  0.00  0.00    +0.017 A 
ATOM     16  C   UNL     1       1.308 -13.075   2.503  0.00  0.00    +0.018 A 
ATOM     17  C   UNL     1       1.898 -12.423   1.435  0.00  0.00    +0.017 A 
ATOM     18  C   UNL     1       1.980 -11.044   1.425  0.00  0.00    +0.024 A 
ATOM     19 BR   UNL     1       1.191 -14.962   2.508  0.00  0.00    -0.050 Br
ENDBRANCH  10  13
ENDBRANCH   4   7
BRANCH   1  20
ATOM     20  C   UNL     1       1.403  -2.702   1.409  0.00  0.00    +0.110 C 
BRANCH  20  21
ATOM     21  C   UNL     1       1.252  -2.186  -0.024  0.00  0.00    +0.057 C 
BRANCH  21  26
ATOM     22  C   UNL     1       0.026   1.385   0.012  0.00  0.00    +0.000 A 
ATOM     23  C   UNL     1       1.217   2.087  -0.001  0.00  0.00    +0.003 A 
ATOM     24  C   UNL     1       2.420   1.408  -0.022  0.00  0.00    +0.038 A 
ATOM     25  C   UNL     1       2.433   0.023  -0.029  0.00  0.00    +0.127 A 
ATOM     26  C   UNL     1       1.240  -0.679  -0.015  0.00  0.00    -0.011 A 
ATOM     27  C   UNL     1       0.038   0.003   0.005  0.00  0.00    +0.006 A 
ATOM     28  F   UNL     1       3.609  -0.642  -0.049  0.00  0.00    -0.205 F 
ENDBRANCH  21  26
ENDBRANCH  20  21
ENDBRANCH   1  20
TORSDOF 5
