REMARK  Name = ZINC36490944
REMARK  9 active torsions:
REMARK  status: ('A' for Active; 'I' for Inactive)
REMARK    1  A    between atoms: C_1  and  O_2
REMARK    2  A    between atoms: O_2  and  C_3
REMARK    3  A    between atoms: C_5  and  C_10
REMARK    4  A    between atoms: C_8  and  O_9
REMARK    5  A    between atoms: C_10  and  C_12
REMARK    6  A    between atoms: C_10  and  N_21
REMARK    7  A    between atoms: N_14  and  C_15
REMARK    8  A    between atoms: N_21  and  C_22
REMARK    9  A    between atoms: C_28  and  C_30
REMARK                            x       y       z     vdW  Elec       q    Type
REMARK                         _______ _______ _______ _____ _____    ______ ____
ROOT
ATOM      1  C   UNL     1       2.191   0.380   4.228  0.00  0.00    +0.193 C 
ENDROOT
BRANCH   1   4
ATOM      2  C   UNL     1       1.278  -0.702   0.725  0.00  0.00    +0.162 A 
ATOM      3  C   UNL     1       1.786   0.035   1.783  0.00  0.00    +0.055 A 
ATOM      4  C   UNL     1       1.637  -0.423   3.079  0.00  0.00    -0.015 A 
ATOM      5  C   UNL     1       0.983  -1.615   3.323  0.00  0.00    +0.010 A 
ATOM      6  C   UNL     1       0.473  -2.356   2.273  0.00  0.00    +0.049 A 
ATOM      7  C   UNL     1       0.614  -1.900   0.972  0.00  0.00    +0.158 A 
BRANCH   2   9
ATOM      8  C   UNL     1       2.116   0.984  -0.728  0.00  0.00    +0.277 C 
ATOM      9  O   UNL     1       1.423  -0.254  -0.550  0.00  0.00    -0.491 OA
ENDBRANCH   2   9
BRANCH   7  10
ATOM     10  O   UNL     1       0.108  -2.624  -0.063  0.00  0.00    -0.503 OA
ATOM     11  H   UNL     1       0.727  -3.271  -0.429  0.00  0.00    +0.292 HD
ENDBRANCH   7  10
ENDBRANCH   1   4
BRANCH   1  12
ATOM     12  C   UNL     1       1.150   0.489   5.312  0.00  0.00    +0.238 C 
ATOM     13  O   UNL     1       1.381   0.053   6.420  0.00  0.00    -0.273 OA
ATOM     14  N   UNL     1      -0.038   1.070   5.051  0.00  0.00    -0.311 N 
ATOM     15  H   UNL     1      -0.222   1.419   4.165  0.00  0.00    +0.149 HD
BRANCH  14  16
ATOM     16  C   UNL     1      -1.049   1.175   6.105  0.00  0.00    +0.073 C 
ATOM     17  C   UNL     1      -1.862  -0.119   6.163  0.00  0.00    +0.022 C 
ATOM     18  C   UNL     1      -2.919  -0.009   7.264  0.00  0.00    +0.002 C 
ATOM     19  C   UNL     1      -3.852   1.165   6.960  0.00  0.00    +0.000 C 
ATOM     20  C   UNL     1      -3.039   2.460   6.902  0.00  0.00    +0.002 C 
ATOM     21  C   UNL     1      -1.982   2.350   5.801  0.00  0.00    +0.022 C 
ENDBRANCH  14  16
ENDBRANCH   1  12
BRANCH   1  22
ATOM     22  N   UNL     1       3.382  -0.285   4.760  0.00  0.00    -0.281 N 
ATOM     23  C   UNL     1       4.551   0.383   4.835  0.00  0.00    +0.237 C 
ATOM     24  O   UNL     1       5.515  -0.138   5.354  0.00  0.00    -0.274 OA
BRANCH  23  25
ATOM     25  C   UNL     1       4.658   1.778   4.274  0.00  0.00    +0.159 C 
ATOM     26  C   UNL     1       4.922   1.723   2.753  0.00  0.00    +0.041 C 
ATOM     27  C   UNL     1       6.465   1.795   2.698  0.00  0.00    +0.098 C 
ATOM     28  C   UNL     1       6.851   2.487   3.986  0.00  0.00    +0.214 C 
ATOM     29  O   UNL     1       7.933   2.988   4.210  0.00  0.00    -0.276 OA
ATOM     30  N   UNL     1       5.818   2.468   4.850  0.00  0.00    -0.304 N 
ATOM     31  H   UNL     1       5.837   2.860   5.737  0.00  0.00    +0.149 HD
ENDBRANCH  23  25
BRANCH  22  32
ATOM     32  C   UNL     1       3.305  -1.677   5.209  0.00  0.00    +0.077 C 
ATOM     33  C   UNL     1       3.793  -1.774   6.656  0.00  0.00    +0.022 C 
ATOM     34  C   UNL     1       3.712  -3.228   7.126  0.00  0.00    +0.002 C 
ATOM     35  C   UNL     1       4.592  -4.103   6.231  0.00  0.00    +0.000 C 
ATOM     36  C   UNL     1       4.104  -4.006   4.784  0.00  0.00    +0.002 C 
ATOM     37  C   UNL     1       4.185  -2.553   4.315  0.00  0.00    +0.022 C 
ENDBRANCH  22  32
ENDBRANCH   1  22
TORSDOF 8
