REMARK  Name = ZINC56728469
REMARK  7 active torsions:
REMARK  status: ('A' for Active; 'I' for Inactive)
REMARK    1  A    between atoms: C_1  and  C_2
REMARK    2  A    between atoms: C_2  and  N_3
REMARK    3  A    between atoms: N_3  and  C_4
REMARK    4  A    between atoms: C_4  and  C_6
REMARK    5  A    between atoms: C_4  and  C_7
REMARK    6  A    between atoms: N_18  and  C_19
REMARK    7  A    between atoms: C_23  and  C_25
REMARK                            x       y       z     vdW  Elec       q    Type
REMARK                         _______ _______ _______ _____ _____    ______ ____
ROOT
ATOM      1  N   UNL     1       0.892  -0.738   1.086  0.00  0.00    -0.276 N 
ATOM      2  C   UNL     1       2.224  -0.658   0.896  0.00  0.00    +0.307 C 
ATOM      3  O   UNL     1       2.986  -1.068   1.750  0.00  0.00    -0.252 OA
ATOM      4  N   UNL     1       2.711  -0.122  -0.240  0.00  0.00    -0.269 N 
ATOM      5  H   UNL     1       2.107   0.266  -0.892  0.00  0.00    +0.156 HD
ENDROOT
BRANCH   4   6
ATOM      6  C   UNL     1       4.090  -0.127  -0.481  0.00  0.00    +0.035 A 
ATOM      7  C   UNL     1       4.569  -0.299  -1.774  0.00  0.00    +0.023 A 
ATOM      8  C   UNL     1       5.930  -0.304  -2.017  0.00  0.00    +0.002 A 
ATOM      9  C   UNL     1       6.822  -0.138  -0.977  0.00  0.00    +0.012 A 
ATOM     10  C   UNL     1       6.351   0.035   0.326  0.00  0.00    +0.021 A 
ATOM     11  C   UNL     1       4.977   0.046   0.570  0.00  0.00    +0.035 A 
BRANCH  10  12
ATOM     12  C   UNL     1       7.304   0.213   1.442  0.00  0.00    +0.155 A 
ATOM     13  C   UNL     1       8.658   0.235   1.353  0.00  0.00    +0.160 A 
ATOM     14  N   UNL     1       9.141   0.418   2.591  0.00  0.00    -0.224 NA
ATOM     15  C   UNL     1       8.142   0.507   3.425  0.00  0.00    +0.308 A 
ATOM     16  O   UNL     1       6.994   0.391   2.745  0.00  0.00    -0.442 OA
ENDBRANCH  10  12
ENDBRANCH   4   6
BRANCH   1  18
ATOM     17  C   UNL     1      -0.236   1.261   0.242  0.00  0.00    +0.024 C 
ATOM     18  C   UNL     1      -0.026  -0.243   0.057  0.00  0.00    +0.107 C 
ENDBRANCH   1  18
BRANCH   1  19
ATOM     19  C   UNL     1       0.362  -1.320   2.322  0.00  0.00    +0.140 C 
ATOM     20  C   UNL     1       0.965  -0.595   3.527  0.00  0.00    +0.036 C 
BRANCH  19  21
ATOM     21  C   UNL     1       0.723  -2.782   2.384  0.00  0.00    +0.126 A 
ATOM     22  C   UNL     1      -0.069  -3.748   2.868  0.00  0.00    +0.055 A 
ATOM     23  C   UNL     1       0.682  -5.001   2.730  0.00  0.00    +0.020 A 
ATOM     24  C   UNL     1       0.420  -6.335   3.041  0.00  0.00    +0.011 A 
ATOM     25  C   UNL     1       1.362  -7.290   2.778  0.00  0.00    +0.001 A 
ATOM     26  C   UNL     1       2.576  -6.940   2.204  0.00  0.00    +0.004 A 
ATOM     27  C   UNL     1       2.854  -5.627   1.890  0.00  0.00    +0.047 A 
ATOM     28  C   UNL     1       1.910  -4.641   2.149  0.00  0.00    +0.135 A 
ATOM     29  O   UNL     1       1.885  -3.307   1.956  0.00  0.00    -0.458 OA
ENDBRANCH  19  21
ENDBRANCH   1  19
TORSDOF 5
