REMARK  Name = ZINC64713318
REMARK  10 active torsions:
REMARK  status: ('A' for Active; 'I' for Inactive)
REMARK    1  A    between atoms: C_1  and  C_2
REMARK    2  A    between atoms: N_4  and  C_5
REMARK    3  A    between atoms: C_7  and  S_13
REMARK    4  A    between atoms: C_10  and  O_11
REMARK    5  A    between atoms: O_11  and  C_12
REMARK    6  A    between atoms: S_13  and  N_16
REMARK    7  A    between atoms: N_16  and  C_17
REMARK    8  A    between atoms: C_17  and  C_18
REMARK    9  A    between atoms: C_18  and  C_20
REMARK   10  A    between atoms: C_18  and  C_25
REMARK                            x       y       z     vdW  Elec       q    Type
REMARK                         _______ _______ _______ _____ _____    ______ ____
ROOT
ATOM      1  N   UNL     1      -1.334  -5.529   1.702  0.00  0.00    -0.189 NA
ATOM      2  H   UNL     1      -1.753  -5.178   2.503  0.00  0.00    +0.148 HD
ENDROOT
BRANCH   1   3
ATOM      3  S   UNL     1       0.238  -5.145   1.354  0.00  0.00    +0.058 S 
ATOM      4  O   UNL     1       0.897  -6.366   1.047  0.00  0.00    -0.153 OA
ATOM      5  O   UNL     1       0.684  -4.278   2.388  0.00  0.00    -0.153 OA
BRANCH   3   8
ATOM      6  C   UNL     1       0.109  -2.067  -1.232  0.00  0.00    +0.077 A 
ATOM      7  C   UNL     1       0.119  -2.817  -0.065  0.00  0.00    +0.055 A 
ATOM      8  C   UNL     1       0.226  -4.194  -0.130  0.00  0.00    +0.107 A 
ATOM      9  C   UNL     1       0.324  -4.826  -1.355  0.00  0.00    +0.032 A 
ATOM     10  C   UNL     1       0.315  -4.085  -2.522  0.00  0.00    +0.049 A 
ATOM     11  C   UNL     1       0.202  -2.705  -2.466  0.00  0.00    +0.141 A 
BRANCH   6  15
ATOM     12  C   UNL     1       0.542   1.511  -0.138  0.00  0.00    +0.109 C 
ATOM     13  C   UNL     1       0.573   0.004  -0.153  0.00  0.00    +0.214 C 
ATOM     14  O   UNL     1       1.113  -0.601   0.749  0.00  0.00    -0.276 OA
ATOM     15  N   UNL     1       0.000  -0.672  -1.169  0.00  0.00    -0.283 N 
ATOM     16  H   UNL     1      -0.488  -0.192  -1.856  0.00  0.00    +0.155 HD
ENDBRANCH   6  15
BRANCH  11  17
ATOM     17  O   UNL     1       0.188  -1.976  -3.614  0.00  0.00    -0.493 OA
ATOM     18  C   UNL     1       0.287  -2.697  -4.843  0.00  0.00    +0.277 C 
ENDBRANCH  11  17
ENDBRANCH   3   8
ENDBRANCH   1   3
BRANCH   1  19
ATOM     19  C   UNL     1      -2.093  -6.398   0.799  0.00  0.00    +0.119 C 
BRANCH  19  20
ATOM     20  C   UNL     1      -3.353  -6.896   1.510  0.00  0.00    +0.069 C 
BRANCH  20  21
ATOM     21  C   UNL     1      -4.195  -7.689   0.544  0.00  0.00    -0.032 C 
ATOM     22  C   UNL     1      -5.462  -7.418   0.158  0.00  0.00    -0.000 A 
ATOM     23  C   UNL     1      -6.401  -6.346   0.508  0.00  0.00    +0.010 A 
ATOM     24  C   UNL     1      -7.631  -6.341  -0.054  0.00  0.00    +0.001 A 
ATOM     25  C   UNL     1      -8.031  -7.332  -0.961  0.00  0.00    +0.002 A 
ATOM     26  C   UNL     1      -7.225  -8.349  -1.332  0.00  0.00    +0.026 A 
ATOM     27  C   UNL     1      -5.909  -8.453  -0.802  0.00  0.00    +0.043 A 
ATOM     28  N   UNL     1      -4.954  -9.329  -1.002  0.00  0.00    -0.380 N 
ATOM     29  C   UNL     1      -3.791  -8.946  -0.194  0.00  0.00    +0.145 C 
ATOM     30  H   UNL     1      -5.007 -10.100  -1.588  0.00  0.00    +0.160 HD
ENDBRANCH  20  21
BRANCH  20  31
ATOM     31  C   UNL     1      -2.961  -7.772   2.672  0.00  0.00    -0.002 A 
ATOM     32  C   UNL     1      -3.234  -7.614   3.991  0.00  0.00    +0.012 A 
ATOM     33  C   UNL     1      -2.768  -8.555   4.889  0.00  0.00    +0.008 A 
ATOM     34  C   UNL     1      -2.052  -9.609   4.425  0.00  0.00    +0.045 A 
ATOM     35  S   UNL     1      -2.025  -9.292   2.669  0.00  0.00    -0.101 S 
ENDBRANCH  20  31
ENDBRANCH  19  20
ENDBRANCH   1  19
TORSDOF 8
