REMARK  Name = ZINC00995171
REMARK  6 active torsions:
REMARK  status: ('A' for Active; 'I' for Inactive)
REMARK    1  A    between atoms: C_1  and  C_2
REMARK    2  A    between atoms: C_2  and  C_3
REMARK    3  A    between atoms: C_10  and  N_14
REMARK    4  A    between atoms: C_11  and  C_12
REMARK    5  A    between atoms: C_15  and  C_17
REMARK    6  A    between atoms: C_22  and  N_23
REMARK                            x       y       z     vdW  Elec       q    Type
REMARK                         _______ _______ _______ _____ _____    ______ ____
ROOT
ATOM      1  N   UNL     1       1.506  -2.008  -0.344  0.00  0.00    -0.275 N 
ATOM      2  C   UNL     1       2.784  -2.420  -0.236  0.00  0.00    +0.251 C 
ATOM      3  O   UNL     1       3.686  -1.606  -0.213  0.00  0.00    -0.270 OA
ATOM      4  H   UNL     1       0.786  -2.658  -0.362  0.00  0.00    +0.156 HD
ENDROOT
BRANCH   1  11
ATOM      5  C   UNL     1       0.126   4.234  -0.358  0.00  0.00    -0.006 C 
ATOM      6  C   UNL     1      -0.967   3.628  -1.244  0.00  0.00    +0.008 C 
ATOM      7  C   UNL     1      -1.326   2.228  -0.748  0.00  0.00    +0.037 C 
ATOM      8  C   UNL     1      -0.048   1.410  -0.614  0.00  0.00    -0.018 A 
ATOM      9  C   UNL     1       1.161   2.012  -0.560  0.00  0.00    -0.004 A 
ATOM     10  S   UNL     1       2.322   0.683  -0.417  0.00  0.00    -0.077 S 
ATOM     11  C   UNL     1       1.219  -0.653  -0.428  0.00  0.00    +0.090 A 
ATOM     12  C   UNL     1      -0.020  -0.040  -0.542  0.00  0.00    +0.084 A 
ATOM     13  C   UNL     1       1.441   3.482  -0.611  0.00  0.00    +0.046 C 
BRANCH   5  15
ATOM     14  C   UNL     1       1.320   6.342   0.254  0.00  0.00    +0.004 C 
ATOM     15  C   UNL     1       0.306   5.713  -0.704  0.00  0.00    +0.000 C 
ENDBRANCH   5  15
BRANCH  12  16
ATOM     16  C   UNL     1      -1.227  -0.809  -0.587  0.00  0.00    +0.102 C 
ATOM     17  N   UNL     1      -2.185  -1.419  -0.623  0.00  0.00    -0.191 NA
ENDBRANCH  12  16
ENDBRANCH   1  11
BRANCH   2  18
ATOM     18  C   UNL     1       3.090  -3.864  -0.146  0.00  0.00    +0.069 A 
ATOM     19  C   UNL     1       2.055  -4.794  -0.036  0.00  0.00    +0.035 A 
ATOM     20  C   UNL     1       2.347  -6.140   0.048  0.00  0.00    +0.042 A 
ATOM     21  C   UNL     1       3.664  -6.568   0.022  0.00  0.00    +0.022 A 
ATOM     22  C   UNL     1       4.694  -5.651  -0.087  0.00  0.00    +0.035 A 
ATOM     23  C   UNL     1       4.415  -4.303  -0.177  0.00  0.00    +0.138 A 
ATOM     24 CL   UNL     1       1.062  -7.299   0.185  0.00  0.00    -0.084 Cl
BRANCH  23  25
ATOM     25  N   UNL     1       5.518  -3.324  -0.301  0.00  0.00    +0.057 N 
ATOM     26  O   UNL     1       5.489  -2.482  -1.181  0.00  0.00    -0.126 OA
ATOM     27  O   UNL     1       6.454  -3.360   0.476  0.00  0.00    -0.126 OA
ENDBRANCH  23  25
ENDBRANCH   2  18
TORSDOF 5
