REMARK  Name = ZINC12002593
REMARK  11 active torsions:
REMARK  status: ('A' for Active; 'I' for Inactive)
REMARK    1  A    between atoms: C_1  and  C_2
REMARK    2  A    between atoms: C_3  and  C_4
REMARK    3  A    between atoms: C_4  and  N_5
REMARK    4  A    between atoms: C_8  and  C_12
REMARK    5  A    between atoms: C_8  and  C_20
REMARK    6  A    between atoms: C_12  and  C_13
REMARK    7  A    between atoms: C_13  and  C_14
REMARK    8  A    between atoms: C_25  and  C_26
REMARK    9  A    between atoms: C_25  and  N_69
REMARK   10  A    between atoms: C_26  and  C_28
REMARK   11  A    between atoms: C_26  and  C_29
REMARK                            x       y       z     vdW  Elec       q    Type
REMARK                         _______ _______ _______ _____ _____    ______ ____
ROOT
ATOM      1  N   UNL     1       7.531   9.462  -1.624  0.00  0.00    -0.212 N 
ATOM      2  C   UNL     1       7.417   8.280  -0.980  0.00  0.00    +0.248 C 
ATOM      3  O   UNL     1       7.186   8.102   0.197  0.00  0.00    -0.273 OA
ATOM      4  C   UNL     1       7.637   7.219  -2.040  0.00  0.00    +0.115 C 
ATOM      5  N   UNL     1       7.874   7.996  -3.269  0.00  0.00    -0.285 N 
ATOM      6  C   UNL     1       7.792   9.294  -2.925  0.00  0.00    +0.310 C 
ATOM      7  O   UNL     1       7.939  10.211  -3.709  0.00  0.00    -0.252 OA
ATOM      8  H   UNL     1       8.054   7.641  -4.154  0.00  0.00    +0.151 HD
ENDROOT
BRANCH   4   9
ATOM      9  C   UNL     1       6.393   6.341  -2.190  0.00  0.00    +0.018 C 
ATOM     10  C   UNL     1       5.164   7.228  -2.406  0.00  0.00    -0.013 C 
ATOM     11  C   UNL     1       3.914   6.349  -2.494  0.00  0.00    -0.078 C 
ATOM     12  C   UNL     1       4.917   4.681  -1.050  0.00  0.00    -0.078 C 
ATOM     13  C   UNL     1       6.196   5.511  -0.919  0.00  0.00    -0.013 C 
ATOM     14  N   UNL     1       3.769   5.594  -1.231  0.00  0.00    +0.380 N 
ATOM     15  H   UNL     1       3.744   6.258  -0.448  0.00  0.00    -0.082 HD
BRANCH  14  16
ATOM     16  C   UNL     1       2.508   4.824  -1.246  0.00  0.00    -0.071 C 
BRANCH  16  17
ATOM     17  C   UNL     1       2.438   3.959   0.015  0.00  0.00    -0.001 C 
ATOM     18  C   UNL     1       2.454   4.860   1.252  0.00  0.00    +0.010 C 
BRANCH  17  19
ATOM     19  C   UNL     1       1.166   3.151  -0.001  0.00  0.00    -0.046 A 
ATOM     20  C   UNL     1       1.224   1.770   0.020  0.00  0.00    +0.004 A 
ATOM     21  C   UNL     1       0.058   1.028   0.005  0.00  0.00    +0.000 A 
ATOM     22  C   UNL     1      -1.167   1.668  -0.036  0.00  0.00    +0.000 A 
ATOM     23  C   UNL     1      -1.226   3.049  -0.052  0.00  0.00    +0.000 A 
ATOM     24  C   UNL     1      -0.059   3.790  -0.037  0.00  0.00    +0.004 A 
ENDBRANCH  17  19
ENDBRANCH  16  17
ENDBRANCH  14  16
ENDBRANCH   4   9
BRANCH   1  25
ATOM     25  C   UNL     1       7.388  10.768  -0.975  0.00  0.00    +0.206 C 
BRANCH  25  28
ATOM     26  C   UNL     1       3.446  11.951  -1.127  0.00  0.00    +0.106 C 
ATOM     27  C   UNL     1       4.855  11.528  -1.073  0.00  0.00    -0.104 C 
ATOM     28  C   UNL     1       5.979  11.191  -1.030  0.00  0.00    -0.083 C 
ENDBRANCH  25  28
ENDBRANCH   1  25
BRANCH   4  29
ATOM     29  C   UNL     1       8.859   6.363  -1.700  0.00  0.00    +0.040 C 
BRANCH  29  30
ATOM     30  C   UNL     1      10.088   7.264  -1.556  0.00  0.00    +0.038 C 
BRANCH  30  31
ATOM     31  C   UNL     1      11.292   6.422  -1.222  0.00  0.00    -0.047 A 
ATOM     32  C   UNL     1      11.614   6.171   0.099  0.00  0.00    +0.003 A 
ATOM     33  C   UNL     1      12.716   5.395   0.406  0.00  0.00    +0.000 A 
ATOM     34  C   UNL     1      13.501   4.877  -0.608  0.00  0.00    +0.000 A 
ATOM     35  C   UNL     1      13.181   5.131  -1.928  0.00  0.00    +0.000 A 
ATOM     36  C   UNL     1      12.077   5.904  -2.235  0.00  0.00    +0.003 A 
ENDBRANCH  30  31
ENDBRANCH  29  30
ENDBRANCH   4  29
TORSDOF 9
