REMARK  Name = ZINC13110649
REMARK  3 active torsions:
REMARK  status: ('A' for Active; 'I' for Inactive)
REMARK    1  A    between atoms: C_4  and  N_11
REMARK    2  A    between atoms: C_5  and  C_7
REMARK    3  A    between atoms: N_14  and  C_15
REMARK                            x       y       z     vdW  Elec       q    Type
REMARK                         _______ _______ _______ _____ _____    ______ ____
ROOT
ATOM      1  N   UNL     1       3.571  -0.373   0.085  0.00  0.00    -0.326 N 
ATOM      2  C   UNL     1       4.871   0.046   0.037  0.00  0.00    +0.203 C 
ATOM      3  N   UNL     1       5.156   1.371  -0.133  0.00  0.00    -0.369 N 
ATOM      4  N   UNL     1       5.853  -0.831   0.156  0.00  0.00    -0.179 NA
ATOM      5  H   UNL     1       4.638   2.043   0.338  0.00  0.00    +0.159 HD
ATOM      6  H   UNL     1       5.876   1.640  -0.724  0.00  0.00    +0.159 HD
ATOM      7  H   UNL     1       2.852   0.254  -0.091  0.00  0.00    +0.169 HD
ENDROOT
BRANCH   4   8
ATOM      8  C   UNL     1       7.123  -0.408   0.254  0.00  0.00    +0.234 A 
ATOM      9  N   UNL     1       7.373   0.889   0.347  0.00  0.00    -0.217 NA
ATOM     10  C   UNL     1       8.618   1.353   0.445  0.00  0.00    +0.053 A 
ATOM     11  C   UNL     1       9.669   0.482   0.452  0.00  0.00    +0.038 A 
ATOM     12  C   UNL     1       9.417  -0.898   0.354  0.00  0.00    +0.256 A 
ATOM     13  N   UNL     1       8.140  -1.323   0.262  0.00  0.00    -0.291 N 
ATOM     14  O   UNL     1      10.339  -1.698   0.357  0.00  0.00    -0.267 OA
ATOM     15  C   UNL     1      10.973   1.240   0.571  0.00  0.00    +0.043 C 
ATOM     16  C   UNL     1      10.625   2.698   0.202  0.00  0.00    +0.011 C 
ATOM     17  C   UNL     1       9.125   2.775   0.561  0.00  0.00    +0.056 C 
ATOM     18  H   UNL     1       7.944  -2.271   0.198  0.00  0.00    +0.172 HD
ENDBRANCH   4   8
BRANCH   1  22
ATOM     19  C   UNL     1       2.693  -4.344   0.989  0.00  0.00    +0.001 A 
ATOM     20  C   UNL     1       3.889  -3.788   1.408  0.00  0.00    +0.002 A 
ATOM     21  C   UNL     1       4.183  -2.473   1.110  0.00  0.00    +0.026 A 
ATOM     22  C   UNL     1       3.276  -1.706   0.388  0.00  0.00    +0.054 A 
ATOM     23  C   UNL     1       2.077  -2.267  -0.031  0.00  0.00    +0.078 A 
ATOM     24  C   UNL     1       1.789  -3.584   0.271  0.00  0.00    +0.014 A 
BRANCH  23  25
ATOM     25  C   UNL     1       1.091  -1.439  -0.814  0.00  0.00    +0.419 C 
ATOM     26  F   UNL     1      -0.031  -2.217  -1.120  0.00  0.00    -0.166 F 
ATOM     27  F   UNL     1       0.698  -0.335  -0.050  0.00  0.00    -0.166 F 
ATOM     28  F   UNL     1       1.689  -0.998  -1.999  0.00  0.00    -0.166 F 
ENDBRANCH  23  25
ENDBRANCH   1  22
TORSDOF 3
