REMARK  Name = ZINC19200314
REMARK  11 active torsions:
REMARK  status: ('A' for Active; 'I' for Inactive)
REMARK    1  A    between atoms: C_1  and  C_2
REMARK    2  A    between atoms: C_7  and  C_8
REMARK    3  A    between atoms: C_11  and  C_13
REMARK    4  A    between atoms: C_13  and  N_14
REMARK    5  A    between atoms: N_14  and  C_15
REMARK    6  A    between atoms: C_15  and  C_16
REMARK    7  A    between atoms: C_16  and  N_17
REMARK    8  A    between atoms: N_17  and  C_18
REMARK    9  A    between atoms: C_18  and  C_19
REMARK   10  A    between atoms: C_19  and  C_21
REMARK   11  A    between atoms: C_19  and  O_22
REMARK                            x       y       z     vdW  Elec       q    Type
REMARK                         _______ _______ _______ _____ _____    ______ ____
ROOT
ATOM      1  C   UNL     1       1.260   2.561   4.807  0.00  0.00    -0.007 C 
ENDROOT
BRANCH   1   5
ATOM      2  C   UNL     1       0.025   0.018   2.493  0.00  0.00    +0.135 A 
ATOM      3  C   UNL     1      -0.801  -0.221   3.545  0.00  0.00    +0.050 A 
ATOM      4  C   UNL     1      -0.450   0.699   4.553  0.00  0.00    +0.043 A 
ATOM      5  C   UNL     1       0.563   1.446   4.071  0.00  0.00    +0.089 A 
ATOM      6  O   UNL     1       0.851   1.028   2.828  0.00  0.00    -0.462 OA
BRANCH   2  13
ATOM      7  C   UNL     1      -0.018   1.503   0.010  0.00  0.00    +0.044 C 
ATOM      8  C   UNL     1       0.002  -0.004   0.002  0.00  0.00    -0.039 A 
ATOM      9  C   UNL     1       0.006  -0.689  -1.196  0.00  0.00    +0.019 A 
ATOM     10  C   UNL     1       0.024  -2.073  -1.205  0.00  0.00    +0.018 A 
ATOM     11  C   UNL     1       0.039  -2.779  -0.014  0.00  0.00    +0.016 A 
ATOM     12  C   UNL     1       0.036  -2.106   1.190  0.00  0.00    +0.013 A 
ATOM     13  C   UNL     1       0.023  -0.710   1.206  0.00  0.00    +0.020 A 
ATOM     14 BR   UNL     1       0.028  -3.003  -2.851  0.00  0.00    -0.050 Br
ENDBRANCH   2  13
ENDBRANCH   1   5
BRANCH   1  15
ATOM     15  N   UNL     1       2.399   2.016   5.558  0.00  0.00    +0.383 N 
ATOM     16  H   UNL     1       2.068   1.331   6.221  0.00  0.00    -0.085 HD
ATOM     17  H   UNL     1       3.045   1.579   4.918  0.00  0.00    -0.085 HD
BRANCH  15  18
ATOM     18  C   UNL     1       3.078   3.103   6.275  0.00  0.00    -0.102 C 
BRANCH  18  19
ATOM     19  C   UNL     1       4.264   2.535   7.056  0.00  0.00    -0.102 C 
BRANCH  19  20
ATOM     20  N   UNL     1       4.944   3.623   7.774  0.00  0.00    +0.379 N 
ATOM     21  H   UNL     1       5.275   4.307   7.111  0.00  0.00    -0.086 HD
ATOM     22  H   UNL     1       4.297   4.059   8.413  0.00  0.00    -0.086 HD
BRANCH  20  23
ATOM     23  C   UNL     1       6.083   3.077   8.524  0.00  0.00    -0.051 C 
BRANCH  23  24
ATOM     24  C   UNL     1       6.790   4.210   9.271  0.00  0.00    +0.095 C 
ATOM     25  C   UNL     1       8.048   3.664   9.951  0.00  0.00    +0.035 C 
BRANCH  24  26
ATOM     26  O   UNL     1       5.911   4.752  10.259  0.00  0.00    -0.394 OA
ATOM     27  H   UNL     1       6.295   5.476  10.772  0.00  0.00    +0.210 HD
ENDBRANCH  24  26
ENDBRANCH  23  24
ENDBRANCH  20  23
ENDBRANCH  19  20
ENDBRANCH  18  19
ENDBRANCH  15  18
ENDBRANCH   1  15
TORSDOF 9
