REMARK  Name = ZINC13117277
REMARK  6 active torsions:
REMARK  status: ('A' for Active; 'I' for Inactive)
REMARK    1  A    between atoms: C_4  and  N_7
REMARK    2  A    between atoms: N_7  and  C_8
REMARK    3  A    between atoms: C_16  and  C_18
REMARK    4  A    between atoms: C_18  and  S_19
REMARK    5  A    between atoms: S_19  and  C_20
REMARK    6  A    between atoms: C_23  and  C_25
REMARK                            x       y       z     vdW  Elec       q    Type
REMARK                         _______ _______ _______ _____ _____    ______ ____
ROOT
ATOM      1  C   UNL     1       6.090  -0.705  -0.211  0.00  0.00    +0.175 C 
ENDROOT
BRANCH   1   3
ATOM      2  N   UNL     1       3.623  -0.651  -0.038  0.00  0.00    -0.266 N 
ATOM      3  C   UNL     1       4.781   0.035  -0.116  0.00  0.00    +0.230 C 
ATOM      4  O   UNL     1       4.769   1.248  -0.110  0.00  0.00    -0.274 OA
BRANCH   2   5
ATOM      5  C   UNL     1       3.643  -2.112   0.061  0.00  0.00    +0.104 C 
ATOM      6  C   UNL     1       2.892  -2.547   1.331  0.00  0.00    +0.047 C 
ATOM      7  C   UNL     1       2.655  -4.082   1.251  0.00  0.00    +0.168 C 
ATOM      8  S   UNL     1       2.209  -4.263  -0.528  0.00  0.00    -0.029 S 
ATOM      9  O   UNL     1       2.900  -5.383  -1.066  0.00  0.00    -0.174 OA
ATOM     10  O   UNL     1       0.797  -4.182  -0.661  0.00  0.00    -0.174 OA
ATOM     11  C   UNL     1       2.962  -2.721  -1.188  0.00  0.00    +0.188 C 
ENDBRANCH   2   5
BRANCH   2  15
ATOM     12  C   UNL     1      -0.011   1.386  -0.082  0.00  0.00    +0.000 A 
ATOM     13  C   UNL     1       1.175   2.093  -0.012  0.00  0.00    +0.002 A 
ATOM     14  C   UNL     1       2.382   1.421   0.003  0.00  0.00    +0.023 A 
ATOM     15  C   UNL     1       2.402   0.033  -0.053  0.00  0.00    +0.037 A 
ATOM     16  C   UNL     1       1.209  -0.674  -0.123  0.00  0.00    +0.023 A 
ATOM     17  C   UNL     1       0.006   0.004  -0.138  0.00  0.00    +0.002 A 
ENDBRANCH   2  15
ENDBRANCH   1   3
BRANCH   1  18
ATOM     18  S   UNL     1       7.440   0.482  -0.451  0.00  0.00    -0.056 S 
BRANCH  18  19
ATOM     19  C   UNL     1       8.883  -0.525  -0.541  0.00  0.00    +0.278 A 
ATOM     20  N   UNL     1       8.922  -1.833  -0.456  0.00  0.00    -0.101 NA
ATOM     21  N   UNL     1      10.140  -2.233  -0.564  0.00  0.00    -0.106 NA
ATOM     22  C   UNL     1      10.928  -1.196  -0.723  0.00  0.00    +0.251 A 
ATOM     23  O   UNL     1      10.147  -0.093  -0.716  0.00  0.00    -0.411 OA
BRANCH  22  24
ATOM     24  C   UNL     1      12.394  -1.229  -0.883  0.00  0.00    +0.063 A 
ATOM     25  C   UNL     1      13.217  -0.160  -1.040  0.00  0.00    +0.097 A 
ATOM     26  N   UNL     1      14.508  -0.586  -1.157  0.00  0.00    -0.360 N 
ATOM     27  H   UNL     1      15.276  -0.005  -1.278  0.00  0.00    +0.165 HD
ATOM     28  C   UNL     1      14.565  -1.961  -1.077  0.00  0.00    +0.047 A 
ATOM     29  C   UNL     1      13.252  -2.427  -0.896  0.00  0.00    +0.012 A 
ATOM     30  C   UNL     1      13.006  -3.793  -0.776  0.00  0.00    +0.011 A 
ATOM     31  C   UNL     1      14.056  -4.682  -0.832  0.00  0.00    +0.001 A 
ATOM     32  C   UNL     1      15.354  -4.223  -1.007  0.00  0.00    +0.002 A 
ATOM     33  C   UNL     1      15.611  -2.876  -1.135  0.00  0.00    +0.026 A 
ENDBRANCH  22  24
ENDBRANCH  18  19
ENDBRANCH   1  18
TORSDOF 6
