REMARK  Name = ZINC36571299
REMARK  15 active torsions:
REMARK  status: ('A' for Active; 'I' for Inactive)
REMARK    1  A    between atoms: C_1  and  C_2
REMARK    2  A    between atoms: C_2  and  C_3
REMARK    3  A    between atoms: C_3  and  N_4
REMARK    4  A    between atoms: N_4  and  C_5
REMARK    5  A    between atoms: C_5  and  C_7
REMARK    6  A    between atoms: C_5  and  C_16
REMARK    7  A    between atoms: C_7  and  C_9
REMARK    8  A    between atoms: C_7  and  C_10
REMARK    9  A    between atoms: N_18  and  C_19
REMARK   10  A    between atoms: C_19  and  S_20
REMARK   11  A    between atoms: S_20  and  C_23
REMARK   12  A    between atoms: C_26  and  C_29
REMARK   13  A    between atoms: C_30  and  C_32
REMARK   14  A    between atoms: C_36  and  O_39
REMARK   15  A    between atoms: C_37  and  O_38
REMARK                            x       y       z     vdW  Elec       q    Type
REMARK                         _______ _______ _______ _____ _____    ______ ____
ROOT
ATOM      1  C   UNL     1      -1.957  -3.609   1.668  0.00  0.00    +0.169 C 
ENDROOT
BRANCH   1   2
ATOM      2  C   UNL     1      -0.660  -3.046   2.190  0.00  0.00    +0.235 C 
ATOM      3  O   UNL     1      -0.109  -2.142   1.597  0.00  0.00    -0.274 OA
ATOM      4  N   UNL     1      -0.113  -3.546   3.315  0.00  0.00    -0.295 N 
ATOM      5  H   UNL     1      -0.527  -4.301   3.762  0.00  0.00    +0.150 HD
BRANCH   4   6
ATOM      6  C   UNL     1       1.108  -2.950   3.864  0.00  0.00    +0.278 C 
BRANCH   6   7
ATOM      7  S   UNL     1       0.715  -1.346   4.612  0.00  0.00    +0.013 S 
ATOM      8  O   UNL     1       1.829  -0.864   5.350  0.00  0.00    -0.168 OA
ATOM      9  O   UNL     1       0.056  -0.513   3.668  0.00  0.00    -0.168 OA
BRANCH   7  10
ATOM     10  C   UNL     1      -0.509  -1.702   5.829  0.00  0.00    +0.090 A 
ATOM     11  C   UNL     1      -1.833  -1.380   5.592  0.00  0.00    +0.027 A 
ATOM     12  C   UNL     1      -2.793  -1.659   6.546  0.00  0.00    +0.005 A 
ATOM     13  C   UNL     1      -2.430  -2.260   7.737  0.00  0.00    -0.050 A 
ATOM     14  C   UNL     1      -1.107  -2.583   7.973  0.00  0.00    +0.005 A 
ATOM     15  C   UNL     1      -0.147  -2.308   7.017  0.00  0.00    +0.027 A 
ATOM     16  C   UNL     1      -3.477  -2.564   8.777  0.00  0.00    +0.044 C 
ENDBRANCH   7  10
ENDBRANCH   6   7
ENDBRANCH   4   6
ENDBRANCH   1   2
BRANCH   1  17
ATOM     17  N   UNL     1      -2.147  -3.189   0.277  0.00  0.00    -0.285 N 
ATOM     18  C   UNL     1      -1.344  -3.675  -0.690  0.00  0.00    +0.251 C 
ATOM     19  O   UNL     1      -1.747  -3.749  -1.834  0.00  0.00    -0.270 OA
BRANCH  18  20
ATOM     20  C   UNL     1       0.024  -4.118  -0.359  0.00  0.00    +0.082 A 
ATOM     21  C   UNL     1       0.293  -4.702   0.882  0.00  0.00    +0.017 A 
ATOM     22  C   UNL     1       1.571  -5.114   1.188  0.00  0.00    +0.005 A 
ATOM     23  C   UNL     1       2.596  -4.954   0.270  0.00  0.00    +0.049 A 
ATOM     24  C   UNL     1       2.346  -4.376  -0.964  0.00  0.00    +0.159 A 
ATOM     25  C   UNL     1       1.059  -3.960  -1.289  0.00  0.00    +0.171 A 
BRANCH  25  26
ATOM     26  O   UNL     1       0.808  -3.399  -2.499  0.00  0.00    -0.503 OA
ATOM     27  H   UNL     1       0.913  -2.438  -2.517  0.00  0.00    +0.292 HD
ENDBRANCH  25  26
BRANCH  24  28
ATOM     28  O   UNL     1       3.358  -4.221  -1.860  0.00  0.00    -0.503 OA
ATOM     29  H   UNL     1       3.473  -4.974  -2.456  0.00  0.00    +0.292 HD
ENDBRANCH  24  28
ENDBRANCH  18  20
BRANCH  17  30
ATOM     30  C   UNL     1      -3.210  -2.240  -0.062  0.00  0.00    +0.108 C 
BRANCH  30  32
ATOM     31  C   UNL     1      -3.733   0.166  -0.490  0.00  0.00    +0.005 C 
ATOM     32  C   UNL     1      -2.651  -0.816  -0.036  0.00  0.00    +0.016 C 
ENDBRANCH  30  32
ENDBRANCH  17  30
ENDBRANCH   1  17
BRANCH   1  33
ATOM     33  C   UNL     1      -3.117  -3.092   2.520  0.00  0.00    +0.045 C 
ATOM     34  C   UNL     1      -2.837  -3.385   3.995  0.00  0.00    +0.015 C 
BRANCH  33  35
ATOM     35  C   UNL     1      -4.392  -3.781   2.105  0.00  0.00    -0.042 A 
ATOM     36  C   UNL     1      -4.446  -5.162   2.056  0.00  0.00    +0.004 A 
ATOM     37  C   UNL     1      -5.615  -5.794   1.675  0.00  0.00    +0.000 A 
ATOM     38  C   UNL     1      -6.729  -5.046   1.343  0.00  0.00    +0.000 A 
ATOM     39  C   UNL     1      -6.675  -3.665   1.393  0.00  0.00    +0.000 A 
ATOM     40  C   UNL     1      -5.507  -3.033   1.778  0.00  0.00    +0.004 A 
ENDBRANCH  33  35
ENDBRANCH   1  33
TORSDOF 12
