REMARK  Name = ZINC40657937
REMARK  7 active torsions:
REMARK  status: ('A' for Active; 'I' for Inactive)
REMARK    1  A    between atoms: C_3  and  C_6
REMARK    2  A    between atoms: C_6  and  C_7
REMARK    3  A    between atoms: C_7  and  N_8
REMARK    4  A    between atoms: C_10  and  N_26
REMARK    5  A    between atoms: C_11  and  N_15
REMARK    6  A    between atoms: N_15  and  N_16
REMARK    7  A    between atoms: C_17  and  C_19
REMARK                            x       y       z     vdW  Elec       q    Type
REMARK                         _______ _______ _______ _____ _____    ______ ____
ROOT
ATOM      1  N   UNL     1       5.633   2.506   1.403  0.00  0.00    -0.327 N 
ATOM      2  C   UNL     1       6.297   2.734   2.599  0.00  0.00    +0.154 A 
ATOM      3  C   UNL     1       7.605   3.210   2.600  0.00  0.00    +0.206 A 
ATOM      4  C   UNL     1       8.227   3.424   3.826  0.00  0.00    +0.171 A 
ATOM      5  N   UNL     1       7.554   3.167   4.946  0.00  0.00    -0.217 NA
ATOM      6  C   UNL     1       6.317   2.716   4.903  0.00  0.00    +0.225 A 
ATOM      7  N   UNL     1       5.691   2.507   3.762  0.00  0.00    -0.218 NA
ATOM      8  H   UNL     1       6.082   2.674   0.560  0.00  0.00    +0.148 HD
ENDROOT
BRANCH   3   9
ATOM      9  N   UNL     1       8.316   3.482   1.330  0.00  0.00    +0.063 N 
ATOM     10  O   UNL     1       8.248   4.577   0.822  0.00  0.00    -0.126 OA
ATOM     11  O   UNL     1       8.964   2.610   0.802  0.00  0.00    -0.126 OA
ENDBRANCH   3   9
BRANCH   4  12
ATOM     12  N   UNL     1       9.529   3.897   3.881  0.00  0.00    -0.246 N 
ATOM     13  H   UNL     1      10.013   4.081   3.061  0.00  0.00    +0.172 HD
BRANCH  12  14
ATOM     14  N   UNL     1      10.146   4.108   5.121  0.00  0.00    -0.231 N 
ATOM     15  C   UNL     1      11.412   4.568   5.175  0.00  0.00    +0.260 C 
ATOM     16  O   UNL     1      12.018   4.799   4.147  0.00  0.00    -0.269 OA
ATOM     17  H   UNL     1       9.662   3.923   5.941  0.00  0.00    +0.173 HD
BRANCH  15  18
ATOM     18  C   UNL     1      12.062   4.790   6.483  0.00  0.00    +0.038 A 
ATOM     19  C   UNL     1      11.370   4.520   7.665  0.00  0.00    +0.014 A 
ATOM     20  C   UNL     1      11.983   4.730   8.883  0.00  0.00    +0.016 A 
ATOM     21  C   UNL     1      13.281   5.208   8.934  0.00  0.00    +0.018 A 
ATOM     22  C   UNL     1      13.973   5.478   7.766  0.00  0.00    +0.016 A 
ATOM     23  C   UNL     1      13.373   5.266   6.542  0.00  0.00    +0.014 A 
ATOM     24 BR   UNL     1      14.114   5.494  10.608  0.00  0.00    -0.050 Br
ENDBRANCH  15  18
ENDBRANCH  12  14
ENDBRANCH   4  12
BRANCH   1  25
ATOM     25  C   UNL     1       4.255   2.011   1.414  0.00  0.00    +0.108 C 
BRANCH  25  26
ATOM     26  C   UNL     1       3.761   1.845  -0.024  0.00  0.00    +0.061 C 
BRANCH  26  29
ATOM     27  C   UNL     1      -0.016   1.351   0.009  0.00  0.00    +0.008 A 
ATOM     28  C   UNL     1       1.183   2.038   0.002  0.00  0.00    +0.011 A 
ATOM     29  C   UNL     1       2.343   1.336  -0.013  0.00  0.00    -0.009 A 
ATOM     30  S   UNL     1       1.754  -0.349  -0.017  0.00  0.00    -0.102 S 
ATOM     31  C   UNL     1       0.002  -0.004   0.002  0.00  0.00    +0.045 A 
ENDBRANCH  26  29
ENDBRANCH  25  26
ENDBRANCH   1  25
TORSDOF 7
