REMARK  Name = ZINC59147631
REMARK  9 active torsions:
REMARK  status: ('A' for Active; 'I' for Inactive)
REMARK    1  A    between atoms: C_4  and  C_7
REMARK    2  A    between atoms: C_7  and  N_8
REMARK    3  A    between atoms: N_8  and  C_9
REMARK    4  A    between atoms: N_8  and  C_16
REMARK    5  A    between atoms: C_9  and  C_10
REMARK    6  A    between atoms: C_16  and  C_17
REMARK    7  A    between atoms: N_19  and  N_20
REMARK    8  A    between atoms: C_21  and  C_22
REMARK    9  A    between atoms: C_31  and  O_32
REMARK                            x       y       z     vdW  Elec       q    Type
REMARK                         _______ _______ _______ _____ _____    ______ ____
ROOT
ATOM      1  C   UNL     1       5.721  -1.559   2.843  0.00  0.00    +0.216 C 
ATOM      2  O   UNL     1       5.020  -1.365   3.814  0.00  0.00    -0.276 OA
ATOM      3  N   UNL     1       6.973  -2.032   2.999  0.00  0.00    -0.209 N 
ATOM      4  H   UNL     1       7.533  -2.188   2.222  0.00  0.00    +0.177 HD
ENDROOT
BRANCH   3   5
ATOM      5  N   UNL     1       7.465  -2.300   4.283  0.00  0.00    -0.188 NA
ATOM      6  C   UNL     1       8.671  -2.756   4.433  0.00  0.00    +0.142 C 
BRANCH   6   7
ATOM      7  C   UNL     1       9.189  -3.038   5.784  0.00  0.00    +0.037 A 
ATOM      8  C   UNL     1      10.479  -3.519   5.940  0.00  0.00    +0.021 A 
ATOM      9  C   UNL     1      10.967  -3.785   7.228  0.00  0.00    -0.017 A 
ATOM     10  C   UNL     1      12.271  -4.273   7.423  0.00  0.00    +0.008 A 
ATOM     11  C   UNL     1      12.716  -4.521   8.685  0.00  0.00    +0.001 A 
ATOM     12  C   UNL     1      11.897  -4.299   9.791  0.00  0.00    +0.001 A 
ATOM     13  C   UNL     1      10.629  -3.827   9.640  0.00  0.00    +0.008 A 
ATOM     14  C   UNL     1      10.133  -3.558   8.353  0.00  0.00    -0.014 A 
ATOM     15  C   UNL     1       8.829  -3.069   8.167  0.00  0.00    +0.054 A 
ATOM     16  C   UNL     1       8.370  -2.810   6.910  0.00  0.00    +0.126 A 
BRANCH  16  17
ATOM     17  O   UNL     1       7.110  -2.334   6.740  0.00  0.00    -0.506 OA
ATOM     18  H   UNL     1       6.440  -3.023   6.635  0.00  0.00    +0.292 HD
ENDBRANCH  16  17
ENDBRANCH   6   7
ENDBRANCH   3   5
BRANCH   1  19
ATOM     19  C   UNL     1       5.191  -1.271   1.462  0.00  0.00    +0.021 C 
BRANCH  19  20
ATOM     20  N   UNL     1       3.765  -0.929   1.546  0.00  0.00    +0.391 N 
ATOM     21  H   UNL     1       3.597  -0.389   2.381  0.00  0.00    -0.080 HD
BRANCH  20  22
ATOM     22  C   UNL     1       3.380  -0.140   0.368  0.00  0.00    -0.042 C 
BRANCH  22  26
ATOM     23  C   UNL     1      -0.671   1.151   0.776  0.00  0.00    +0.000 A 
ATOM     24  C   UNL     1       0.357   1.940   1.258  0.00  0.00    +0.000 A 
ATOM     25  C   UNL     1       1.669   1.522   1.126  0.00  0.00    +0.002 A 
ATOM     26  C   UNL     1       1.951   0.316   0.513  0.00  0.00    -0.064 A 
ATOM     27  C   UNL     1       0.922  -0.473   0.032  0.00  0.00    +0.002 A 
ATOM     28  C   UNL     1      -0.389  -0.055   0.163  0.00  0.00    +0.000 A 
ENDBRANCH  22  26
ENDBRANCH  20  22
BRANCH  20  29
ATOM     29  C   UNL     1       2.967  -2.161   1.591  0.00  0.00    -0.042 C 
BRANCH  29  30
ATOM     30  C   UNL     1       3.250  -2.896   2.876  0.00  0.00    -0.064 A 
ATOM     31  C   UNL     1       4.187  -3.912   2.900  0.00  0.00    +0.002 A 
ATOM     32  C   UNL     1       4.446  -4.586   4.078  0.00  0.00    +0.000 A 
ATOM     33  C   UNL     1       3.769  -4.243   5.234  0.00  0.00    +0.000 A 
ATOM     34  C   UNL     1       2.833  -3.226   5.210  0.00  0.00    +0.000 A 
ATOM     35  C   UNL     1       2.577  -2.550   4.032  0.00  0.00    +0.002 A 
ENDBRANCH  29  30
ENDBRANCH  20  29
ENDBRANCH  19  20
ENDBRANCH   1  19
TORSDOF 9
