REMARK  Name = ZINC16282177
REMARK  5 active torsions:
REMARK  status: ('A' for Active; 'I' for Inactive)
REMARK    1  A    between atoms: C_1  and  C_2
REMARK    2  A    between atoms: C_4  and  N_9
REMARK    3  A    between atoms: C_13  and  N_14
REMARK    4  A    between atoms: N_14  and  C_15
REMARK    5  A    between atoms: C_20  and  N_21
REMARK                            x       y       z     vdW  Elec       q    Type
REMARK                         _______ _______ _______ _____ _____    ______ ____
ROOT
ATOM      1  N   UNL     1      -1.201  -3.003  -2.406  0.00  0.00    -0.190 N 
ATOM      2  C   UNL     1      -0.820  -4.297  -2.399  0.00  0.00    +0.265 C 
ATOM      3  O   UNL     1      -0.494  -4.847  -1.364  0.00  0.00    -0.269 OA
ATOM      4  C   UNL     1      -0.810  -5.027  -3.679  0.00  0.00    +0.113 C 
ATOM      5  C   UNL     1      -0.432  -6.356  -3.750  0.00  0.00    +0.090 C 
ATOM      6  C   UNL     1      -1.220  -4.280  -4.881  0.00  0.00    +0.258 C 
ATOM      7  O   UNL     1      -1.238  -4.814  -5.974  0.00  0.00    -0.270 OA
ATOM      8  N   UNL     1      -1.577  -2.986  -4.737  0.00  0.00    -0.235 N 
ATOM      9  C   UNL     1      -1.568  -2.387  -3.538  0.00  0.00    +0.320 C 
ATOM     10  O   UNL     1      -1.905  -1.221  -3.475  0.00  0.00    -0.251 OA
ATOM     11  H   UNL     1      -1.850  -2.480  -5.518  0.00  0.00    +0.159 HD
ENDROOT
BRANCH   1  15
ATOM     12  C   UNL     1      -3.619  -1.562   1.627  0.00  0.00    +0.045 C 
ATOM     13  C   UNL     1      -2.377  -1.574   0.773  0.00  0.00    -0.035 A 
ATOM     14  C   UNL     1      -2.363  -2.278  -0.415  0.00  0.00    +0.028 A 
ATOM     15  C   UNL     1      -1.218  -2.288  -1.200  0.00  0.00    +0.046 A 
ATOM     16  C   UNL     1      -0.091  -1.589  -0.790  0.00  0.00    +0.025 A 
ATOM     17  C   UNL     1      -0.111  -0.886   0.399  0.00  0.00    +0.017 A 
ATOM     18  C   UNL     1      -1.255  -0.873   1.177  0.00  0.00    +0.021 A 
ATOM     19 BR   UNL     1      -1.281   0.097   2.800  0.00  0.00    -0.050 Br
ENDBRANCH   1  15
BRANCH   5  20
ATOM     20  N   UNL     1      -0.193  -7.050  -2.618  0.00  0.00    -0.318 N 
ATOM     21  H   UNL     1      -0.334  -6.632  -1.754  0.00  0.00    +0.152 HD
BRANCH  20  22
ATOM     22  C   UNL     1       0.260  -8.372  -2.691  0.00  0.00    +0.064 A 
ATOM     23  C   UNL     1       0.366  -9.001  -3.923  0.00  0.00    +0.053 A 
ATOM     24  C   UNL     1       0.815 -10.310  -3.992  0.00  0.00    +0.069 A 
ATOM     25  C   UNL     1       1.158 -10.991  -2.822  0.00  0.00    +0.069 A 
ATOM     26  C   UNL     1       1.048 -10.357  -1.593  0.00  0.00    +0.062 A 
ATOM     27  C   UNL     1       0.607  -9.051  -1.528  0.00  0.00    +0.149 A 
ATOM     28  N   UNL     1       1.567 -12.268  -3.205  0.00  0.00    -0.306 N 
ATOM     29  H   UNL     1       1.866 -12.971  -2.608  0.00  0.00    +0.170 HD
ATOM     30  C   UNL     1       1.477 -12.357  -4.545  0.00  0.00    +0.325 A 
ATOM     31  O   UNL     1       1.760 -13.341  -5.202  0.00  0.00    -0.247 OA
ATOM     32  N   UNL     1       1.026 -11.192  -5.048  0.00  0.00    -0.306 N 
ATOM     33  H   UNL     1       0.875 -11.001  -5.987  0.00  0.00    +0.170 HD
BRANCH  27  34
ATOM     34  N   UNL     1       0.497  -8.373  -0.217  0.00  0.00    +0.058 N 
ATOM     35  O   UNL     1       0.762  -7.198  -0.120  0.00  0.00    -0.126 OA
ATOM     36  O   UNL     1       0.141  -8.996   0.757  0.00  0.00    -0.126 OA
ENDBRANCH  27  34
ENDBRANCH  20  22
ENDBRANCH   5  20
TORSDOF 4
