REMARK  Name = ZINC20881760
REMARK  7 active torsions:
REMARK  status: ('A' for Active; 'I' for Inactive)
REMARK    1  A    between atoms: C_1  and  C_2
REMARK    2  A    between atoms: C_2  and  O_3
REMARK    3  A    between atoms: O_3  and  C_4
REMARK    4  A    between atoms: C_7  and  C_12
REMARK    5  A    between atoms: C_9  and  O_10
REMARK    6  A    between atoms: O_10  and  C_11
REMARK    7  A    between atoms: C_17  and  C_27
REMARK                            x       y       z     vdW  Elec       q    Type
REMARK                         _______ _______ _______ _____ _____    ______ ____
ROOT
ATOM      1  C   UNL     1       2.324  -2.767   4.093  0.00  0.00    +0.032 C 
ATOM      2  C   UNL     1       3.044  -3.695   3.117  0.00  0.00    +0.059 C 
ATOM      3  C   UNL     1       2.782  -3.251   1.688  0.00  0.00    +0.017 C 
ATOM      4  C   UNL     1       1.618  -2.666   1.357  0.00  0.00    +0.036 C 
ATOM      5  C   UNL     1       1.228  -2.186  -0.020  0.00  0.00    +0.136 C 
ATOM      6  N   UNL     1       2.107  -2.628  -1.083  0.00  0.00    -0.331 N 
ATOM      7  C   UNL     1       3.436  -2.212  -1.135  0.00  0.00    +0.049 A 
ATOM      8  C   UNL     1       3.891  -1.370  -2.135  0.00  0.00    +0.025 A 
ATOM      9  C   UNL     1       5.189  -0.892  -2.083  0.00  0.00    +0.002 A 
ATOM     10  C   UNL     1       6.027  -1.253  -1.043  0.00  0.00    +0.002 A 
ATOM     11  C   UNL     1       5.581  -2.112  -0.053  0.00  0.00    +0.025 A 
ATOM     12  C   UNL     1       4.289  -2.605  -0.114  0.00  0.00    +0.052 A 
ATOM     13  N   UNL     1       3.792  -3.508   0.818  0.00  0.00    -0.316 N 
ATOM     14  C   UNL     1       0.625  -2.450   2.341  0.00  0.00    +0.163 C 
ATOM     15  O   UNL     1      -0.426  -1.937   2.011  0.00  0.00    -0.292 OA
ATOM     16  C   UNL     1       0.825  -2.830   3.778  0.00  0.00    +0.088 C 
ATOM     17  H   UNL     1       1.728  -3.301  -1.865  0.00  0.00    +0.147 HD
ATOM     18  H   UNL     1       4.281  -4.493   0.819  0.00  0.00    +0.152 HD
ENDROOT
BRANCH   5  19
ATOM     19  C   UNL     1       1.208  -0.679  -0.013  0.00  0.00    -0.022 A 
ATOM     20  C   UNL     1       2.374   0.026   0.222  0.00  0.00    +0.006 A 
ATOM     21  C   UNL     1       2.357   1.408   0.229  0.00  0.00    +0.001 A 
ATOM     22  C   UNL     1       1.173   2.086   0.002  0.00  0.00    +0.015 A 
ATOM     23  C   UNL     1       0.007   1.381  -0.233  0.00  0.00    +0.018 A 
ATOM     24  C   UNL     1       0.025  -0.003  -0.240  0.00  0.00    +0.021 A 
ATOM     25 BR   UNL     1      -1.612   2.307  -0.544  0.00  0.00    -0.050 Br
ENDBRANCH   5  19
BRANCH   1  29
ATOM     26  C   UNL     1       3.014  -4.070   8.108  0.00  0.00    +0.162 A 
ATOM     27  C   UNL     1       2.425  -4.926   7.190  0.00  0.00    +0.050 A 
ATOM     28  C   UNL     1       2.203  -4.501   5.893  0.00  0.00    +0.008 A 
ATOM     29  C   UNL     1       2.567  -3.224   5.509  0.00  0.00    -0.040 A 
ATOM     30  C   UNL     1       3.160  -2.368   6.418  0.00  0.00    +0.053 A 
ATOM     31  C   UNL     1       3.380  -2.785   7.721  0.00  0.00    +0.162 A 
BRANCH  31  32
ATOM     32  O   UNL     1       3.958  -1.942   8.618  0.00  0.00    -0.491 OA
ATOM     33  C   UNL     1       4.309  -0.638   8.150  0.00  0.00    +0.277 C 
ENDBRANCH  31  32
BRANCH  26  34
ATOM     34  O   UNL     1       3.233  -4.487   9.384  0.00  0.00    -0.489 OA
BRANCH  34  36
ATOM     35  C   UNL     1       3.156  -6.104  11.178  0.00  0.00    +0.048 C 
ATOM     36  C   UNL     1       2.831  -5.819   9.710  0.00  0.00    +0.226 C 
ENDBRANCH  34  36
ENDBRANCH  26  34
ENDBRANCH   1  29
TORSDOF 5
