REMARK  Name = ZINC08949972
REMARK  8 active torsions:
REMARK  status: ('A' for Active; 'I' for Inactive)
REMARK    1  A    between atoms: C_1  and  C_2
REMARK    2  A    between atoms: C_8  and  N_10
REMARK    3  A    between atoms: C_11  and  C_13
REMARK    4  A    between atoms: C_13  and  O_14
REMARK    5  A    between atoms: O_14  and  C_15
REMARK    6  A    between atoms: C_15  and  C_17
REMARK    7  A    between atoms: N_26  and  C_28
REMARK    8  A    between atoms: C_28  and  C_29
REMARK                            x       y       z     vdW  Elec       q    Type
REMARK                         _______ _______ _______ _____ _____    ______ ____
ROOT
ATOM      1  C   UNL     1       1.059   2.028   0.003  0.00  0.00    +0.176 A 
ATOM      2  C   UNL     1       2.384   1.388  -0.013  0.00  0.00    +0.021 A 
ATOM      3  C   UNL     1       3.571   2.113  -0.021  0.00  0.00    +0.011 A 
ATOM      4  C   UNL     1       4.774   1.441  -0.037  0.00  0.00    +0.001 A 
ATOM      5  C   UNL     1       4.814   0.053  -0.044  0.00  0.00    +0.001 A 
ATOM      6  C   UNL     1       3.649  -0.685  -0.037  0.00  0.00    +0.014 A 
ATOM      7  C   UNL     1       2.424  -0.026  -0.021  0.00  0.00    +0.050 A 
ATOM      8  C   UNL     1       1.137  -0.734  -0.013  0.00  0.00    +0.275 A 
ATOM      9  O   UNL     1       1.095  -1.950  -0.018  0.00  0.00    -0.266 OA
ATOM     10  N   UNL     1       0.002  -0.004   0.002  0.00  0.00    -0.224 N 
ATOM     11  N   UNL     1      -0.015   1.275   0.009  0.00  0.00    -0.161 NA
ENDROOT
BRANCH   1  12
ATOM     12  C   UNL     1       0.940   3.498   0.011  0.00  0.00    +0.360 C 
ATOM     13  O   UNL     1       1.940   4.188   0.006  0.00  0.00    -0.243 OA
BRANCH  12  14
ATOM     14  O   UNL     1      -0.278   4.075   0.026  0.00  0.00    -0.451 OA
BRANCH  14  15
ATOM     15  C   UNL     1      -0.319   5.527   0.033  0.00  0.00    +0.328 C 
BRANCH  15  17
ATOM     16  N   UNL     1      -2.037   7.306   0.059  0.00  0.00    -0.309 N 
ATOM     17  C   UNL     1      -1.753   5.989   0.049  0.00  0.00    +0.251 C 
ATOM     18  O   UNL     1      -2.652   5.175   0.053  0.00  0.00    -0.272 OA
ATOM     19  H   UNL     1      -1.318   7.957   0.055  0.00  0.00    +0.149 HD
BRANCH  16  26
ATOM     20  C   UNL     1      -2.973   9.109   2.123  0.00  0.00    +0.009 C 
ATOM     21  C   UNL     1      -3.511   9.153   0.691  0.00  0.00    +0.006 C 
ATOM     22  C   UNL     1      -2.671  10.125  -0.139  0.00  0.00    +0.005 C 
ATOM     23  C   UNL     1      -3.208  10.169  -1.571  0.00  0.00    +0.000 C 
ATOM     24  C   UNL     1      -3.129   8.772  -2.188  0.00  0.00    +0.002 C 
ATOM     25  C   UNL     1      -3.969   7.799  -1.358  0.00  0.00    +0.022 C 
ATOM     26  C   UNL     1      -3.432   7.755   0.074  0.00  0.00    +0.076 C 
ENDBRANCH  16  26
ENDBRANCH  15  17
ENDBRANCH  14  15
ENDBRANCH  12  14
ENDBRANCH   1  12
BRANCH  10  27
ATOM     27  C   UNL     1      -1.279  -0.715   0.010  0.00  0.00    +0.182 C 
BRANCH  27  28
ATOM     28  C   UNL     1      -1.705  -0.966   1.433  0.00  0.00    -0.026 A 
ATOM     29  C   UNL     1      -1.325  -2.131   2.073  0.00  0.00    +0.005 A 
ATOM     30  C   UNL     1      -1.712  -2.359   3.381  0.00  0.00    +0.000 A 
ATOM     31  C   UNL     1      -2.488  -1.427   4.045  0.00  0.00    +0.000 A 
ATOM     32  C   UNL     1      -2.873  -0.265   3.403  0.00  0.00    +0.000 A 
ATOM     33  C   UNL     1      -2.481  -0.034   2.097  0.00  0.00    +0.005 A 
ENDBRANCH  27  28
ENDBRANCH  10  27
TORSDOF 7
