REMARK  Name = ZINC13409773
REMARK  8 active torsions:
REMARK  status: ('A' for Active; 'I' for Inactive)
REMARK    1  A    between atoms: C_4  and  C_7
REMARK    2  A    between atoms: C_7  and  C_23
REMARK    3  A    between atoms: N_8  and  N_9
REMARK    4  A    between atoms: C_10  and  C_12
REMARK    5  A    between atoms: C_12  and  C_21
REMARK    6  A    between atoms: N_13  and  N_14
REMARK    7  A    between atoms: N_14  and  C_15
REMARK    8  A    between atoms: C_26  and  N_29
REMARK                            x       y       z     vdW  Elec       q    Type
REMARK                         _______ _______ _______ _____ _____    ______ ____
ROOT
ATOM      1  C   UNL     1      -2.355   0.985  -0.080  0.00  0.00    +0.096 C 
ATOM      2  N   UNL     1      -1.288   1.718  -0.262  0.00  0.00    -0.179 NA
ENDROOT
BRANCH   1   6
ATOM      3  C   UNL     1      -6.177   2.824   0.183  0.00  0.00    +0.000 A 
ATOM      4  C   UNL     1      -5.035   3.603   0.209  0.00  0.00    +0.001 A 
ATOM      5  C   UNL     1      -3.791   3.012   0.124  0.00  0.00    +0.010 A 
ATOM      6  C   UNL     1      -3.687   1.626   0.012  0.00  0.00    +0.002 A 
ATOM      7  C   UNL     1      -4.843   0.846  -0.020  0.00  0.00    +0.010 A 
ATOM      8  C   UNL     1      -6.081   1.448   0.071  0.00  0.00    +0.001 A 
ENDBRANCH   1   6
BRANCH   1   9
ATOM      9  C   UNL     1      -2.232  -0.485   0.034  0.00  0.00    +0.003 A 
ATOM     10  C   UNL     1      -2.895  -1.165   1.057  0.00  0.00    +0.012 A 
ATOM     11  C   UNL     1      -2.783  -2.534   1.158  0.00  0.00    +0.025 A 
ATOM     12  C   UNL     1      -2.001  -3.238   0.249  0.00  0.00    +0.051 A 
ATOM     13  C   UNL     1      -1.334  -2.563  -0.768  0.00  0.00    +0.025 A 
ATOM     14  C   UNL     1      -1.447  -1.194  -0.877  0.00  0.00    +0.012 A 
BRANCH  12  15
ATOM     15  N   UNL     1      -1.885  -4.624   0.356  0.00  0.00    -0.207 N 
ATOM     16  C   UNL     1      -2.085  -5.304   1.645  0.00  0.00    +0.131 C 
ATOM     17  C   UNL     1      -3.195  -6.344   1.504  0.00  0.00    +0.022 C 
ATOM     18  C   UNL     1      -2.781  -7.447   0.532  0.00  0.00    +0.026 C 
ATOM     19  C   UNL     1      -2.753  -6.893  -0.897  0.00  0.00    +0.189 C 
ATOM     20  S   UNL     1      -1.522  -5.561  -0.971  0.00  0.00    +0.045 S 
ATOM     21  O   UNL     1      -1.768  -4.723  -2.092  0.00  0.00    -0.155 OA
ATOM     22  O   UNL     1      -0.223  -6.076  -0.716  0.00  0.00    -0.155 OA
ENDBRANCH  12  15
ENDBRANCH   1   9
BRANCH   2  23
ATOM     23  N   UNL     1      -0.017   1.133  -0.201  0.00  0.00    -0.200 N 
ATOM     24  C   UNL     1       1.074   1.856  -0.523  0.00  0.00    +0.294 C 
ATOM     25  O   UNL     1       0.955   3.019  -0.861  0.00  0.00    -0.266 OA
ATOM     26  H   UNL     1       0.077   0.206   0.069  0.00  0.00    +0.178 HD
BRANCH  24  27
ATOM     27  C   UNL     1       2.408   1.239  -0.465  0.00  0.00    +0.221 C 
ATOM     28  N   UNL     1       2.536  -0.019  -0.099  0.00  0.00    -0.166 NA
BRANCH  28  29
ATOM     29  N   UNL     1       3.707  -0.560  -0.048  0.00  0.00    -0.236 N 
ATOM     30  H   UNL     1       4.492  -0.040  -0.279  0.00  0.00    +0.174 HD
BRANCH  29  31
ATOM     31  C   UNL     1       3.843  -1.893   0.340  0.00  0.00    +0.048 A 
ATOM     32  C   UNL     1       2.719  -2.639   0.678  0.00  0.00    +0.025 A 
ATOM     33  C   UNL     1       2.857  -3.960   1.055  0.00  0.00    +0.002 A 
ATOM     34  C   UNL     1       4.112  -4.538   1.110  0.00  0.00    +0.000 A 
ATOM     35  C   UNL     1       5.233  -3.797   0.780  0.00  0.00    +0.002 A 
ATOM     36  C   UNL     1       5.103  -2.478   0.396  0.00  0.00    +0.025 A 
ENDBRANCH  29  31
ENDBRANCH  28  29
BRANCH  27  37
ATOM     37  C   UNL     1       3.567   2.007  -0.806  0.00  0.00    +0.126 C 
ATOM     38  N   UNL     1       4.487   2.617  -1.078  0.00  0.00    -0.189 NA
ENDBRANCH  27  37
ENDBRANCH  24  27
ENDBRANCH   2  23
TORSDOF 8
