REMARK  Name = ZINC38975495
REMARK  3 active torsions:
REMARK  status: ('A' for Active; 'I' for Inactive)
REMARK    1  A    between atoms: C_4  and  C_7
REMARK    2  A    between atoms: C_9  and  C_13
REMARK    3  A    between atoms: C_20  and  C_22
REMARK                            x       y       z     vdW  Elec       q    Type
REMARK                         _______ _______ _______ _____ _____    ______ ____
ROOT
ATOM      1  C   UNL     1       5.782  -3.012   1.181  0.00  0.00    +0.230 C 
ATOM      2  N   UNL     1       5.498  -2.230   2.394  0.00  0.00    -0.242 N 
ATOM      3  N   UNL     1       6.737  -1.998   3.004  0.00  0.00    -0.161 NA
ATOM      4  C   UNL     1       7.694  -2.526   2.328  0.00  0.00    +0.201 C 
ATOM      5  N   UNL     1       7.257  -3.184   1.183  0.00  0.00    -0.175 N 
ATOM      6  N   UNL     1       8.240  -3.783   0.403  0.00  0.00    -0.173 NA
ATOM      7  C   UNL     1       9.491  -3.730   0.728  0.00  0.00    +0.103 C 
ATOM      8  S   UNL     1       9.456  -2.781   2.247  0.00  0.00    -0.034 S 
ATOM      9  H   UNL     1       4.629  -1.935   2.708  0.00  0.00    +0.170 HD
ENDROOT
BRANCH   7  10
ATOM     10  C   UNL     1      10.678  -4.317   0.007  0.00  0.00    +0.046 C 
ATOM     11  C   UNL     1      10.346  -4.476  -1.478  0.00  0.00    +0.010 C 
ATOM     12  C   UNL     1      11.551  -5.071  -2.209  0.00  0.00    +0.001 C 
ATOM     13  C   UNL     1      11.885  -6.439  -1.611  0.00  0.00    +0.000 C 
ATOM     14  C   UNL     1      12.217  -6.280  -0.126  0.00  0.00    +0.001 C 
ATOM     15  C   UNL     1      11.012  -5.685   0.605  0.00  0.00    +0.010 C 
ENDBRANCH   7  10
BRANCH   1  18
ATOM     16  C   UNL     1       3.699  -0.689  -0.037  0.00  0.00    +0.091 C 
ATOM     17  C   UNL     1       3.832  -2.029  -0.051  0.00  0.00    +0.035 C 
ATOM     18  C   UNL     1       5.335  -2.245  -0.065  0.00  0.00    +0.194 C 
ATOM     19  N   UNL     1       5.871  -0.874  -0.056  0.00  0.00    -0.176 NA
ATOM     20  N   UNL     1       4.919  -0.090  -0.047  0.00  0.00    -0.154 NA
BRANCH  16  24
ATOM     21  C   UNL     1      -0.017   1.379   0.010  0.00  0.00    +0.000 A 
ATOM     22  C   UNL     1       1.169   2.092   0.002  0.00  0.00    +0.001 A 
ATOM     23  C   UNL     1       2.377   1.426  -0.013  0.00  0.00    +0.010 A 
ATOM     24  C   UNL     1       2.402   0.033  -0.021  0.00  0.00    +0.002 A 
ATOM     25  C   UNL     1       1.205  -0.680  -0.013  0.00  0.00    +0.010 A 
ATOM     26  C   UNL     1       0.002  -0.004   0.002  0.00  0.00    +0.001 A 
ENDBRANCH  16  24
ENDBRANCH   1  18
TORSDOF 3
