REMARK  Name = ZINC39696020
REMARK  8 active torsions:
REMARK  status: ('A' for Active; 'I' for Inactive)
REMARK    1  A    between atoms: C_1  and  C_2
REMARK    2  A    between atoms: C_2  and  C_3
REMARK    3  A    between atoms: C_6  and  C_9
REMARK    4  A    between atoms: C_9  and  C_11
REMARK    5  A    between atoms: C_9  and  N_12
REMARK    6  A    between atoms: C_13  and  C_15
REMARK    7  A    between atoms: C_26  and  C_28
REMARK    8  A    between atoms: C_30  and  C_35
REMARK                            x       y       z     vdW  Elec       q    Type
REMARK                         _______ _______ _______ _____ _____    ______ ____
ROOT
ATOM      1  C   UNL     1       5.626  -5.125  -4.500  0.00  0.00    +0.100 C 
ATOM      2  C   UNL     1       4.831  -5.818  -3.371  0.00  0.00    +0.121 C 
ATOM      3  N   UNL     1       4.193  -6.985  -4.024  0.00  0.00    -0.296 N 
ATOM      4  C   UNL     1       5.227  -7.498  -4.954  0.00  0.00    +0.115 C 
ATOM      5  C   UNL     1       5.888  -6.232  -5.535  0.00  0.00    -0.004 C 
ATOM      6  C   UNL     1       7.388  -6.451  -5.707  0.00  0.00    -0.010 C 
ATOM      7  C   UNL     1       7.624  -7.514  -6.783  0.00  0.00    -0.082 C 
ATOM      8  N   UNL     1       7.024  -7.074  -8.049  0.00  0.00    +0.379 N 
ATOM      9  C   UNL     1       5.569  -6.956  -7.899  0.00  0.00    -0.082 C 
ATOM     10  C   UNL     1       5.246  -5.869  -6.870  0.00  0.00    -0.010 C 
ATOM     11  C   UNL     1       2.953  -7.471  -3.818  0.00  0.00    +0.247 C 
ATOM     12  O   UNL     1       2.172  -6.864  -3.111  0.00  0.00    -0.270 OA
ATOM     13  H   UNL     1       7.409  -6.178  -8.308  0.00  0.00    -0.086 HD
ATOM     14  H   UNL     1       7.234  -7.748  -8.771  0.00  0.00    -0.086 HD
ENDROOT
BRANCH  11  15
ATOM     15  C   UNL     1       2.542  -8.742  -4.453  0.00  0.00    +0.040 A 
ATOM     16  C   UNL     1       3.507  -9.651  -4.888  0.00  0.00    +0.025 A 
ATOM     17  C   UNL     1       3.119 -10.836  -5.479  0.00  0.00    +0.058 A 
ATOM     18  C   UNL     1       1.775 -11.124  -5.641  0.00  0.00    +0.050 A 
ATOM     19  C   UNL     1       0.812 -10.226  -5.212  0.00  0.00    +0.125 A 
ATOM     20  C   UNL     1       1.188  -9.039  -4.614  0.00  0.00    +0.051 A 
ATOM     21  F   UNL     1      -0.498 -10.514  -5.375  0.00  0.00    -0.205 F 
BRANCH  17  22
ATOM     22  C   UNL     1       4.160 -11.818  -5.949  0.00  0.00    +0.418 C 
ATOM     23  F   UNL     1       4.466 -12.706  -4.913  0.00  0.00    -0.166 F 
ATOM     24  F   UNL     1       3.666 -12.533  -7.046  0.00  0.00    -0.166 F 
ATOM     25  F   UNL     1       5.316 -11.127  -6.327  0.00  0.00    -0.166 F 
ENDBRANCH  17  22
ENDBRANCH  11  15
BRANCH   1  27
ATOM     26  N   UNL     1       5.426  -2.998  -5.746  0.00  0.00    -0.308 N 
ATOM     27  C   UNL     1       4.811  -4.016  -5.113  0.00  0.00    +0.219 C 
ATOM     28  O   UNL     1       3.600  -4.040  -5.036  0.00  0.00    -0.275 OA
ATOM     29  H   UNL     1       6.394  -2.979  -5.807  0.00  0.00    +0.149 HD
BRANCH  26  30
ATOM     30  C   UNL     1       4.633  -1.920  -6.341  0.00  0.00    +0.100 C 
ATOM     31  C   UNL     1       4.187  -2.331  -7.746  0.00  0.00    +0.033 C 
BRANCH  30  35
ATOM     32  C   UNL     1       7.003   1.626  -6.578  0.00  0.00    -0.048 A 
ATOM     33  C   UNL     1       5.671   1.708  -6.218  0.00  0.00    +0.004 A 
ATOM     34  C   UNL     1       4.904   0.561  -6.141  0.00  0.00    +0.006 A 
ATOM     35  C   UNL     1       5.469  -0.669  -6.426  0.00  0.00    -0.027 A 
ATOM     36  C   UNL     1       6.801  -0.750  -6.786  0.00  0.00    +0.006 A 
ATOM     37  C   UNL     1       7.567   0.398  -6.867  0.00  0.00    +0.004 A 
BRANCH  32  39
ATOM     38  C   UNL     1       7.752   3.456  -8.074  0.00  0.00    +0.009 C 
ATOM     39  C   UNL     1       7.839   2.877  -6.661  0.00  0.00    +0.032 C 
ENDBRANCH  32  39
ENDBRANCH  30  35
ENDBRANCH  26  30
ENDBRANCH   1  27
TORSDOF 6
