REMARK  Name = ZINC20572281
REMARK  3 active torsions:
REMARK  status: ('A' for Active; 'I' for Inactive)
REMARK    1  A    between atoms: C_7  and  C_11
REMARK    2  A    between atoms: C_11  and  C_12
REMARK    3  A    between atoms: N_20  and  C_23
REMARK                            x       y       z     vdW  Elec       q    Type
REMARK                         _______ _______ _______ _____ _____    ______ ____
ROOT
ATOM      1  C   UNL     1       0.236  -3.589  -1.455  0.00  0.00    +0.072 C 
ATOM      2  C   UNL     1      -0.650  -4.830  -1.503  0.00  0.00    +0.108 C 
ATOM      3  C   UNL     1       0.465  -5.892  -1.184  0.00  0.00    +0.123 C 
ATOM      4  C   UNL     1      -0.315  -7.052  -0.827  0.00  0.00    +0.233 C 
ATOM      5  O   UNL     1      -0.037  -8.217  -1.018  0.00  0.00    -0.274 OA
ATOM      6  N   UNL     1      -1.443  -6.548  -0.225  0.00  0.00    -0.210 N 
ATOM      7  C   UNL     1      -1.565  -5.178  -0.371  0.00  0.00    +0.232 C 
ATOM      8  O   UNL     1      -2.255  -4.420   0.275  0.00  0.00    -0.274 OA
ATOM      9  C   UNL     1       1.638  -5.477  -1.948  0.00  0.00    +0.136 C 
ATOM     10  N   UNL     1       1.411  -4.031  -2.288  0.00  0.00    -0.295 NA
ATOM     11  C   UNL     1       2.946  -5.591  -1.204  0.00  0.00    +0.006 A 
ATOM     12  C   UNL     1       3.383  -5.105   0.007  0.00  0.00    +0.046 A 
ATOM     13  C   UNL     1       4.672  -5.378   0.438  0.00  0.00    +0.124 A 
ATOM     14  C   UNL     1       5.514  -6.141  -0.354  0.00  0.00    +0.040 A 
ATOM     15  C   UNL     1       5.077  -6.629  -1.567  0.00  0.00    +0.026 A 
ATOM     16  C   UNL     1       3.782  -6.358  -2.006  0.00  0.00    +0.039 A 
ATOM     17  N   UNL     1       3.118  -6.734  -3.176  0.00  0.00    -0.283 N 
ATOM     18  C   UNL     1       1.861  -6.261  -3.220  0.00  0.00    +0.243 C 
ATOM     19  O   UNL     1       1.057  -6.430  -4.113  0.00  0.00    -0.273 OA
ATOM     20  F   UNL     1       5.105  -4.902   1.625  0.00  0.00    -0.205 F 
ATOM     21  H   UNL     1       1.217  -3.924  -3.272  0.00  0.00    +0.124 HD
ATOM     22  H   UNL     1       3.518  -7.275  -3.875  0.00  0.00    +0.155 HD
ENDROOT
BRANCH   6  23
ATOM     23  C   UNL     1      -2.380  -7.338   0.458  0.00  0.00    +0.044 A 
ATOM     24  C   UNL     1      -2.191  -8.710   0.556  0.00  0.00    +0.027 A 
ATOM     25  C   UNL     1      -3.115  -9.486   1.229  0.00  0.00    +0.040 A 
ATOM     26  C   UNL     1      -4.229  -8.897   1.804  0.00  0.00    +0.124 A 
ATOM     27  C   UNL     1      -4.418  -7.529   1.706  0.00  0.00    +0.040 A 
ATOM     28  C   UNL     1      -3.494  -6.748   1.039  0.00  0.00    +0.027 A 
ATOM     29  F   UNL     1      -5.131  -9.658   2.460  0.00  0.00    -0.205 F 
ENDBRANCH   6  23
BRANCH   1  30
ATOM     30  C   UNL     1       0.666  -3.275  -0.021  0.00  0.00    +0.056 C 
BRANCH  30  37
ATOM     31  C   UNL     1      -0.205   1.329   0.073  0.00  0.00    +0.001 A 
ATOM     32  C   UNL     1       0.951   2.099   0.064  0.00  0.00    +0.002 A 
ATOM     33  C   UNL     1       2.192   1.502   0.030  0.00  0.00    +0.026 A 
ATOM     34  C   UNL     1       2.291   0.115   0.005  0.00  0.00    +0.047 A 
ATOM     35  C   UNL     1       1.117  -0.660   0.014  0.00  0.00    +0.003 A 
ATOM     36  C   UNL     1      -0.131  -0.035   0.048  0.00  0.00    +0.010 A 
ATOM     37  C   UNL     1       1.555  -2.058  -0.018  0.00  0.00    -0.021 A 
ATOM     38  C   UNL     1       2.897  -2.049  -0.044  0.00  0.00    +0.087 A 
ATOM     39  N   UNL     1       3.354  -0.759  -0.031  0.00  0.00    -0.360 N 
ATOM     40  H   UNL     1       4.289  -0.500  -0.044  0.00  0.00    +0.165 HD
ENDBRANCH  30  37
ENDBRANCH   1  30
TORSDOF 3
