REMARK  Name = ZINC28654311
REMARK  9 active torsions:
REMARK  status: ('A' for Active; 'I' for Inactive)
REMARK    1  A    between atoms: C_1  and  C_2
REMARK    2  A    between atoms: C_2  and  C_4
REMARK    3  A    between atoms: C_2  and  N_18
REMARK    4  A    between atoms: C_4  and  C_6
REMARK    5  A    between atoms: C_15  and  C_17
REMARK    6  A    between atoms: N_18  and  C_19
REMARK    7  A    between atoms: C_19  and  C_20
REMARK    8  A    between atoms: C_20  and  C_22
REMARK    9  A    between atoms: C_20  and  C_28
REMARK                            x       y       z     vdW  Elec       q    Type
REMARK                         _______ _______ _______ _____ _____    ______ ____
ROOT
ATOM      1  N   UNL     1       2.389   1.079   0.335  0.00  0.00    +0.386 N 
ATOM      2  H   UNL     1       2.046   0.339   1.073  0.00  0.00    -0.085 HD
ATOM      3  H   UNL     1       2.734   0.561  -0.572  0.00  0.00    -0.085 HD
ENDROOT
BRANCH   1   5
ATOM      4  C   UNL     1       1.512   2.567  -1.401  0.00  0.00    -0.006 C 
ATOM      5  C   UNL     1       1.280   1.980  -0.007  0.00  0.00    -0.002 C 
BRANCH   5   6
ATOM      6  C   UNL     1      -0.015   1.208   0.004  0.00  0.00    +0.149 C 
ATOM      7  O   UNL     1       0.002  -0.004  -0.002  0.00  0.00    -0.294 OA
BRANCH   6   8
ATOM      8  C   UNL     1      -1.296   1.925   0.015  0.00  0.00    +0.016 A 
ATOM      9  C   UNL     1      -1.322   3.326   0.021  0.00  0.00    +0.013 A 
ATOM     10  C   UNL     1      -2.512   3.989   0.032  0.00  0.00    +0.024 A 
ATOM     11  C   UNL     1      -3.722   3.285   0.036  0.00  0.00    +0.040 A 
ATOM     12  C   UNL     1      -3.699   1.895   0.029  0.00  0.00    -0.024 A 
ATOM     13  C   UNL     1      -2.503   1.215   0.014  0.00  0.00    +0.016 A 
ATOM     14  C   UNL     1      -5.125   1.392   0.035  0.00  0.00    +0.056 C 
ATOM     15  C   UNL     1      -5.983   2.667   0.046  0.00  0.00    +0.118 C 
ATOM     16  N   UNL     1      -5.025   3.776   0.045  0.00  0.00    -0.271 N 
ATOM     17  C   UNL     1      -5.357   5.082   0.052  0.00  0.00    +0.217 C 
ATOM     18  O   UNL     1      -4.492   5.927   0.144  0.00  0.00    -0.276 OA
ATOM     19  C   UNL     1      -6.803   5.493  -0.053  0.00  0.00    +0.109 C 
ENDBRANCH   6   8
ENDBRANCH   5   6
ENDBRANCH   1   5
BRANCH   1  20
ATOM     20  C   UNL     1       3.517   1.827   0.906  0.00  0.00    -0.069 C 
BRANCH  20  21
ATOM     21  C   UNL     1       4.650   0.858   1.249  0.00  0.00    +0.034 C 
BRANCH  21  22
ATOM     22  C   UNL     1       5.757   1.605   1.948  0.00  0.00    -0.017 A 
ATOM     23  C   UNL     1       6.460   2.636   1.452  0.00  0.00    +0.087 A 
ATOM     24  N   UNL     1       7.381   3.058   2.373  0.00  0.00    -0.360 N 
ATOM     25  H   UNL     1       8.049   3.898   2.137  0.00  0.00    +0.165 HD
ATOM     26  C   UNL     1       7.290   2.289   3.512  0.00  0.00    +0.047 A 
ATOM     27  C   UNL     1       6.265   1.349   3.298  0.00  0.00    +0.003 A 
ATOM     28  C   UNL     1       5.942   0.430   4.298  0.00  0.00    +0.010 A 
ATOM     29  C   UNL     1       6.622   0.451   5.483  0.00  0.00    +0.001 A 
ATOM     30  C   UNL     1       7.632   1.378   5.700  0.00  0.00    +0.002 A 
ATOM     31  C   UNL     1       7.972   2.289   4.724  0.00  0.00    +0.026 A 
ENDBRANCH  21  22
BRANCH  21  32
ATOM     32  C   UNL     1       5.183   0.239  -0.018  0.00  0.00    -0.042 A 
ATOM     33  C   UNL     1       5.714   1.044  -1.009  0.00  0.00    +0.004 A 
ATOM     34  C   UNL     1       6.206   0.476  -2.169  0.00  0.00    +0.000 A 
ATOM     35  C   UNL     1       6.160  -0.894  -2.342  0.00  0.00    +0.000 A 
ATOM     36  C   UNL     1       5.625  -1.698  -1.353  0.00  0.00    +0.000 A 
ATOM     37  C   UNL     1       5.136  -1.131  -0.191  0.00  0.00    +0.004 A 
ENDBRANCH  21  32
ENDBRANCH  20  21
ENDBRANCH   1  20
TORSDOF 7
