REMARK  Name = ZINC39400741
REMARK  11 active torsions:
REMARK  status: ('A' for Active; 'I' for Inactive)
REMARK    1  A    between atoms: C_1  and  O_2
REMARK    2  A    between atoms: O_2  and  C_3
REMARK    3  A    between atoms: C_3  and  C_5
REMARK    4  A    between atoms: C_8  and  C_11
REMARK    5  A    between atoms: C_17  and  C_35
REMARK    6  A    between atoms: C_18  and  C_25
REMARK    7  A    between atoms: C_20  and  C_23
REMARK    8  A    between atoms: C_21  and  N_22
REMARK    9  A    between atoms: C_28  and  C_31
REMARK   10  A    between atoms: C_31  and  O_33
REMARK   11  A    between atoms: O_33  and  C_34
REMARK                            x       y       z     vdW  Elec       q    Type
REMARK                         _______ _______ _______ _____ _____    ______ ____
ROOT
ATOM      1  C   UNL     1       0.378  -6.373   1.605  0.00  0.00    +0.028 C 
ATOM      2  C   UNL     1       1.206  -6.970   2.500  0.00  0.00    +0.080 A 
ATOM      3  C   UNL     1       2.009  -6.368   3.575  0.00  0.00    +0.271 A 
ATOM      4  O   UNL     1       1.994  -5.167   3.766  0.00  0.00    -0.266 OA
ATOM      5  N   UNL     1       2.763  -7.180   4.343  0.00  0.00    -0.256 N 
ATOM      6  C   UNL     1       2.731  -8.534   4.068  0.00  0.00    +0.104 A 
ATOM      7  C   UNL     1       3.434  -9.470   4.752  0.00  0.00    +0.072 C 
ATOM      8  C   UNL     1       4.317  -9.013   5.896  0.00  0.00    +0.106 C 
ATOM      9  C   UNL     1       4.325  -7.522   6.166  0.00  0.00    +0.080 C 
ATOM     10  C   UNL     1       3.565  -6.717   5.391  0.00  0.00    +0.119 C 
ATOM     11  S   UNL     1       1.607  -8.699   2.695  0.00  0.00    -0.065 S 
ENDROOT
BRANCH   1  15
ATOM     12  C   UNL     1       0.251  -2.150   1.328  0.00  0.00    +0.059 A 
ATOM     13  C   UNL     1      -0.922  -2.896   1.178  0.00  0.00    +0.015 A 
ATOM     14  C   UNL     1      -0.883  -4.258   1.266  0.00  0.00    +0.009 A 
ATOM     15  C   UNL     1       0.334  -4.909   1.508  0.00  0.00    -0.024 A 
ATOM     16  C   UNL     1       1.509  -4.161   1.658  0.00  0.00    +0.009 A 
ATOM     17  C   UNL     1       1.468  -2.799   1.563  0.00  0.00    +0.015 A 
BRANCH  12  18
ATOM     18  C   UNL     1       0.207  -0.678   1.231  0.00  0.00    +0.339 C 
ATOM     19  O   UNL     1       1.227  -0.031   1.357  0.00  0.00    -0.245 OA
BRANCH  18  21
ATOM     20  C   UNL     1      -0.933   1.373   0.923  0.00  0.00    +0.280 C 
ATOM     21  O   UNL     1      -0.965  -0.053   1.004  0.00  0.00    -0.464 OA
ENDBRANCH  18  21
ENDBRANCH  12  18
ENDBRANCH   1  15
BRANCH   8  22
ATOM     22  C   UNL     1       3.862  -9.713   7.151  0.00  0.00    -0.034 A 
ATOM     23  C   UNL     1       2.567  -9.540   7.606  0.00  0.00    +0.005 A 
ATOM     24  C   UNL     1       2.144 -10.177   8.754  0.00  0.00    +0.015 A 
ATOM     25  C   UNL     1       3.027 -10.999   9.457  0.00  0.00    +0.059 A 
ATOM     26  C   UNL     1       4.333 -11.169   8.993  0.00  0.00    +0.015 A 
ATOM     27  C   UNL     1       4.740 -10.530   7.841  0.00  0.00    +0.005 A 
BRANCH  25  28
ATOM     28  C   UNL     1       2.581 -11.685  10.688  0.00  0.00    +0.339 C 
ATOM     29  O   UNL     1       1.445 -11.534  11.089  0.00  0.00    -0.245 OA
BRANCH  28  30
ATOM     30  O   UNL     1       3.436 -12.477  11.364  0.00  0.00    -0.464 OA
ATOM     31  C   UNL     1       2.938 -13.108  12.545  0.00  0.00    +0.280 C 
ENDBRANCH  28  30
ENDBRANCH  25  28
ENDBRANCH   8  22
BRANCH  10  32
ATOM     32  N   UNL     1       3.582  -5.367   5.647  0.00  0.00    -0.343 N 
ATOM     33  H   UNL     1       2.808  -4.823   5.434  0.00  0.00    +0.144 HD
ATOM     34  H   UNL     1       4.368  -4.958   6.042  0.00  0.00    +0.144 HD
ENDBRANCH  10  32
BRANCH   9  35
ATOM     35  C   UNL     1       5.122  -6.976   7.223  0.00  0.00    +0.099 C 
ATOM     36  N   UNL     1       5.755  -6.544   8.062  0.00  0.00    -0.191 NA
ENDBRANCH   9  35
BRANCH   7  37
ATOM     37  C   UNL     1       3.344 -10.856   4.403  0.00  0.00    +0.098 C 
ATOM     38  N   UNL     1       3.273 -11.956   4.126  0.00  0.00    -0.191 NA
ENDBRANCH   7  37
TORSDOF 9
