REMARK  Name = ZINC64341951
REMARK  6 active torsions:
REMARK  status: ('A' for Active; 'I' for Inactive)
REMARK    1  A    between atoms: C_1  and  C_2
REMARK    2  A    between atoms: C_8  and  C_10
REMARK    3  A    between atoms: C_13  and  N_16
REMARK    4  A    between atoms: C_17  and  C_19
REMARK    5  A    between atoms: C_22  and  C_24
REMARK    6  A    between atoms: N_27  and  C_29
REMARK                            x       y       z     vdW  Elec       q    Type
REMARK                         _______ _______ _______ _____ _____    ______ ____
ROOT
ATOM      1  C   UNL     1       2.525  -2.650  -0.008  0.00  0.00    +0.017 A 
ATOM      2  C   UNL     1       2.605  -4.036   0.159  0.00  0.00    +0.013 A 
ATOM      3  C   UNL     1       3.832  -4.659   0.144  0.00  0.00    +0.024 A 
ATOM      4  C   UNL     1       4.992  -3.912  -0.037  0.00  0.00    +0.034 A 
ATOM      5  C   UNL     1       4.916  -2.533  -0.204  0.00  0.00    +0.024 A 
ATOM      6  C   UNL     1       3.692  -1.903  -0.195  0.00  0.00    +0.013 A 
ENDROOT
BRANCH   1  14
ATOM      7  C   UNL     1      -0.045   1.468  -0.340  0.00  0.00    +0.066 C 
ATOM      8  C   UNL     1      -0.014  -0.026  -0.149  0.00  0.00    +0.046 A 
ATOM      9  C   UNL     1      -1.178  -0.715   0.030  0.00  0.00    +0.093 A 
ATOM     10  C   UNL     1      -1.123  -2.111   0.206  0.00  0.00    +0.252 A 
ATOM     11  O   UNL     1      -2.145  -2.758   0.369  0.00  0.00    -0.268 OA
ATOM     12  N   UNL     1       0.082  -2.720   0.191  0.00  0.00    -0.307 N 
ATOM     13  H   UNL     1       0.144  -3.680   0.310  0.00  0.00    +0.170 HD
ATOM     14  C   UNL     1       1.212  -1.978   0.007  0.00  0.00    +0.141 A 
ATOM     15  N   UNL     1       1.150  -0.673  -0.162  0.00  0.00    -0.234 NA
ENDBRANCH   1  14
BRANCH   4  16
ATOM     16  N   UNL     1       6.233  -4.547  -0.052  0.00  0.00    -0.280 N 
ATOM     17  C   UNL     1       6.348  -5.791  -0.557  0.00  0.00    +0.267 C 
ATOM     18  O   UNL     1       5.391  -6.323  -1.087  0.00  0.00    -0.268 OA
ATOM     19  H   UNL     1       7.014  -4.093   0.301  0.00  0.00    +0.155 HD
BRANCH  17  20
ATOM     20  C   UNL     1       7.631  -6.507  -0.468  0.00  0.00    +0.133 A 
ATOM     21  C   UNL     1       7.760  -7.769  -0.983  0.00  0.00    +0.080 A 
ATOM     22  S   UNL     1       9.365  -8.140  -0.641  0.00  0.00    -0.075 S 
ATOM     23  C   UNL     1       9.812  -6.615   0.170  0.00  0.00    +0.112 A 
ATOM     24  N   UNL     1       8.682  -5.935   0.108  0.00  0.00    -0.234 NA
BRANCH  23  25
ATOM     25  C   UNL     1      11.111  -6.215   0.755  0.00  0.00    +0.045 A 
ATOM     26  C   UNL     1      11.397  -4.990   1.392  0.00  0.00    +0.145 A 
ATOM     27  N   UNL     1      12.647  -5.013   1.772  0.00  0.00    -0.179 NA
ATOM     28  N   UNL     1      13.204  -6.242   1.398  0.00  0.00    -0.274 N 
ATOM     29  C   UNL     1      12.251  -6.968   0.783  0.00  0.00    +0.118 A 
ATOM     30  C   UNL     1      14.585  -6.667   1.641  0.00  0.00    +0.172 C 
ENDBRANCH  23  25
ENDBRANCH  17  20
ENDBRANCH   4  16
TORSDOF 4
