REMARK  Name = ZINC27574738
REMARK  12 active torsions:
REMARK  status: ('A' for Active; 'I' for Inactive)
REMARK    1  A    between atoms: C_1  and  C_2
REMARK    2  A    between atoms: C_2  and  C_3
REMARK    3  A    between atoms: C_3  and  C_5
REMARK    4  A    between atoms: C_3  and  N_6
REMARK    5  A    between atoms: N_6  and  S_7
REMARK    6  A    between atoms: S_7  and  C_10
REMARK    7  A    between atoms: C_13  and  C_16
REMARK    8  A    between atoms: N_18  and  C_19
REMARK    9  A    between atoms: C_19  and  C_20
REMARK   10  A    between atoms: C_20  and  C_22
REMARK   11  A    between atoms: C_20  and  N_27
REMARK   12  A    between atoms: C_30  and  C_33
REMARK                            x       y       z     vdW  Elec       q    Type
REMARK                         _______ _______ _______ _____ _____    ______ ____
ROOT
ATOM      1  C   UNL     1       6.707  -0.498  -2.049  0.00  0.00    +0.244 C 
ATOM      2  O   UNL     1       7.703   0.079  -1.656  0.00  0.00    -0.270 OA
ATOM      3  N   UNL     1       6.593  -0.837  -3.348  0.00  0.00    -0.313 N 
ATOM      4  H   UNL     1       5.692  -1.359  -3.703  0.00  0.00    +0.149 HD
ENDROOT
BRANCH   1   8
ATOM      5  C   UNL     1       3.590  -1.445   0.676  0.00  0.00    +0.105 A 
ATOM      6  C   UNL     1       3.471  -1.799  -0.656  0.00  0.00    +0.029 A 
ATOM      7  C   UNL     1       4.478  -1.490  -1.547  0.00  0.00    +0.015 A 
ATOM      8  C   UNL     1       5.622  -0.828  -1.100  0.00  0.00    +0.037 A 
ATOM      9  C   UNL     1       5.738  -0.478   0.246  0.00  0.00    +0.015 A 
ATOM     10  C   UNL     1       4.721  -0.789   1.126  0.00  0.00    +0.029 A 
BRANCH   5  11
ATOM     11  S   UNL     1       2.296  -1.838   1.806  0.00  0.00    +0.059 S 
ATOM     12  O   UNL     1       2.888  -1.892   3.097  0.00  0.00    -0.153 OA
ATOM     13  O   UNL     1       1.587  -2.935   1.247  0.00  0.00    -0.153 OA
BRANCH  11  14
ATOM     14  N   UNL     1       1.250  -0.555   1.819  0.00  0.00    -0.187 NA
ATOM     15  H   UNL     1       1.251   0.131   2.678  0.00  0.00    +0.148 HD
BRANCH  14  16
ATOM     16  C   UNL     1       0.493  -0.215   0.611  0.00  0.00    +0.073 C 
ATOM     17  C   UNL     1      -0.887  -0.872   0.671  0.00  0.00    +0.025 C 
BRANCH  16  19
ATOM     18  C   UNL     1       1.705   1.952   0.334  0.00  0.00    +0.005 C 
ATOM     19  C   UNL     1       0.332   1.304   0.521  0.00  0.00    +0.017 C 
ENDBRANCH  16  19
ENDBRANCH  14  16
ENDBRANCH  11  14
ENDBRANCH   5  11
ENDBRANCH   1   8
BRANCH   3  20
ATOM     20  C   UNL     1       7.668  -0.510  -4.288  0.00  0.00    +0.094 C 
BRANCH  20  21
ATOM     21  C   UNL     1       7.290  -1.000  -5.686  0.00  0.00    -0.013 C 
BRANCH  21  22
ATOM     22  N   UNL     1       5.988  -0.437  -6.067  0.00  0.00    +0.386 N 
ATOM     23  C   UNL     1       5.935   1.003  -5.787  0.00  0.00    -0.078 C 
ATOM     24  C   UNL     1       4.522   1.526  -6.059  0.00  0.00    -0.015 C 
ATOM     25  C   UNL     1       4.157   1.258  -7.521  0.00  0.00    -0.018 C 
ATOM     26  C   UNL     1       4.266  -0.244  -7.799  0.00  0.00    -0.015 C 
ATOM     27  C   UNL     1       5.686  -0.715  -7.478  0.00  0.00    -0.078 C 
ATOM     28  C   UNL     1       2.723   1.723  -7.783  0.00  0.00    +0.007 C 
ATOM     29  H   UNL     1       5.215  -0.926  -5.457  0.00  0.00    -0.081 HD
ENDBRANCH  21  22
BRANCH  21  30
ATOM     30  C   UNL     1       8.337  -0.557  -6.675  0.00  0.00    -0.022 A 
ATOM     31  C   UNL     1       9.280  -1.297  -7.310  0.00  0.00    +0.009 A 
ATOM     32  C   UNL     1      10.146  -0.670  -8.186  0.00  0.00    +0.008 A 
ATOM     33  C   UNL     1      10.027   0.666  -8.385  0.00  0.00    +0.045 A 
ATOM     34  S   UNL     1       8.654   1.077  -7.320  0.00  0.00    -0.103 S 
ENDBRANCH  21  30
ENDBRANCH  20  21
ENDBRANCH   3  20
TORSDOF 9
