REMARK  Name = ZINC20758033
REMARK  6 active torsions:
REMARK  status: ('A' for Active; 'I' for Inactive)
REMARK    1  A    between atoms: C_1  and  C_2
REMARK    2  A    between atoms: C_2  and  N_3
REMARK    3  A    between atoms: C_16  and  C_18
REMARK    4  A    between atoms: N_22  and  C_25
REMARK    5  A    between atoms: C_30  and  O_31
REMARK    6  A    between atoms: O_31  and  C_32
REMARK                            x       y       z     vdW  Elec       q    Type
REMARK                         _______ _______ _______ _____ _____    ______ ____
ROOT
ATOM      1  C   UNL     1       1.753  -2.331  -0.013  0.00  0.00    +0.074 A 
ATOM      2  C   UNL     1       1.332  -3.186  -0.988  0.00  0.00    +0.260 A 
ATOM      3  N   UNL     1       2.184  -3.515  -2.012  0.00  0.00    -0.274 N 
ATOM      4  C   UNL     1       3.427  -2.999  -2.057  0.00  0.00    +0.337 A 
ATOM      5  N   UNL     1       3.861  -2.154  -1.105  0.00  0.00    -0.225 N 
ATOM      6  C   UNL     1       3.053  -1.800  -0.085  0.00  0.00    +0.267 A 
ATOM      7  O   UNL     1       3.450  -1.030   0.773  0.00  0.00    -0.267 OA
ATOM      8  O   UNL     1       4.168  -3.303  -2.972  0.00  0.00    -0.246 OA
ATOM      9  O   UNL     1       0.087  -3.705  -0.946  0.00  0.00    -0.267 OA
ATOM     10  H   UNL     1       1.889  -4.122  -2.708  0.00  0.00    +0.173 HD
ENDROOT
BRANCH   1  24
ATOM     11  N   UNL     1       0.713  -0.491   1.192  0.00  0.00    +0.388 N 
ATOM     12  C   UNL     1      -0.033  -0.102   2.397  0.00  0.00    -0.073 C 
ATOM     13  C   UNL     1       0.847  -0.320   3.636  0.00  0.00    +0.019 C 
ATOM     14  C   UNL     1       1.417  -1.714   3.557  0.00  0.00    -0.022 A 
ATOM     15  C   UNL     1       2.046  -2.510   4.586  0.00  0.00    +0.003 A 
ATOM     16  C   UNL     1       2.327  -2.271   5.936  0.00  0.00    +0.010 A 
ATOM     17  C   UNL     1       2.950  -3.280   6.628  0.00  0.00    +0.001 A 
ATOM     18  C   UNL     1       3.292  -4.482   6.030  0.00  0.00    +0.002 A 
ATOM     19  C   UNL     1       3.027  -4.745   4.698  0.00  0.00    +0.026 A 
ATOM     20  C   UNL     1       2.394  -3.740   3.969  0.00  0.00    +0.047 A 
ATOM     21  N   UNL     1       1.994  -3.669   2.665  0.00  0.00    -0.359 N 
ATOM     22  H   UNL     1       2.106  -4.373   2.008  0.00  0.00    +0.166 HD
ATOM     23  C   UNL     1       1.411  -2.454   2.425  0.00  0.00    +0.011 A 
ATOM     24  C   UNL     1       0.836  -1.955   1.121  0.00  0.00    +0.021 C 
ATOM     25  H   UNL     1       1.633  -0.079   1.224  0.00  0.00    -0.080 HD
BRANCH  11  27
ATOM     26  C   UNL     1      -0.019   1.526   0.010  0.00  0.00    -0.017 C 
ATOM     27  C   UNL     1       0.002  -0.004   0.002  0.00  0.00    -0.081 C 
ENDBRANCH  11  27
ENDBRANCH   1  24
BRANCH   5  28
ATOM     28  C   UNL     1       5.161  -1.633  -1.176  0.00  0.00    +0.096 A 
ATOM     29  C   UNL     1       5.396  -0.441  -1.846  0.00  0.00    +0.030 A 
ATOM     30  C   UNL     1       6.678   0.071  -1.916  0.00  0.00    +0.002 A 
ATOM     31  C   UNL     1       7.728  -0.602  -1.319  0.00  0.00    +0.004 A 
ATOM     32  C   UNL     1       7.502  -1.790  -0.650  0.00  0.00    +0.048 A 
ATOM     33  C   UNL     1       6.218  -2.307  -0.570  0.00  0.00    +0.144 A 
BRANCH  33  34
ATOM     34  O   UNL     1       5.992  -3.472   0.093  0.00  0.00    -0.493 OA
ATOM     35  C   UNL     1       7.124  -4.108   0.690  0.00  0.00    +0.277 C 
ENDBRANCH  33  34
ENDBRANCH   5  28
TORSDOF 4
