REMARK  Name = ZINC35845932
REMARK  8 active torsions:
REMARK  status: ('A' for Active; 'I' for Inactive)
REMARK    1  A    between atoms: C_1  and  C_2
REMARK    2  A    between atoms: N_8  and  C_9
REMARK    3  A    between atoms: C_9  and  C_10
REMARK    4  A    between atoms: C_10  and  C_11
REMARK    5  A    between atoms: C_11  and  N_12
REMARK    6  A    between atoms: C_13  and  C_15
REMARK    7  A    between atoms: C_15  and  N_16
REMARK    8  A    between atoms: C_24  and  C_26
REMARK                            x       y       z     vdW  Elec       q    Type
REMARK                         _______ _______ _______ _____ _____    ______ ____
ROOT
ATOM      1  N   UNL     1       0.733   0.352   9.716  0.00  0.00    -0.280 NA
ATOM      2  C   UNL     1      -0.580  -0.271   9.936  0.00  0.00    +0.107 C 
ATOM      3  C   UNL     1      -1.384   0.556  10.946  0.00  0.00    +0.137 C 
ATOM      4  N   UNL     1      -0.535   0.798  12.120  0.00  0.00    -0.348 N 
ATOM      5  C   UNL     1      -0.916   1.205  13.357  0.00  0.00    +0.086 A 
ATOM      6  C   UNL     1       0.188   1.295  14.130  0.00  0.00    +0.019 A 
ATOM      7  C   UNL     1       1.294   0.930  13.332  0.00  0.00    +0.024 A 
ATOM      8  C   UNL     1       0.825   0.633  12.111  0.00  0.00    +0.041 A 
ATOM      9  C   UNL     1       1.602   0.192  10.895  0.00  0.00    +0.135 C 
ENDROOT
BRANCH   9  10
ATOM     10  C   UNL     1       2.834   1.046  10.740  0.00  0.00    -0.023 A 
ATOM     11  C   UNL     1       2.730   2.317  10.207  0.00  0.00    +0.007 A 
ATOM     12  C   UNL     1       3.859   3.102  10.064  0.00  0.00    +0.022 A 
ATOM     13  C   UNL     1       5.094   2.615  10.455  0.00  0.00    +0.059 A 
ATOM     14  C   UNL     1       5.197   1.342  10.989  0.00  0.00    +0.060 A 
ATOM     15  C   UNL     1       4.066   0.560  11.137  0.00  0.00    +0.027 A 
ATOM     16 CL   UNL     1       6.746   0.730  11.480  0.00  0.00    -0.082 Cl
ATOM     17 CL   UNL     1       6.512   3.599  10.275  0.00  0.00    -0.082 Cl
ENDBRANCH   9  10
BRANCH   1  18
ATOM     18  C   UNL     1       1.377  -0.187   8.511  0.00  0.00    +0.181 C 
BRANCH  18  20
ATOM     19  N   UNL     1       0.983  -0.177   6.069  0.00  0.00    -0.314 N 
ATOM     20  C   UNL     1       0.579   0.209   7.295  0.00  0.00    +0.227 C 
ATOM     21  O   UNL     1      -0.427   0.876   7.421  0.00  0.00    -0.274 OA
ATOM     22  H   UNL     1       1.787  -0.710   5.968  0.00  0.00    +0.149 HD
BRANCH  19  23
ATOM     23  C   UNL     1       0.207   0.209   4.887  0.00  0.00    +0.102 C 
BRANCH  23  24
ATOM     24  C   UNL     1       0.877  -0.353   3.631  0.00  0.00    +0.000 C 
BRANCH  24  25
ATOM     25  C   UNL     1       0.067   0.050   2.397  0.00  0.00    -0.077 C 
BRANCH  25  32
ATOM     26  C   UNL     1      -0.019   1.526   0.010  0.00  0.00    -0.013 C 
ATOM     27  C   UNL     1       0.002  -0.004   0.002  0.00  0.00    -0.072 C 
ATOM     28  C   UNL     1       0.717  -0.497  -1.258  0.00  0.00    -0.016 C 
ATOM     29  C   UNL     1       0.735  -2.028  -1.262  0.00  0.00    -0.003 C 
ATOM     30  C   UNL     1       1.410  -2.524   0.020  0.00  0.00    -0.019 C 
ATOM     31  C   UNL     1       0.669  -1.956   1.232  0.00  0.00    -0.078 C 
ATOM     32  N   UNL     1       0.711  -0.490   1.192  0.00  0.00    +0.381 N 
ATOM     33  H   UNL     1       1.671  -0.182   1.159  0.00  0.00    -0.081 HD
ENDBRANCH  25  32
ENDBRANCH  24  25
ENDBRANCH  23  24
ENDBRANCH  19  23
ENDBRANCH  18  20
ENDBRANCH   1  18
TORSDOF 7
