REMARK  Name = ZINC13500537
REMARK  11 active torsions:
REMARK  status: ('A' for Active; 'I' for Inactive)
REMARK    1  A    between atoms: C_1  and  C_2
REMARK    2  A    between atoms: C_2  and  C_3
REMARK    3  A    between atoms: C_2  and  C_4
REMARK    4  A    between atoms: C_4  and  C_6
REMARK    5  A    between atoms: C_4  and  N_66
REMARK    6  A    between atoms: N_10  and  C_11
REMARK    7  A    between atoms: C_17  and  C_18
REMARK    8  A    between atoms: C_17  and  N_66
REMARK    9  A    between atoms: C_18  and  O_19
REMARK   10  A    between atoms: C_20  and  C_21
REMARK   11  A    between atoms: C_20  and  N_66
REMARK                            x       y       z     vdW  Elec       q    Type
REMARK                         _______ _______ _______ _____ _____    ______ ____
ROOT
ATOM      1  N   UNL     1       0.022   1.228   1.249  0.00  0.00    +0.391 N 
ATOM      2  H   UNL     1      -0.886   0.832   0.979  0.00  0.00    -0.080 HD
ENDROOT
BRANCH   1   3
ATOM      3  C   UNL     1       0.477   0.578   2.496  0.00  0.00    +0.006 C 
BRANCH   3   4
ATOM      4  C   UNL     1       1.980   0.622   2.595  0.00  0.00    +0.139 A 
ATOM      5  N   UNL     1       2.835   0.360   1.637  0.00  0.00    -0.115 NA
ATOM      6  N   UNL     1       4.023   0.508   2.112  0.00  0.00    -0.023 NA
ATOM      7  N   UNL     1       3.948   0.859   3.349  0.00  0.00    -0.044 NA
ATOM      8  N   UNL     1       2.705   0.945   3.682  0.00  0.00    -0.228 N 
BRANCH   8   9
ATOM      9  C   UNL     1       2.181   1.320   4.997  0.00  0.00    +0.111 C 
ATOM     10  C   UNL     1       2.659   2.729   5.354  0.00  0.00    +0.027 C 
ATOM     11  C   UNL     1       2.111   3.120   6.728  0.00  0.00    +0.002 C 
ATOM     12  C   UNL     1       2.615   2.130   7.779  0.00  0.00    +0.000 C 
ATOM     13  C   UNL     1       2.138   0.721   7.423  0.00  0.00    +0.002 C 
ATOM     14  C   UNL     1       2.685   0.329   6.049  0.00  0.00    +0.027 C 
ENDBRANCH   8   9
ENDBRANCH   3   4
BRANCH   3  16
ATOM     15  C   UNL     1      -1.512  -0.925   2.332  0.00  0.00    +0.006 C 
ATOM     16  C   UNL     1       0.009  -0.879   2.486  0.00  0.00    -0.024 C 
ATOM     17  C   UNL     1       0.663  -1.615   1.314  0.00  0.00    +0.006 C 
ENDBRANCH   3  16
ENDBRANCH   1   3
BRANCH   1  18
ATOM     18  C   UNL     1      -0.134   2.682   1.465  0.00  0.00    -0.049 C 
BRANCH  18  19
ATOM     19  C   UNL     1      -1.438   2.928   2.227  0.00  0.00    +0.137 C 
BRANCH  19  20
ATOM     20  O   UNL     1      -1.323   2.401   3.550  0.00  0.00    -0.397 OA
ATOM     21  H   UNL     1      -2.115   2.522   4.092  0.00  0.00    +0.209 HD
ENDBRANCH  19  20
ENDBRANCH  18  19
ENDBRANCH   1  18
BRANCH   1  22
ATOM     22  C   UNL     1       0.996   0.980   0.166  0.00  0.00    -0.036 C 
BRANCH  22  23
ATOM     23  C   UNL     1       0.367   1.363  -1.149  0.00  0.00    +0.001 A 
ATOM     24  C   UNL     1       0.614   2.584  -1.687  0.00  0.00    +0.017 A 
ATOM     25  C   UNL     1      -0.011   2.925  -2.964  0.00  0.00    +0.002 A 
ATOM     26  C   UNL     1       0.210   4.170  -3.567  0.00  0.00    +0.059 A 
ATOM     27  C   UNL     1      -0.392   4.463  -4.770  0.00  0.00    +0.167 A 
ATOM     28  C   UNL     1      -1.222   3.521  -5.392  0.00  0.00    +0.168 A 
ATOM     29  C   UNL     1      -1.445   2.289  -4.804  0.00  0.00    +0.075 A 
ATOM     30  C   UNL     1      -0.845   1.979  -3.590  0.00  0.00    +0.053 A 
ATOM     31  N   UNL     1      -1.056   0.754  -2.990  0.00  0.00    -0.322 N 
ATOM     32  H   UNL     1      -1.631   0.103  -3.421  0.00  0.00    +0.169 HD
ATOM     33  C   UNL     1      -0.471   0.449  -1.818  0.00  0.00    +0.251 A 
ATOM     34  O   UNL     1      -0.676  -0.645  -1.320  0.00  0.00    -0.268 OA
ATOM     35  O   UNL     1      -1.685   4.056  -6.558  0.00  0.00    -0.453 OA
ATOM     36  C   UNL     1      -0.812   5.162  -6.849  0.00  0.00    +0.466 C 
ATOM     37  O   UNL     1      -0.342   5.580  -5.554  0.00  0.00    -0.453 OA
ENDBRANCH  22  23
ENDBRANCH   1  22
TORSDOF 9
