REMARK  Name = ZINC09860956
REMARK  9 active torsions:
REMARK  status: ('A' for Active; 'I' for Inactive)
REMARK    1  A    between atoms: C_1  and  O_2
REMARK    2  A    between atoms: O_2  and  C_3
REMARK    3  A    between atoms: C_5  and  C_17
REMARK    4  A    between atoms: C_8  and  O_9
REMARK    5  A    between atoms: O_9  and  C_10
REMARK    6  A    between atoms: C_10  and  C_12
REMARK    7  A    between atoms: C_20  and  C_31
REMARK    8  A    between atoms: C_26  and  N_30
REMARK    9  A    between atoms: C_27  and  C_28
REMARK                            x       y       z     vdW  Elec       q    Type
REMARK                         _______ _______ _______ _____ _____    ______ ____
ROOT
ATOM      1  C   UNL     1       2.447   0.363   4.190  0.00  0.00    +0.102 C 
ATOM      2  C   UNL     1       1.839  -0.007   5.519  0.00  0.00    +0.054 A 
ATOM      3  C   UNL     1       0.564   0.275   6.017  0.00  0.00    +0.100 A 
ATOM      4  N   UNL     1       0.475  -0.249   7.225  0.00  0.00    -0.171 NA
ATOM      5  N   UNL     1       1.694  -0.877   7.525  0.00  0.00    -0.246 N 
ATOM      6  H   UNL     1       1.907  -1.345   8.347  0.00  0.00    +0.192 HD
ATOM      7  C   UNL     1       2.516  -0.717   6.467  0.00  0.00    +0.223 A 
ATOM      8  O   UNL     1       3.792  -1.144   6.291  0.00  0.00    -0.423 OA
ATOM      9  C   UNL     1       4.489  -0.621   5.262  0.00  0.00    +0.200 C 
ATOM     10  C   UNL     1       3.929   0.089   4.257  0.00  0.00    +0.098 C 
ENDROOT
BRANCH   3  11
ATOM     11  C   UNL     1      -0.502   1.030   5.312  0.00  0.00    +0.006 A 
ATOM     12  C   UNL     1      -0.167   2.091   4.473  0.00  0.00    +0.014 A 
ATOM     13  C   UNL     1      -1.158   2.792   3.818  0.00  0.00    +0.050 A 
ATOM     14  C   UNL     1      -2.490   2.445   3.991  0.00  0.00    +0.166 A 
ATOM     15  C   UNL     1      -2.830   1.385   4.830  0.00  0.00    +0.167 A 
ATOM     16  C   UNL     1      -1.838   0.676   5.484  0.00  0.00    +0.059 A 
ATOM     17  O   UNL     1      -4.188   1.247   4.830  0.00  0.00    -0.453 OA
ATOM     18  C   UNL     1      -4.700   2.487   4.307  0.00  0.00    +0.466 C 
ATOM     19  O   UNL     1      -3.635   2.970   3.467  0.00  0.00    -0.453 OA
ENDBRANCH   3  11
BRANCH   1  22
ATOM     20  C   UNL     1       0.592  -0.613   1.047  0.00  0.00    +0.163 A 
ATOM     21  C   UNL     1       1.165   0.150   2.053  0.00  0.00    +0.054 A 
ATOM     22  C   UNL     1       1.825  -0.468   3.098  0.00  0.00    -0.031 A 
ATOM     23  C   UNL     1       1.916  -1.847   3.143  0.00  0.00    +0.008 A 
ATOM     24  C   UNL     1       1.348  -2.614   2.144  0.00  0.00    +0.050 A 
ATOM     25  C   UNL     1       0.679  -2.001   1.095  0.00  0.00    +0.173 A 
BRANCH  20  27
ATOM     26  C   UNL     1      -0.107   1.421   0.033  0.00  0.00    +0.277 C 
ATOM     27  O   UNL     1      -0.058  -0.006   0.018  0.00  0.00    -0.491 OA
ENDBRANCH  20  27
BRANCH  25  28
ATOM     28  O   UNL     1       0.114  -2.754   0.114  0.00  0.00    -0.418 OA
BRANCH  28  29
ATOM     29  C   UNL     1       0.797  -2.907  -1.039  0.00  0.00    +0.351 C 
ATOM     30  O   UNL     1       1.924  -2.463  -1.142  0.00  0.00    -0.244 OA
BRANCH  29  31
ATOM     31  C   UNL     1       0.180  -3.608  -2.167  0.00  0.00    +0.097 A 
ATOM     32  C   UNL     1       0.706  -3.876  -3.423  0.00  0.00    +0.022 A 
ATOM     33  C   UNL     1      -0.120  -4.561  -4.281  0.00  0.00    +0.008 A 
ATOM     34  C   UNL     1      -1.357  -4.921  -3.859  0.00  0.00    +0.046 A 
ATOM     35  S   UNL     1      -1.438  -4.348  -2.281  0.00  0.00    -0.090 S 
ENDBRANCH  29  31
ENDBRANCH  28  29
ENDBRANCH  25  28
ENDBRANCH   1  22
BRANCH   9  36
ATOM     36  N   UNL     1       5.847  -0.821   5.234  0.00  0.00    -0.328 N 
ATOM     37  H   UNL     1       6.278  -1.327   5.941  0.00  0.00    +0.145 HD
ATOM     38  H   UNL     1       6.375  -0.457   4.506  0.00  0.00    +0.145 HD
ENDBRANCH   9  36
BRANCH  10  39
ATOM     39  C   UNL     1       4.772   0.599   3.218  0.00  0.00    +0.101 C 
ATOM     40  N   UNL     1       5.441   1.004   2.394  0.00  0.00    -0.191 NA
ENDBRANCH  10  39
TORSDOF 8
