REMARK  Name = ZINC03984009
REMARK  11 active torsions:
REMARK  status: ('A' for Active; 'I' for Inactive)
REMARK    1  A    between atoms: C_1  and  O_2
REMARK    2  A    between atoms: O_2  and  C_3
REMARK    3  A    between atoms: C_5  and  C_12
REMARK    4  A    between atoms: C_7  and  O_10
REMARK    5  A    between atoms: C_8  and  O_9
REMARK    6  A    between atoms: O_10  and  C_11
REMARK    7  A    between atoms: C_20  and  O_30
REMARK    8  A    between atoms: O_30  and  C_31
REMARK    9  A    between atoms: C_33  and  O_53
REMARK   10  A    between atoms: C_35  and  O_52
REMARK   11  A    between atoms: C_44  and  C_47
REMARK                            x       y       z     vdW  Elec       q    Type
REMARK                         _______ _______ _______ _____ _____    ______ ____
ROOT
ATOM      1  C   UNL     1      -2.761   1.564  -0.948  0.00  0.00    +0.064 C 
ATOM      2  C   UNL     1      -3.740   2.531  -1.587  0.00  0.00    -0.030 A 
ATOM      3  C   UNL     1      -3.635   2.732  -2.956  0.00  0.00    +0.054 A 
ATOM      4  C   UNL     1      -4.500   3.591  -3.609  0.00  0.00    +0.167 A 
ATOM      5  C   UNL     1      -5.486   4.256  -2.885  0.00  0.00    +0.167 A 
ATOM      6  C   UNL     1      -5.585   4.055  -1.520  0.00  0.00    +0.056 A 
ATOM      7  C   UNL     1      -4.709   3.198  -0.867  0.00  0.00    -0.011 A 
ATOM      8  C   UNL     1      -4.862   3.059   0.635  0.00  0.00    +0.159 C 
ATOM      9  C   UNL     1      -3.564   2.496   1.183  0.00  0.00    +0.075 C 
ATOM     10  C   UNL     1      -3.318   1.163   0.403  0.00  0.00    +0.118 C 
ATOM     11  C   UNL     1      -2.394   0.435   1.342  0.00  0.00    +0.312 C 
ATOM     12  O   UNL     1      -1.575  -0.393   1.019  0.00  0.00    -0.250 OA
ATOM     13  O   UNL     1      -2.626   0.870   2.603  0.00  0.00    -0.464 OA
ATOM     14  C   UNL     1      -3.646   1.928   2.609  0.00  0.00    +0.239 C 
ATOM     15  O   UNL     1      -6.208   5.034  -3.743  0.00  0.00    -0.453 OA
ATOM     16  C   UNL     1      -5.914   4.529  -5.059  0.00  0.00    +0.466 C 
ATOM     17  O   UNL     1      -4.601   3.955  -4.921  0.00  0.00    -0.453 OA
ENDROOT
BRANCH   1  20
ATOM     18  C   UNL     1      -0.134   4.216  -0.357  0.00  0.00    +0.165 A 
ATOM     19  C   UNL     1      -1.362   3.595  -0.527  0.00  0.00    +0.054 A 
ATOM     20  C   UNL     1      -1.424   2.236  -0.770  0.00  0.00    -0.032 A 
ATOM     21  C   UNL     1      -0.262   1.492  -0.855  0.00  0.00    +0.054 A 
ATOM     22  C   UNL     1       0.970   2.105  -0.686  0.00  0.00    +0.165 A 
ATOM     23  C   UNL     1       1.036   3.470  -0.436  0.00  0.00    +0.201 A 
BRANCH  18  25
ATOM     24  C   UNL     1      -1.317   6.255  -0.044  0.00  0.00    +0.277 C 
ATOM     25  O   UNL     1      -0.074   5.553  -0.113  0.00  0.00    -0.491 OA
ENDBRANCH  18  25
BRANCH  23  26
ATOM     26  O   UNL     1       2.244   4.076  -0.270  0.00  0.00    -0.501 OA
ATOM     27  H   UNL     1       2.552   4.094   0.646  0.00  0.00    +0.292 HD
ENDBRANCH  23  26
BRANCH  22  28
ATOM     28  O   UNL     1       2.112   1.371  -0.764  0.00  0.00    -0.491 OA
ATOM     29  C   UNL     1       1.969  -0.027  -1.024  0.00  0.00    +0.277 C 
ENDBRANCH  22  28
ENDBRANCH   1  20
BRANCH   8  30
ATOM     30  O   UNL     1      -5.940   2.169   0.931  0.00  0.00    -0.340 OA
BRANCH  30  31
ATOM     31  C   UNL     1      -7.214   2.625   0.473  0.00  0.00    +0.282 C 
ATOM     32  C   UNL     1      -8.236   1.491   0.591  0.00  0.00    +0.201 C 
ATOM     33  C   UNL     1      -8.375   1.095   2.064  0.00  0.00    +0.179 C 
ATOM     34  C   UNL     1      -8.784   2.324   2.881  0.00  0.00    +0.184 C 
ATOM     35  C   UNL     1      -7.756   3.439   2.665  0.00  0.00    +0.178 C 
ATOM     36  O   UNL     1      -7.641   3.730   1.273  0.00  0.00    -0.340 OA
ATOM     37  C   UNL     1      -6.402   2.980   3.212  0.00  0.00    +0.197 C 
ATOM     38  O   UNL     1      -6.565   2.583   4.577  0.00  0.00    -0.344 OA
ATOM     39  C   UNL     1      -7.530   1.545   4.766  0.00  0.00    +0.289 C 
ATOM     40  O   UNL     1      -8.799   1.976   4.270  0.00  0.00    -0.338 OA
BRANCH  39  41
ATOM     41  C   UNL     1      -7.646   1.228   6.235  0.00  0.00    +0.045 A 
ATOM     42  C   UNL     1      -6.692   0.789   7.091  0.00  0.00    +0.016 A 
ATOM     43  C   UNL     1      -7.030   0.563   8.413  0.00  0.00    +0.008 A 
ATOM     44  C   UNL     1      -8.306   0.788   8.812  0.00  0.00    +0.045 A 
ATOM     45  S   UNL     1      -9.075   1.342   7.299  0.00  0.00    -0.097 S 
ENDBRANCH  39  41
BRANCH  33  46
ATOM     46  O   UNL     1      -7.125   0.597   2.545  0.00  0.00    -0.386 OA
ATOM     47  H   UNL     1      -6.804  -0.183   2.072  0.00  0.00    +0.210 HD
ENDBRANCH  33  46
BRANCH  32  48
ATOM     48  O   UNL     1      -9.500   1.934   0.093  0.00  0.00    -0.384 OA
ATOM     49  H   UNL     1      -9.484   2.208  -0.834  0.00  0.00    +0.210 HD
ENDBRANCH  32  48
ENDBRANCH  30  31
ENDBRANCH   8  30
TORSDOF 9
