REMARK  Name = ZINC13065057
REMARK  12 active torsions:
REMARK  status: ('A' for Active; 'I' for Inactive)
REMARK    1  A    between atoms: C_1  and  C_2
REMARK    2  A    between atoms: C_2  and  C_3
REMARK    3  A    between atoms: C_3  and  C_5
REMARK    4  A    between atoms: C_3  and  N_69
REMARK    5  A    between atoms: N_9  and  C_10
REMARK    6  A    between atoms: C_10  and  C_11
REMARK    7  A    between atoms: C_17  and  C_18
REMARK    8  A    between atoms: C_17  and  N_69
REMARK    9  A    between atoms: C_24  and  C_25
REMARK   10  A    between atoms: C_24  and  N_69
REMARK   11  A    between atoms: C_30  and  C_38
REMARK   12  A    between atoms: C_31  and  C_37
REMARK                            x       y       z     vdW  Elec       q    Type
REMARK                         _______ _______ _______ _____ _____    ______ ____
ROOT
ATOM      1  N   UNL     1       2.288   7.186  -2.153  0.00  0.00    +0.392 N 
ATOM      2  H   UNL     1       3.033   7.239  -1.448  0.00  0.00    -0.080 HD
ENDROOT
BRANCH   1   3
ATOM      3  C   UNL     1       1.641   5.860  -2.070  0.00  0.00    +0.003 C 
BRANCH   3   4
ATOM      4  C   UNL     1       2.695   4.829  -1.756  0.00  0.00    +0.138 A 
ATOM      5  N   UNL     1       3.873   4.717  -2.319  0.00  0.00    -0.115 NA
ATOM      6  N   UNL     1       4.479   3.717  -1.779  0.00  0.00    -0.023 NA
ATOM      7  N   UNL     1       3.721   3.191  -0.881  0.00  0.00    -0.044 NA
ATOM      8  N   UNL     1       2.609   3.845  -0.841  0.00  0.00    -0.226 N 
BRANCH   8   9
ATOM      9  C   UNL     1       1.471   3.573   0.040  0.00  0.00    +0.182 C 
BRANCH   9  10
ATOM     10  C   UNL     1       0.528   2.614  -0.641  0.00  0.00    -0.026 A 
ATOM     11  C   UNL     1       0.688   1.251  -0.473  0.00  0.00    +0.005 A 
ATOM     12  C   UNL     1      -0.177   0.372  -1.097  0.00  0.00    +0.000 A 
ATOM     13  C   UNL     1      -1.198   0.855  -1.893  0.00  0.00    +0.000 A 
ATOM     14  C   UNL     1      -1.361   2.217  -2.057  0.00  0.00    +0.000 A 
ATOM     15  C   UNL     1      -0.497   3.097  -1.433  0.00  0.00    +0.005 A 
ENDBRANCH   9  10
ENDBRANCH   8   9
ENDBRANCH   3   4
BRANCH   3  17
ATOM     16  C   UNL     1      -0.199   6.470  -3.646  0.00  0.00    +0.002 C 
ATOM     17  C   UNL     1       0.966   5.510  -3.398  0.00  0.00    -0.011 C 
ENDBRANCH   3  17
ENDBRANCH   1   3
BRANCH   1  18
ATOM     18  C   UNL     1       2.882   7.375  -3.494  0.00  0.00    -0.042 C 
BRANCH  18  19
ATOM     19  C   UNL     1       3.841   8.536  -3.438  0.00  0.00    -0.064 A 
ATOM     20  C   UNL     1       3.390   9.818  -3.691  0.00  0.00    +0.002 A 
ATOM     21  C   UNL     1       4.269  10.884  -3.635  0.00  0.00    +0.000 A 
ATOM     22  C   UNL     1       5.601  10.666  -3.337  0.00  0.00    +0.000 A 
ATOM     23  C   UNL     1       6.054   9.383  -3.091  0.00  0.00    +0.000 A 
ATOM     24  C   UNL     1       5.174   8.318  -3.141  0.00  0.00    +0.002 A 
ENDBRANCH  18  19
ENDBRANCH   1  18
BRANCH   1  25
ATOM     25  C   UNL     1       1.297   8.249  -1.885  0.00  0.00    -0.036 C 
BRANCH  25  26
ATOM     26  C   UNL     1       1.108   8.367  -0.395  0.00  0.00    +0.001 A 
ATOM     27  C   UNL     1       1.867   9.237   0.316  0.00  0.00    +0.017 A 
ATOM     28  C   UNL     1       1.656   9.331   1.762  0.00  0.00    -0.001 A 
ATOM     29  C   UNL     1       2.405  10.214   2.547  0.00  0.00    +0.010 A 
ATOM     30  C   UNL     1       2.187  10.274   3.894  0.00  0.00    +0.004 A 
ATOM     31  C   UNL     1       1.228   9.466   4.491  0.00  0.00    -0.046 A 
ATOM     32  C   UNL     1       0.478   8.589   3.737  0.00  0.00    -0.024 A 
ATOM     33  C   UNL     1       0.683   8.511   2.363  0.00  0.00    +0.052 A 
ATOM     34  N   UNL     1      -0.053   7.643   1.585  0.00  0.00    -0.322 N 
ATOM     35  H   UNL     1      -0.723   7.079   2.001  0.00  0.00    +0.169 HD
ATOM     36  C   UNL     1       0.145   7.567   0.257  0.00  0.00    +0.251 A 
ATOM     37  O   UNL     1      -0.524   6.788  -0.400  0.00  0.00    -0.268 OA
ATOM     38  C   UNL     1      -0.559   7.719   4.398  0.00  0.00    +0.046 C 
ATOM     39  C   UNL     1       1.005   9.550   5.979  0.00  0.00    +0.044 C 
ENDBRANCH  25  26
ENDBRANCH   1  25
TORSDOF 9
