REMARK  Name = ZINC39596094
REMARK  7 active torsions:
REMARK  status: ('A' for Active; 'I' for Inactive)
REMARK    1  A    between atoms: C_1  and  C_2
REMARK    2  A    between atoms: C_2  and  C_4
REMARK    3  A    between atoms: C_2  and  O_29
REMARK    4  A    between atoms: C_4  and  N_5
REMARK    5  A    between atoms: C_6  and  C_8
REMARK    6  A    between atoms: C_19  and  C_21
REMARK    7  A    between atoms: O_29  and  C_30
REMARK                            x       y       z     vdW  Elec       q    Type
REMARK                         _______ _______ _______ _____ _____    ______ ____
ROOT
ATOM      1  C   UNL     1       1.969  -4.343  -3.221  0.00  0.00    +0.100 C 
ATOM      2  C   UNL     1       0.572  -4.992  -3.095  0.00  0.00    +0.121 C 
ATOM      3  N   UNL     1       0.103  -5.145  -4.492  0.00  0.00    -0.296 N 
ATOM      4  C   UNL     1       1.313  -5.556  -5.244  0.00  0.00    +0.115 C 
ATOM      5  C   UNL     1       2.453  -4.718  -4.631  0.00  0.00    -0.004 C 
ATOM      6  C   UNL     1       3.731  -5.547  -4.548  0.00  0.00    -0.010 C 
ATOM      7  C   UNL     1       4.226  -5.858  -5.963  0.00  0.00    -0.082 C 
ATOM      8  N   UNL     1       4.478  -4.604  -6.683  0.00  0.00    +0.379 N 
ATOM      9  C   UNL     1       3.225  -3.856  -6.840  0.00  0.00    -0.082 C 
ATOM     10  C   UNL     1       2.688  -3.460  -5.461  0.00  0.00    -0.010 C 
ATOM     11  C   UNL     1      -1.142  -4.955  -4.971  0.00  0.00    +0.249 C 
ATOM     12  O   UNL     1      -1.391  -5.205  -6.135  0.00  0.00    -0.270 OA
ATOM     13  H   UNL     1       5.138  -4.046  -6.162  0.00  0.00    -0.086 HD
ATOM     14  H   UNL     1       4.861  -4.811  -7.593  0.00  0.00    -0.086 HD
ENDROOT
BRANCH  11  15
ATOM     15  C   UNL     1      -2.204  -4.441  -4.083  0.00  0.00    +0.073 A 
ATOM     16  C   UNL     1      -2.303  -4.902  -2.768  0.00  0.00    +0.016 A 
ATOM     17  C   UNL     1      -3.296  -4.419  -1.943  0.00  0.00    +0.002 A 
ATOM     18  C   UNL     1      -4.197  -3.479  -2.414  0.00  0.00    +0.023 A 
ATOM     19  C   UNL     1      -4.109  -3.017  -3.714  0.00  0.00    +0.077 A 
ATOM     20  C   UNL     1      -3.113  -3.489  -4.552  0.00  0.00    +0.154 A 
ATOM     21  F   UNL     1      -3.023  -3.033  -5.821  0.00  0.00    -0.203 F 
ATOM     22 CL   UNL     1      -5.244  -1.838  -4.294  0.00  0.00    -0.081 Cl
ENDBRANCH  11  15
BRANCH   1  24
ATOM     23  N   UNL     1       2.940  -2.129  -2.697  0.00  0.00    -0.312 N 
ATOM     24  C   UNL     1       1.866  -2.846  -3.082  0.00  0.00    +0.218 C 
ATOM     25  O   UNL     1       0.816  -2.286  -3.317  0.00  0.00    -0.275 OA
ATOM     26  H   UNL     1       3.780  -2.577  -2.510  0.00  0.00    +0.149 HD
BRANCH  23  27
ATOM     27  C   UNL     1       2.840  -0.674  -2.563  0.00  0.00    +0.148 C 
BRANCH  27  29
ATOM     28  C   UNL     1       4.054   1.393  -1.856  0.00  0.00    +0.053 C 
ATOM     29  C   UNL     1       4.191  -0.109  -2.117  0.00  0.00    +0.187 C 
BRANCH  29  30
ATOM     30  O   UNL     1       5.161  -0.328  -3.143  0.00  0.00    -0.488 OA
BRANCH  30  31
ATOM     31  C   UNL     1       6.465  -0.365  -2.761  0.00  0.00    +0.121 A 
ATOM     32  C   UNL     1       6.800  -0.237  -1.421  0.00  0.00    +0.048 A 
ATOM     33  C   UNL     1       8.126  -0.275  -1.035  0.00  0.00    +0.042 A 
ATOM     34  C   UNL     1       9.120  -0.442  -1.984  0.00  0.00    +0.124 A 
ATOM     35  C   UNL     1       8.787  -0.570  -3.322  0.00  0.00    +0.042 A 
ATOM     36  C   UNL     1       7.462  -0.538  -3.710  0.00  0.00    +0.048 A 
ATOM     37  F   UNL     1      10.416  -0.478  -1.605  0.00  0.00    -0.205 F 
ENDBRANCH  30  31
ENDBRANCH  29  30
ENDBRANCH  27  29
ENDBRANCH  23  27
ENDBRANCH   1  24
TORSDOF 6
