REMARK  Name = ZINC01636960
REMARK  15 active torsions:
REMARK  status: ('A' for Active; 'I' for Inactive)
REMARK    1  A    between atoms: C_1  and  C_2
REMARK    2  A    between atoms: C_2  and  C_3
REMARK    3  A    between atoms: C_2  and  C_4
REMARK    4  A    between atoms: C_2  and  N_74
REMARK    5  A    between atoms: C_4  and  C_5
REMARK    6  A    between atoms: C_5  and  C_6
REMARK    7  A    between atoms: C_6  and  C_7
REMARK    8  A    between atoms: C_7  and  C_8
REMARK    9  A    between atoms: C_8  and  C_9
REMARK   10  A    between atoms: C_8  and  C_10
REMARK   11  A    between atoms: C_8  and  N_71
REMARK   12  A    between atoms: C_11  and  C_12
REMARK   13  A    between atoms: C_11  and  N_71
REMARK   14  A    between atoms: C_23  and  C_24
REMARK   15  A    between atoms: C_23  and  N_74
REMARK                            x       y       z     vdW  Elec       q    Type
REMARK                         _______ _______ _______ _____ _____    ______ ____
ROOT
ATOM      1  C   UNL     1       1.241  11.532   0.763  0.00  0.00    -0.001 C 
ENDROOT
BRANCH   1   2
ATOM      2  C   UNL     1       1.155  10.049   1.126  0.00  0.00    -0.013 C 
BRANCH   2   4
ATOM      3  C   UNL     1       0.208   9.551  -1.132  0.00  0.00    -0.010 C 
ATOM      4  C   UNL     1      -0.013   9.407   0.375  0.00  0.00    -0.074 C 
ATOM      5  C   UNL     1      -1.317  10.104   0.768  0.00  0.00    -0.010 C 
BRANCH   4   6
ATOM      6  N   UNL     1      -0.089   7.977   0.730  0.00  0.00    +0.385 N 
ATOM      7  H   UNL     1      -0.234   7.887   1.743  0.00  0.00    -0.085 HD
ATOM      8  H   UNL     1       0.789   7.516   0.468  0.00  0.00    -0.085 HD
BRANCH   6   9
ATOM      9  C   UNL     1      -1.209   7.332   0.019  0.00  0.00    -0.033 C 
BRANCH   9  10
ATOM     10  C   UNL     1      -1.263   5.852   0.407  0.00  0.00    +0.194 C 
ATOM     11  C   UNL     1      -2.424   5.167  -0.326  0.00  0.00    +0.271 C 
ATOM     12  O   UNL     1      -2.437   3.785   0.048  0.00  0.00    -0.485 OA
ATOM     13  C   UNL     1      -1.241   3.136   0.030  0.00  0.00    +0.162 A 
ATOM     14  C   UNL     1      -1.219   1.749   0.017  0.00  0.00    +0.049 A 
ATOM     15  C   UNL     1      -0.013   1.076   0.008  0.00  0.00    +0.004 A 
ATOM     16  C   UNL     1       1.176   1.782   0.000  0.00  0.00    +0.004 A 
ATOM     17  C   UNL     1       1.161   3.164   0.007  0.00  0.00    +0.049 A 
ATOM     18  C   UNL     1      -0.046   3.846   0.020  0.00  0.00    +0.162 A 
ATOM     19  O   UNL     1      -0.045   5.207   0.019  0.00  0.00    -0.484 OA
ENDBRANCH   9  10
ENDBRANCH   6   9
ENDBRANCH   4   6
ENDBRANCH   2   4
ENDBRANCH   1   2
BRANCH   1  20
ATOM     20  C   UNL     1       2.409  12.174   1.514  0.00  0.00    -0.001 C 
BRANCH  20  21
ATOM     21  C   UNL     1       2.495  13.658   1.151  0.00  0.00    -0.013 C 
BRANCH  21  22
ATOM     22  C   UNL     1       3.664  14.300   1.902  0.00  0.00    -0.074 C 
ATOM     23  C   UNL     1       3.442  14.155   3.409  0.00  0.00    -0.010 C 
ATOM     24  C   UNL     1       4.968  13.602   1.509  0.00  0.00    -0.010 C 
BRANCH  22  25
ATOM     25  N   UNL     1       3.740  15.729   1.547  0.00  0.00    +0.385 N 
ATOM     26  H   UNL     1       2.861  16.191   1.809  0.00  0.00    -0.085 HD
ATOM     27  H   UNL     1       3.884  15.819   0.534  0.00  0.00    -0.085 HD
BRANCH  25  28
ATOM     28  C   UNL     1       4.860  16.375   2.258  0.00  0.00    -0.033 C 
BRANCH  28  29
ATOM     29  C   UNL     1       4.913  17.854   1.870  0.00  0.00    +0.194 C 
ATOM     30  C   UNL     1       6.147  18.511   2.504  0.00  0.00    +0.271 C 
ATOM     31  O   UNL     1       6.160  19.893   2.133  0.00  0.00    -0.485 OA
ATOM     32  C   UNL     1       4.984  20.569   2.249  0.00  0.00    +0.162 A 
ATOM     33  C   UNL     1       4.993  21.956   2.255  0.00  0.00    +0.049 A 
ATOM     34  C   UNL     1       3.807  22.656   2.369  0.00  0.00    +0.004 A 
ATOM     35  C   UNL     1       2.608  21.976   2.478  0.00  0.00    +0.004 A 
ATOM     36  C   UNL     1       2.592  20.594   2.474  0.00  0.00    +0.049 A 
ATOM     37  C   UNL     1       3.779  19.885   2.360  0.00  0.00    +0.162 A 
ATOM     38  O   UNL     1       3.747  18.525   2.361  0.00  0.00    -0.484 OA
ENDBRANCH  28  29
ENDBRANCH  25  28
ENDBRANCH  22  25
ENDBRANCH  21  22
ENDBRANCH  20  21
ENDBRANCH   1  20
TORSDOF 11
