REMARK  Name = ZINC35785839
REMARK  8 active torsions:
REMARK  status: ('A' for Active; 'I' for Inactive)
REMARK    1  A    between atoms: C_1  and  C_2
REMARK    2  A    between atoms: C_2  and  O_3
REMARK    3  A    between atoms: O_3  and  C_4
REMARK    4  A    between atoms: C_4  and  C_6
REMARK    5  A    between atoms: N_12  and  C_13
REMARK    6  A    between atoms: C_13  and  C_14
REMARK    7  A    between atoms: C_17  and  C_29
REMARK    8  A    between atoms: C_20  and  C_22
REMARK                            x       y       z     vdW  Elec       q    Type
REMARK                         _______ _______ _______ _____ _____    ______ ____
ROOT
ATOM      1  C   UNL     1       1.582  -5.829   1.099  0.00  0.00    +0.219 C 
ATOM      2  O   UNL     1       0.957  -6.381   1.980  0.00  0.00    -0.276 OA
ATOM      3  N   UNL     1       1.969  -6.523   0.010  0.00  0.00    -0.187 N 
ATOM      4  C   UNL     1       1.697  -7.947  -0.238  0.00  0.00    +0.137 C 
ATOM      5  C   UNL     1       2.357  -8.209  -1.606  0.00  0.00    +0.087 C 
ATOM      6  C   UNL     1       2.944  -6.869  -1.989  0.00  0.00    +0.069 C 
ATOM      7  N   UNL     1       2.687  -6.007  -1.067  0.00  0.00    -0.181 NA
ENDROOT
BRANCH   4   8
ATOM      8  C   UNL     1       2.328  -8.802   0.831  0.00  0.00    -0.021 A 
ATOM      9  C   UNL     1       3.571  -8.469   1.337  0.00  0.00    +0.009 A 
ATOM     10  C   UNL     1       4.153  -9.249   2.318  0.00  0.00    +0.050 A 
ATOM     11  C   UNL     1       3.492 -10.368   2.797  0.00  0.00    +0.166 A 
ATOM     12  C   UNL     1       2.240 -10.704   2.288  0.00  0.00    +0.167 A 
ATOM     13  C   UNL     1       1.659  -9.914   1.309  0.00  0.00    +0.055 A 
ATOM     14  O   UNL     1       1.803 -11.835   2.915  0.00  0.00    -0.453 OA
ATOM     15  C   UNL     1       2.974 -12.417   3.518  0.00  0.00    +0.466 C 
ATOM     16  O   UNL     1       3.839 -11.289   3.743  0.00  0.00    -0.453 OA
ENDBRANCH   4   8
BRANCH   6  17
ATOM     17  C   UNL     1       3.691  -6.590  -3.230  0.00  0.00    +0.001 A 
ATOM     18  C   UNL     1       3.898  -7.606  -4.167  0.00  0.00    +0.010 A 
ATOM     19  C   UNL     1       4.597  -7.339  -5.326  0.00  0.00    +0.003 A 
ATOM     20  C   UNL     1       5.093  -6.070  -5.563  0.00  0.00    +0.038 A 
ATOM     21  C   UNL     1       4.891  -5.057  -4.639  0.00  0.00    +0.124 A 
ATOM     22  C   UNL     1       4.188  -5.309  -3.476  0.00  0.00    +0.048 A 
ATOM     23  F   UNL     1       5.379  -3.820  -4.877  0.00  0.00    -0.205 F 
ENDBRANCH   6  17
BRANCH   1  24
ATOM     24  C   UNL     1       1.925  -4.366   1.221  0.00  0.00    +0.022 C 
BRANCH  24  30
ATOM     25  C   UNL     1       1.581  -2.388   2.530  0.00  0.00    +0.043 C 
ATOM     26  C   UNL     1       0.958  -1.828   3.811  0.00  0.00    -0.004 C 
ATOM     27  C   UNL     1       1.638  -2.467   5.025  0.00  0.00    -0.003 C 
ATOM     28  C   UNL     1       1.503  -3.990   4.931  0.00  0.00    -0.019 C 
ATOM     29  C   UNL     1       2.106  -4.470   3.609  0.00  0.00    -0.077 C 
ATOM     30  N   UNL     1       1.395  -3.843   2.487  0.00  0.00    +0.394 N 
ATOM     31  H   UNL     1       0.411  -4.058   2.552  0.00  0.00    -0.080 HD
BRANCH  25  32
ATOM     32  C   UNL     1       0.915  -1.762   1.333  0.00  0.00    +0.293 C 
ATOM     33  O   UNL     1      -0.046  -2.294   0.829  0.00  0.00    -0.253 OA
BRANCH  32  34
ATOM     34  O   UNL     1       1.388  -0.613   0.826  0.00  0.00    -0.466 OA
BRANCH  34  36
ATOM     35  C   UNL     1       1.386   1.226  -0.743  0.00  0.00    +0.048 C 
ATOM     36  C   UNL     1       0.708  -0.075  -0.310  0.00  0.00    +0.228 C 
ENDBRANCH  34  36
ENDBRANCH  32  34
ENDBRANCH  25  32
ENDBRANCH  24  30
ENDBRANCH   1  24
TORSDOF 7
