REMARK  Name = ZINC08750829
REMARK  7 active torsions:
REMARK  status: ('A' for Active; 'I' for Inactive)
REMARK    1  A    between atoms: C_1  and  C_2
REMARK    2  A    between atoms: C_5  and  N_8
REMARK    3  A    between atoms: C_12  and  C_13
REMARK    4  A    between atoms: C_22  and  S_23
REMARK    5  A    between atoms: S_23  and  C_24
REMARK    6  A    between atoms: C_24  and  C_26
REMARK    7  A    between atoms: C_24  and  C_27
REMARK                            x       y       z     vdW  Elec       q    Type
REMARK                         _______ _______ _______ _____ _____    ______ ____
ROOT
ATOM      1  N   UNL     1       4.294   5.662  -0.304  0.00  0.00    -0.214 N 
ATOM      2  C   UNL     1       4.801   4.410  -0.276  0.00  0.00    +0.275 C 
ATOM      3  O   UNL     1       5.972   4.087  -0.351  0.00  0.00    -0.268 OA
ATOM      4  C   UNL     1       3.635   3.516  -0.135  0.00  0.00    +0.129 C 
ATOM      5  C   UNL     1       3.647   2.153  -0.062  0.00  0.00    +0.041 C 
ATOM      6  N   UNL     1       2.539   4.332  -0.099  0.00  0.00    -0.220 NA
ATOM      7  C   UNL     1       2.927   5.578  -0.192  0.00  0.00    +0.169 C 
ENDROOT
BRANCH   5   8
ATOM      8  C   UNL     1       2.384   1.407  -0.049  0.00  0.00    -0.021 A 
ATOM      9  C   UNL     1       1.163   2.091   0.022  0.00  0.00    +0.009 A 
ATOM     10  C   UNL     1      -0.019   1.384   0.033  0.00  0.00    +0.022 A 
ATOM     11  C   UNL     1      -0.004   0.000  -0.026  0.00  0.00    +0.059 A 
ATOM     12  C   UNL     1       1.199  -0.685  -0.096  0.00  0.00    +0.060 A 
ATOM     13  C   UNL     1       2.391   0.008  -0.108  0.00  0.00    +0.029 A 
ATOM     14 CL   UNL     1       1.205  -2.420  -0.169  0.00  0.00    -0.082 Cl
ATOM     15 CL   UNL     1      -1.500  -0.881  -0.012  0.00  0.00    -0.082 Cl
ENDBRANCH   5   8
BRANCH   1  20
ATOM     16  C   UNL     1       7.297  10.451  -0.806  0.00  0.00    +0.044 C 
ATOM     17  C   UNL     1       6.500   9.180  -0.673  0.00  0.00    -0.050 A 
ATOM     18  C   UNL     1       6.769   8.302   0.361  0.00  0.00    +0.005 A 
ATOM     19  C   UNL     1       6.040   7.135   0.485  0.00  0.00    +0.024 A 
ATOM     20  C   UNL     1       5.036   6.845  -0.428  0.00  0.00    +0.044 A 
ATOM     21  C   UNL     1       4.771   7.726  -1.468  0.00  0.00    +0.024 A 
ATOM     22  C   UNL     1       5.500   8.893  -1.585  0.00  0.00    +0.005 A 
ENDBRANCH   1  20
BRANCH   7  23
ATOM     23  S   UNL     1       1.839   6.964  -0.183  0.00  0.00    -0.077 S 
BRANCH  23  24
ATOM     24  C   UNL     1       0.250   6.116  -0.010  0.00  0.00    +0.137 C 
ATOM     25  C   UNL     1       0.192   5.411   1.347  0.00  0.00    +0.029 C 
BRANCH  24  26
ATOM     26  C   UNL     1      -0.869   7.121  -0.102  0.00  0.00    +0.233 C 
ATOM     27  O   UNL     1      -0.645   8.296   0.096  0.00  0.00    -0.274 OA
ATOM     28  N   UNL     1      -2.118   6.714  -0.404  0.00  0.00    -0.239 N 
ATOM     29  C   UNL     1      -3.118   7.614  -0.486  0.00  0.00    +0.303 C 
ATOM     30  O   UNL     1      -2.894   8.792  -0.288  0.00  0.00    -0.253 OA
ATOM     31  N   UNL     1      -4.367   7.207  -0.788  0.00  0.00    -0.313 N 
ATOM     32  H   UNL     1      -2.296   5.774  -0.563  0.00  0.00    +0.159 HD
ATOM     33  H   UNL     1      -4.546   6.267  -0.947  0.00  0.00    +0.146 HD
ATOM     34  H   UNL     1      -5.087   7.854  -0.847  0.00  0.00    +0.146 HD
ENDBRANCH  24  26
ENDBRANCH  23  24
ENDBRANCH   7  23
TORSDOF 5
