REMARK  Name = ZINC14462833
REMARK  9 active torsions:
REMARK  status: ('A' for Active; 'I' for Inactive)
REMARK    1  A    between atoms: C_1  and  C_2
REMARK    2  A    between atoms: C_5  and  N_9
REMARK    3  A    between atoms: C_6  and  C_8
REMARK    4  A    between atoms: N_9  and  S_10
REMARK    5  A    between atoms: S_10  and  C_13
REMARK    6  A    between atoms: C_26  and  C_29
REMARK    7  A    between atoms: C_32  and  C_35
REMARK    8  A    between atoms: C_35  and  C_36
REMARK    9  A    between atoms: C_35  and  C_37
REMARK                            x       y       z     vdW  Elec       q    Type
REMARK                         _______ _______ _______ _____ _____    ______ ____
ROOT
ATOM      1  C   UNL     1       1.347  -2.967  -1.026  0.00  0.00    +0.109 A 
ATOM      2  C   UNL     1       0.001  -2.764  -0.783  0.00  0.00    +0.030 A 
ATOM      3  C   UNL     1      -0.498  -1.483  -0.668  0.00  0.00    +0.025 A 
ATOM      4  C   UNL     1       0.348  -0.387  -0.794  0.00  0.00    +0.031 A 
ATOM      5  C   UNL     1       1.712  -0.600  -1.024  0.00  0.00    -0.018 A 
ATOM      6  C   UNL     1       2.198  -1.884  -1.146  0.00  0.00    +0.034 A 
ATOM      7  C   UNL     1       2.585   0.591  -1.102  0.00  0.00    +0.049 C 
ATOM      8  C   UNL     1       3.850   0.590  -1.880  0.00  0.00    -0.023 C 
ATOM      9  C   UNL     1       4.066   1.817  -2.338  0.00  0.00    -0.030 C 
ATOM     10  C   UNL     1       2.920   2.741  -1.920  0.00  0.00    +0.033 C 
ATOM     11  C   UNL     1       1.774   1.737  -1.778  0.00  0.00    +0.029 C 
ATOM     12  C   UNL     1       0.683   2.099  -0.786  0.00  0.00    +0.105 C 
ATOM     13  N   UNL     1      -0.183   0.904  -0.690  0.00  0.00    -0.336 N 
ATOM     14  H   UNL     1      -1.137   1.017  -0.557  0.00  0.00    +0.147 HD
ENDROOT
BRANCH  12  15
ATOM     15  C   UNL     1       1.285   2.415   0.558  0.00  0.00    -0.027 A 
ATOM     16  C   UNL     1       1.432   1.415   1.502  0.00  0.00    +0.006 A 
ATOM     17  C   UNL     1       1.988   1.704   2.734  0.00  0.00    +0.004 A 
ATOM     18  C   UNL     1       2.390   2.994   3.026  0.00  0.00    -0.045 A 
ATOM     19  C   UNL     1       2.238   3.995   2.084  0.00  0.00    +0.004 A 
ATOM     20  C   UNL     1       1.685   3.705   0.851  0.00  0.00    +0.006 A 
BRANCH  18  21
ATOM     21  C   UNL     1       2.993   3.309   4.370  0.00  0.00    +0.013 C 
ATOM     22  C   UNL     1       1.985   2.977   5.472  0.00  0.00    +0.012 C 
ATOM     23  C   UNL     1       4.260   2.474   4.570  0.00  0.00    +0.012 C 
ENDBRANCH  18  21
ENDBRANCH  12  15
BRANCH   1  24
ATOM     24  S   UNL     1       1.977  -4.605  -1.183  0.00  0.00    +0.072 S 
ATOM     25  O   UNL     1       0.884  -5.425  -1.573  0.00  0.00    -0.150 OA
ATOM     26  O   UNL     1       3.169  -4.509  -1.951  0.00  0.00    -0.150 OA
BRANCH  24  27
ATOM     27  N   UNL     1       2.427  -5.104   0.330  0.00  0.00    -0.216 N 
ATOM     28  H   UNL     1       3.350  -5.348   0.506  0.00  0.00    +0.174 HD
BRANCH  27  33
ATOM     29  C   UNL     1      -1.422  -5.389   4.485  0.00  0.00    +0.044 C 
ATOM     30  C   UNL     1      -0.399  -5.313   3.380  0.00  0.00    -0.050 A 
ATOM     31  C   UNL     1      -0.774  -5.567   2.074  0.00  0.00    +0.005 A 
ATOM     32  C   UNL     1       0.161  -5.498   1.060  0.00  0.00    +0.025 A 
ATOM     33  C   UNL     1       1.479  -5.173   1.353  0.00  0.00    +0.051 A 
ATOM     34  C   UNL     1       1.853  -4.923   2.667  0.00  0.00    -0.028 A 
ATOM     35  C   UNL     1       0.912  -4.989   3.676  0.00  0.00    +0.008 A 
ATOM     36  C   UNL     1       3.284  -4.576   2.991  0.00  0.00    +0.046 C 
ENDBRANCH  27  33
ENDBRANCH  24  27
ENDBRANCH   1  24
TORSDOF 5
