REMARK  Name = ZINC15135219
REMARK  14 active torsions:
REMARK  status: ('A' for Active; 'I' for Inactive)
REMARK    1  A    between atoms: C_4  and  N_24
REMARK    2  A    between atoms: C_5  and  N_7
REMARK    3  A    between atoms: N_7  and  C_8
REMARK    4  A    between atoms: C_10  and  O_23
REMARK    5  A    between atoms: C_12  and  O_22
REMARK    6  A    between atoms: C_14  and  O_21
REMARK    7  A    between atoms: C_16  and  C_19
REMARK    8  A    between atoms: C_19  and  O_20
REMARK    9  A    between atoms: N_24  and  C_25
REMARK   10  A    between atoms: C_27  and  O_40
REMARK   11  A    between atoms: C_29  and  O_39
REMARK   12  A    between atoms: C_31  and  O_38
REMARK   13  A    between atoms: C_33  and  C_36
REMARK   14  A    between atoms: C_36  and  O_37
REMARK                            x       y       z     vdW  Elec       q    Type
REMARK                         _______ _______ _______ _____ _____    ______ ____
ROOT
ATOM      1  C   UNL     1       0.056   1.369   0.718  0.00  0.00    +0.002 A 
ATOM      2  C   UNL     1       1.254   2.060   0.723  0.00  0.00    +0.002 A 
ATOM      3  C   UNL     1       2.441   1.396   0.473  0.00  0.00    +0.025 A 
ATOM      4  C   UNL     1       2.433   0.034   0.217  0.00  0.00    +0.050 A 
ATOM      5  C   UNL     1       1.225  -0.663   0.211  0.00  0.00    +0.050 A 
ATOM      6  C   UNL     1       0.039   0.010   0.463  0.00  0.00    +0.025 A 
ENDROOT
BRANCH   5   7
ATOM      7  N   UNL     1       1.209  -2.039  -0.048  0.00  0.00    -0.316 N 
ATOM      8  H   UNL     1       2.039  -2.509  -0.223  0.00  0.00    +0.149 HD
BRANCH   7   9
ATOM      9  C   UNL     1      -0.061  -2.770  -0.053  0.00  0.00    +0.235 C 
ATOM     10  C   UNL     1      -0.011  -3.873  -1.113  0.00  0.00    +0.192 C 
ATOM     11  C   UNL     1       1.096  -4.868  -0.752  0.00  0.00    +0.178 C 
ATOM     12  C   UNL     1       0.831  -5.422   0.651  0.00  0.00    +0.177 C 
ATOM     13  C   UNL     1       0.749  -4.259   1.643  0.00  0.00    +0.177 C 
ATOM     14  O   UNL     1      -0.279  -3.356   1.232  0.00  0.00    -0.348 OA
BRANCH  12  15
ATOM     15  O   UNL     1      -0.403  -6.143   0.655  0.00  0.00    -0.386 OA
ATOM     16  H   UNL     1      -0.423  -6.892   0.044  0.00  0.00    +0.210 HD
ENDBRANCH  12  15
BRANCH  11  17
ATOM     17  O   UNL     1       1.102  -5.939  -1.698  0.00  0.00    -0.386 OA
ATOM     18  H   UNL     1       1.258  -5.658  -2.610  0.00  0.00    +0.210 HD
ENDBRANCH  11  17
BRANCH  10  19
ATOM     19  O   UNL     1       0.263  -3.295  -2.391  0.00  0.00    -0.385 OA
ATOM     20  H   UNL     1      -0.397  -2.650  -2.681  0.00  0.00    +0.210 HD
ENDBRANCH  10  19
BRANCH  13  21
ATOM     21  C   UNL     1       0.425  -4.800   3.038  0.00  0.00    +0.190 C 
BRANCH  21  22
ATOM     22  O   UNL     1       0.463  -3.731   3.984  0.00  0.00    -0.392 OA
ATOM     23  H   UNL     1       0.267  -4.001   4.892  0.00  0.00    +0.210 HD
ENDBRANCH  21  22
ENDBRANCH  13  21
ENDBRANCH   7   9
ENDBRANCH   5   7
BRANCH   4  24
ATOM     24  N   UNL     1       3.633  -0.640  -0.037  0.00  0.00    -0.316 N 
ATOM     25  H   UNL     1       3.637  -1.606  -0.133  0.00  0.00    +0.149 HD
BRANCH  24  26
ATOM     26  C   UNL     1       4.885   0.112  -0.156  0.00  0.00    +0.235 C 
ATOM     27  C   UNL     1       5.796  -0.571  -1.179  0.00  0.00    +0.192 C 
ATOM     28  C   UNL     1       7.125   0.186  -1.253  0.00  0.00    +0.178 C 
ATOM     29  C   UNL     1       7.752   0.234   0.143  0.00  0.00    +0.177 C 
ATOM     30  C   UNL     1       6.765   0.886   1.116  0.00  0.00    +0.177 C 
ATOM     31  O   UNL     1       5.540   0.150   1.114  0.00  0.00    -0.348 OA
BRANCH  29  32
ATOM     32  O   UNL     1       8.047  -1.095   0.580  0.00  0.00    -0.386 OA
ATOM     33  H   UNL     1       8.664  -1.569   0.006  0.00  0.00    +0.210 HD
ENDBRANCH  29  32
BRANCH  28  34
ATOM     34  O   UNL     1       6.891   1.517  -1.720  0.00  0.00    -0.386 OA
ATOM     35  H   UNL     1       6.489   1.561  -2.598  0.00  0.00    +0.210 HD
ENDBRANCH  28  34
BRANCH  27  36
ATOM     36  O   UNL     1       5.166  -0.560  -2.461  0.00  0.00    -0.385 OA
ATOM     37  H   UNL     1       4.316  -1.020  -2.486  0.00  0.00    +0.210 HD
ENDBRANCH  27  36
BRANCH  30  38
ATOM     38  C   UNL     1       7.360   0.883   2.525  0.00  0.00    +0.190 C 
BRANCH  38  39
ATOM     39  O   UNL     1       6.492   1.594   3.410  0.00  0.00    -0.392 OA
ATOM     40  H   UNL     1       6.808   1.632   4.323  0.00  0.00    +0.210 HD
ENDBRANCH  38  39
ENDBRANCH  30  38
ENDBRANCH  24  26
ENDBRANCH   4  24
TORSDOF 14
