REMARK  Name = ZINC10150100
REMARK  13 active torsions:
REMARK  status: ('A' for Active; 'I' for Inactive)
REMARK    1  A    between atoms: C_1  and  C_2
REMARK    2  A    between atoms: C_2  and  C_3
REMARK    3  A    between atoms: C_4  and  C_29
REMARK    4  A    between atoms: C_6  and  N_11
REMARK    5  A    between atoms: C_7  and  C_8
REMARK    6  A    between atoms: N_11  and  C_12
REMARK    7  A    between atoms: C_12  and  N_14
REMARK    8  A    between atoms: C_15  and  C_17
REMARK    9  A    between atoms: C_20  and  O_23
REMARK   10  A    between atoms: O_23  and  C_24
REMARK   11  A    between atoms: C_24  and  C_26
REMARK   12  A    between atoms: C_24  and  C_27
REMARK   13  A    between atoms: C_27  and  C_28
REMARK                            x       y       z     vdW  Elec       q    Type
REMARK                         _______ _______ _______ _____ _____    ______ ____
ROOT
ATOM      1  C   UNL     1      -0.925   3.583  -0.172  0.00  0.00    +0.141 C 
ATOM      2  S   UNL     1       0.644   4.214   0.096  0.00  0.00    -0.018 S 
ENDROOT
BRANCH   1   3
ATOM      3  N   UNL     1      -1.992   4.406  -0.164  0.00  0.00    -0.264 N 
ATOM      4  C   UNL     1      -1.824   5.726   0.053  0.00  0.00    +0.250 C 
ATOM      5  O   UNL     1      -0.710   6.173   0.243  0.00  0.00    -0.270 OA
ATOM      6  H   UNL     1      -2.881   4.049  -0.316  0.00  0.00    +0.157 HD
BRANCH   4   7
ATOM      7  C   UNL     1      -2.993   6.627   0.061  0.00  0.00    +0.037 A 
ATOM      8  C   UNL     1      -4.274   6.114  -0.163  0.00  0.00    +0.016 A 
ATOM      9  C   UNL     1      -5.362   6.958  -0.149  0.00  0.00    +0.046 A 
ATOM     10  C   UNL     1      -5.187   8.318   0.075  0.00  0.00    +0.121 A 
ATOM     11  C   UNL     1      -3.914   8.832   0.293  0.00  0.00    +0.046 A 
ATOM     12  C   UNL     1      -2.821   7.995   0.287  0.00  0.00    +0.016 A 
BRANCH  10  13
ATOM     13  O   UNL     1      -6.261   9.147   0.082  0.00  0.00    -0.489 OA
BRANCH  13  14
ATOM     14  C   UNL     1      -6.000  10.547   0.199  0.00  0.00    +0.170 C 
ATOM     15  C   UNL     1      -5.853  10.917   1.676  0.00  0.00    +0.052 C 
BRANCH  14  16
ATOM     16  C   UNL     1      -7.161  11.335  -0.411  0.00  0.00    +0.041 C 
ATOM     17  C   UNL     1      -7.230  11.060  -1.914  0.00  0.00    +0.007 C 
ENDBRANCH  14  16
ENDBRANCH  13  14
ENDBRANCH  10  13
ENDBRANCH   4   7
ENDBRANCH   1   3
BRANCH   1  18
ATOM     18  N   UNL     1      -1.093   2.264  -0.389  0.00  0.00    -0.291 N 
ATOM     19  H   UNL     1      -1.982   1.907  -0.541  0.00  0.00    +0.154 HD
BRANCH  18  23
ATOM     20  C   UNL     1       1.330  -0.592  -0.561  0.00  0.00    -0.024 A 
ATOM     21  C   UNL     1       2.394   0.198  -0.330  0.00  0.00    -0.008 A 
ATOM     22  S   UNL     1       1.673   1.818  -0.161  0.00  0.00    -0.078 S 
ATOM     23  C   UNL     1       0.005   1.418  -0.397  0.00  0.00    +0.084 A 
ATOM     24  C   UNL     1       0.034   0.043  -0.601  0.00  0.00    +0.068 A 
ATOM     25  C   UNL     1       3.846  -0.193  -0.235  0.00  0.00    +0.052 C 
BRANCH  24  26
ATOM     26  C   UNL     1      -1.191  -0.724  -0.846  0.00  0.00    +0.244 C 
ATOM     27  O   UNL     1      -1.590  -0.887  -1.984  0.00  0.00    -0.270 OA
ATOM     28  N   UNL     1      -1.875  -1.250   0.190  0.00  0.00    -0.325 N 
ATOM     29  H   UNL     1      -1.556  -1.121   1.097  0.00  0.00    +0.145 HD
ATOM     30  H   UNL     1      -2.685  -1.758   0.028  0.00  0.00    +0.145 HD
ENDBRANCH  24  26
BRANCH  20  32
ATOM     31  C   UNL     1       1.686  -2.365  -2.257  0.00  0.00    +0.009 C 
ATOM     32  C   UNL     1       1.484  -2.076  -0.768  0.00  0.00    +0.033 C 
ENDBRANCH  20  32
ENDBRANCH  18  23
ENDBRANCH   1  18
TORSDOF 9
