REMARK  Name = ZINC36629258
REMARK  9 active torsions:
REMARK  status: ('A' for Active; 'I' for Inactive)
REMARK    1  A    between atoms: C_1  and  C_2
REMARK    2  A    between atoms: C_2  and  O_3
REMARK    3  A    between atoms: O_3  and  C_4
REMARK    4  A    between atoms: C_4  and  C_6
REMARK    5  A    between atoms: C_10  and  N_11
REMARK    6  A    between atoms: C_12  and  C_14
REMARK    7  A    between atoms: N_23  and  C_26
REMARK    8  A    between atoms: C_26  and  C_27
REMARK    9  A    between atoms: C_26  and  C_28
REMARK                            x       y       z     vdW  Elec       q    Type
REMARK                         _______ _______ _______ _____ _____    ______ ____
ROOT
ATOM      1  C   UNL     1       1.456  -2.274  -2.585  0.00  0.00    +0.091 A 
ATOM      2  C   UNL     1       2.876  -2.567  -2.568  0.00  0.00    -0.025 A 
ATOM      3  C   UNL     1       3.354  -3.073  -3.727  0.00  0.00    -0.021 A 
ATOM      4  S   UNL     1       1.947  -3.154  -4.793  0.00  0.00    -0.079 S 
ATOM      5  C   UNL     1       0.769  -2.549  -3.760  0.00  0.00    +0.086 A 
ATOM      6  C   UNL     1       4.772  -3.463  -4.003  0.00  0.00    -0.035 C 
ATOM      7  N   UNL     1       5.628  -2.861  -2.964  0.00  0.00    +0.384 N 
ATOM      8  C   UNL     1       5.082  -3.169  -1.635  0.00  0.00    -0.073 C 
ATOM      9  C   UNL     1       3.809  -2.352  -1.385  0.00  0.00    +0.018 C 
ATOM     10  H   UNL     1       5.657  -1.861  -3.091  0.00  0.00    -0.081 HD
ENDROOT
BRANCH   5  11
ATOM     11  N   UNL     1      -0.579  -2.363  -4.021  0.00  0.00    -0.275 N 
ATOM     12  C   UNL     1      -1.082  -2.688  -5.228  0.00  0.00    +0.250 C 
ATOM     13  O   UNL     1      -0.354  -3.143  -6.088  0.00  0.00    -0.270 OA
ATOM     14  H   UNL     1      -1.160  -2.000  -3.334  0.00  0.00    +0.156 HD
BRANCH  12  15
ATOM     15  C   UNL     1      -2.519  -2.490  -5.506  0.00  0.00    +0.056 A 
ATOM     16  C   UNL     1      -3.358  -1.962  -4.522  0.00  0.00    +0.029 A 
ATOM     17  C   UNL     1      -4.700  -1.781  -4.789  0.00  0.00    +0.019 A 
ATOM     18  C   UNL     1      -5.215  -2.120  -6.029  0.00  0.00    +0.017 A 
ATOM     19  C   UNL     1      -4.391  -2.643  -7.008  0.00  0.00    +0.022 A 
ATOM     20  C   UNL     1      -3.045  -2.825  -6.757  0.00  0.00    +0.053 A 
ATOM     21 CL   UNL     1      -2.010  -3.475  -7.990  0.00  0.00    -0.083 Cl
ATOM     22 BR   UNL     1      -5.838  -1.067  -3.458  0.00  0.00    -0.050 Br
ENDBRANCH  12  15
ENDBRANCH   5  11
BRANCH   7  23
ATOM     23  C   UNL     1       6.987  -3.408  -3.073  0.00  0.00    -0.074 C 
ATOM     24  C   UNL     1       7.505  -3.206  -4.498  0.00  0.00    -0.014 C 
ATOM     25  C   UNL     1       7.908  -2.685  -2.088  0.00  0.00    -0.014 C 
ENDBRANCH   7  23
BRANCH   1  26
ATOM     26  C   UNL     1       0.776  -1.719  -1.413  0.00  0.00    +0.342 C 
ATOM     27  O   UNL     1       0.292  -2.463  -0.582  0.00  0.00    -0.245 OA
BRANCH  26  28
ATOM     28  O   UNL     1       0.686  -0.382  -1.256  0.00  0.00    -0.461 OA
BRANCH  28  30
ATOM     29  C   UNL     1       0.007   1.620  -0.085  0.00  0.00    +0.048 C 
ATOM     30  C   UNL     1       0.009   0.090  -0.090  0.00  0.00    +0.229 C 
ENDBRANCH  28  30
ENDBRANCH  26  28
ENDBRANCH   1  26
TORSDOF 6
