REMARK  Name = ZINC39435972
REMARK  11 active torsions:
REMARK  status: ('A' for Active; 'I' for Inactive)
REMARK    1  A    between atoms: C_1  and  C_2
REMARK    2  A    between atoms: C_6  and  C_12
REMARK    3  A    between atoms: C_10  and  C_11
REMARK    4  A    between atoms: C_12  and  C_33
REMARK    5  A    between atoms: C_13  and  C_14
REMARK    6  A    between atoms: C_16  and  O_31
REMARK    7  A    between atoms: C_17  and  O_23
REMARK    8  A    between atoms: C_19  and  N_20
REMARK    9  A    between atoms: O_23  and  C_24
REMARK   10  A    between atoms: C_24  and  C_25
REMARK   11  A    between atoms: O_31  and  C_32
REMARK                            x       y       z     vdW  Elec       q    Type
REMARK                         _______ _______ _______ _____ _____    ______ ____
ROOT
ATOM      1  C   UNL     1      -2.263  -7.133  -2.771  0.00  0.00    +0.010 A 
ATOM      2  C   UNL     1      -3.516  -6.604  -2.441  0.00  0.00    +0.059 A 
ATOM      3  C   UNL     1      -4.663  -7.204  -2.920  0.00  0.00    +0.162 A 
ATOM      4  C   UNL     1      -4.572  -8.335  -3.731  0.00  0.00    +0.165 A 
ATOM      5  C   UNL     1      -3.329  -8.861  -4.059  0.00  0.00    +0.082 A 
ATOM      6  C   UNL     1      -2.179  -8.264  -3.589  0.00  0.00    +0.137 A 
ENDROOT
BRANCH   6   7
ATOM      7  N   UNL     1      -0.856  -8.824  -3.945  0.00  0.00    +0.057 N 
ATOM      8  O   UNL     1      -0.785  -9.864  -4.559  0.00  0.00    -0.126 OA
ATOM      9  O   UNL     1       0.153  -8.242  -3.623  0.00  0.00    -0.126 OA
ENDBRANCH   6   7
BRANCH   1  11
ATOM     10  C   UNL     1      -0.973  -5.155  -2.143  0.00  0.00    +0.072 C 
ATOM     11  C   UNL     1      -1.037  -6.498  -2.263  0.00  0.00    +0.028 C 
BRANCH  10  17
ATOM     12  C   UNL     1       1.676   1.311  -2.111  0.00  0.00    +0.044 C 
ATOM     13  C   UNL     1       1.160  -0.015  -1.615  0.00  0.00    -0.045 A 
ATOM     14  C   UNL     1       1.347  -1.109  -2.380  0.00  0.00    +0.031 A 
ATOM     15  C   UNL     1       0.853  -2.412  -1.915  0.00  0.00    +0.061 A 
ATOM     16  N   UNL     1       0.890  -3.608  -2.429  0.00  0.00    -0.359 N 
ATOM     17  C   UNL     1       0.222  -4.513  -1.486  0.00  0.00    +0.216 C 
ATOM     18  N   UNL     1      -0.210  -3.686  -0.353  0.00  0.00    -0.359 N 
ATOM     19  C   UNL     1       0.156  -2.462  -0.601  0.00  0.00    +0.061 A 
ATOM     20  C   UNL     1       0.010  -1.205   0.146  0.00  0.00    +0.031 A 
ATOM     21  C   UNL     1       0.506  -0.063  -0.371  0.00  0.00    -0.045 A 
ATOM     22  C   UNL     1       0.350   1.214   0.414  0.00  0.00    +0.044 C 
ATOM     23  H   UNL     1       1.286  -3.855  -3.279  0.00  0.00    +0.162 HD
ATOM     24  H   UNL     1      -0.682  -3.995   0.436  0.00  0.00    +0.162 HD
ENDBRANCH  10  17
BRANCH  10  25
ATOM     25  C   UNL     1      -2.040  -4.340  -2.641  0.00  0.00    +0.099 C 
ATOM     26  N   UNL     1      -2.887  -3.693  -3.035  0.00  0.00    -0.191 NA
ENDBRANCH  10  25
ENDBRANCH   1  11
BRANCH   3  27
ATOM     27  O   UNL     1      -5.882  -6.693  -2.601  0.00  0.00    -0.491 OA
ATOM     28  C   UNL     1      -5.901  -5.534  -1.766  0.00  0.00    +0.277 C 
ENDBRANCH   3  27
BRANCH   4  29
ATOM     29  O   UNL     1      -5.702  -8.924  -4.202  0.00  0.00    -0.484 OA
BRANCH  29  30
ATOM     30  C   UNL     1      -5.536 -10.079  -5.027  0.00  0.00    +0.264 C 
BRANCH  30  31
ATOM     31  C   UNL     1      -6.888 -10.591  -5.451  0.00  0.00    -0.010 A 
ATOM     32  C   UNL     1      -7.551 -11.521  -4.672  0.00  0.00    +0.007 A 
ATOM     33  C   UNL     1      -8.791 -11.991  -5.061  0.00  0.00    +0.000 A 
ATOM     34  C   UNL     1      -9.369 -11.530  -6.229  0.00  0.00    +0.000 A 
ATOM     35  C   UNL     1      -8.707 -10.600  -7.008  0.00  0.00    +0.000 A 
ATOM     36  C   UNL     1      -7.469 -10.127  -6.617  0.00  0.00    +0.007 A 
ENDBRANCH  30  31
ENDBRANCH  29  30
ENDBRANCH   4  29
TORSDOF 8
