REMARK  Name = ZINC38587368
REMARK  5 active torsions:
REMARK  status: ('A' for Active; 'I' for Inactive)
REMARK    1  A    between atoms: C_1  and  C_2
REMARK    2  A    between atoms: C_4  and  C_24
REMARK    3  A    between atoms: C_27  and  C_30
REMARK    4  A    between atoms: C_30  and  C_31
REMARK    5  A    between atoms: C_30  and  C_32
REMARK                            x       y       z     vdW  Elec       q    Type
REMARK                         _______ _______ _______ _____ _____    ______ ____
ROOT
ATOM      1  C   UNL     1      -0.029   1.507  -0.034  0.00  0.00    +0.062 C 
ATOM      2  C   UNL     1      -0.005   0.000  -0.041  0.00  0.00    +0.022 C 
ATOM      3  C   UNL     1      -1.064  -0.751   0.073  0.00  0.00    -0.004 C 
ATOM      4  C   UNL     1      -2.496  -0.389   0.386  0.00  0.00    +0.059 C 
ATOM      5  C   UNL     1      -2.843  -1.100   1.702  0.00  0.00    +0.108 C 
ATOM      6  C   UNL     1      -2.229  -2.461   1.776  0.00  0.00    +0.216 C 
ATOM      7  O   UNL     1      -2.730  -3.233   2.565  0.00  0.00    -0.276 OA
ATOM      8  N   UNL     1      -1.194  -2.923   1.073  0.00  0.00    -0.292 N 
ATOM      9  C   UNL     1      -0.624  -2.200  -0.056  0.00  0.00    +0.210 C 
ATOM     10  N   UNL     1       0.838  -2.128  -0.018  0.00  0.00    -0.213 N 
ATOM     11  N   UNL     1       1.145  -0.763  -0.174  0.00  0.00    -0.265 N 
ATOM     12  C   UNL     1       1.704  -3.151   0.129  0.00  0.00    +0.150 C 
ATOM     13  N   UNL     1       1.281  -4.396   0.256  0.00  0.00    -0.221 NA
ATOM     14  C   UNL     1       2.084  -5.433   0.467  0.00  0.00    +0.225 C 
ATOM     15  N   UNL     1       3.336  -5.290   0.885  0.00  0.00    -0.218 NA
ATOM     16  C   UNL     1       3.768  -4.039   1.016  0.00  0.00    +0.164 C 
ATOM     17  N   UNL     1       4.611  -3.447   1.808  0.00  0.00    -0.219 NA
ATOM     18  C   UNL     1       4.441  -2.118   1.793  0.00  0.00    +0.218 C 
ATOM     19  N   UNL     1       3.601  -1.718   0.879  0.00  0.00    -0.253 NA
ATOM     20  C   UNL     1       3.191  -2.919   0.148  0.00  0.00    +0.239 C 
ATOM     21  H   UNL     1      -0.805  -3.775   1.324  0.00  0.00    +0.151 HD
ATOM     22  H   UNL     1       2.031  -0.408  -0.348  0.00  0.00    +0.170 HD
ENDROOT
BRANCH   4  23
ATOM     23  C   UNL     1      -2.629   1.103   0.551  0.00  0.00    -0.040 A 
ATOM     24  C   UNL     1      -2.375   1.688   1.777  0.00  0.00    +0.004 A 
ATOM     25  C   UNL     1      -2.497   3.057   1.928  0.00  0.00    +0.004 A 
ATOM     26  C   UNL     1      -2.872   3.841   0.853  0.00  0.00    -0.045 A 
ATOM     27  C   UNL     1      -3.125   3.256  -0.373  0.00  0.00    +0.004 A 
ATOM     28  C   UNL     1      -2.999   1.888  -0.526  0.00  0.00    +0.004 A 
BRANCH  26  29
ATOM     29  C   UNL     1      -3.006   5.333   1.018  0.00  0.00    +0.013 C 
ATOM     30  C   UNL     1      -2.039   6.040   0.066  0.00  0.00    +0.012 C 
ATOM     31  C   UNL     1      -4.440   5.755   0.696  0.00  0.00    +0.012 C 
ENDBRANCH  26  29
ENDBRANCH   4  23
TORSDOF 2
