REMARK  Name = ZINC44975187
REMARK  3 active torsions:
REMARK  status: ('A' for Active; 'I' for Inactive)
REMARK    1  A    between atoms: C_15  and  C_17
REMARK    2  A    between atoms: C_23  and  C_25
REMARK    3  A    between atoms: N_27  and  C_28
REMARK                            x       y       z     vdW  Elec       q    Type
REMARK                         _______ _______ _______ _____ _____    ______ ____
ROOT
ATOM      1  C   UNL     1       4.377  -5.570   1.692  0.00  0.00    +0.087 C 
ATOM      2  C   UNL     1       5.494  -5.616   0.647  0.00  0.00    +0.013 C 
ATOM      3  C   UNL     1       6.851  -5.525   1.347  0.00  0.00    +0.001 C 
ATOM      4  C   UNL     1       7.007  -6.701   2.313  0.00  0.00    +0.001 C 
ATOM      5  C   UNL     1       5.890  -6.655   3.357  0.00  0.00    +0.013 C 
ATOM      6  C   UNL     1       4.533  -6.747   2.657  0.00  0.00    +0.087 C 
ENDROOT
BRANCH   1  21
ATOM      7  C   UNL     1      -0.347   1.045  -0.330  0.00  0.00    +0.001 A 
ATOM      8  C   UNL     1       0.812   1.808  -0.368  0.00  0.00    +0.002 A 
ATOM      9  C   UNL     1       2.050   1.205  -0.361  0.00  0.00    +0.026 A 
ATOM     10  C   UNL     1       2.144  -0.182  -0.315  0.00  0.00    +0.047 A 
ATOM     11  C   UNL     1       0.966  -0.952  -0.276  0.00  0.00    +0.003 A 
ATOM     12  C   UNL     1      -0.279  -0.319  -0.284  0.00  0.00    +0.010 A 
ATOM     13  C   UNL     1       1.401  -2.345  -0.232  0.00  0.00    -0.016 A 
ATOM     14  C   UNL     1       2.748  -2.344  -0.249  0.00  0.00    +0.038 A 
ATOM     15  N   UNL     1       3.207  -1.058  -0.297  0.00  0.00    -0.356 N 
ATOM     16  H   UNL     1       4.142  -0.801  -0.315  0.00  0.00    +0.166 HD
ATOM     17  C   UNL     1       3.583  -3.605  -0.223  0.00  0.00    +0.161 C 
ATOM     18  N   UNL     1       2.682  -4.724   0.101  0.00  0.00    -0.295 N 
ATOM     19  C   UNL     1       1.381  -4.794  -0.582  0.00  0.00    +0.113 C 
ATOM     20  C   UNL     1       0.538  -3.579  -0.174  0.00  0.00    +0.056 C 
ATOM     21  C   UNL     1       3.040  -5.660   1.002  0.00  0.00    +0.220 C 
ATOM     22  O   UNL     1       2.286  -6.575   1.258  0.00  0.00    -0.275 OA
ENDBRANCH   1  21
BRANCH   6  23
ATOM     23  C   UNL     1       3.433  -6.701   3.686  0.00  0.00    +0.217 C 
ATOM     24  O   UNL     1       2.605  -5.815   3.651  0.00  0.00    -0.275 OA
ATOM     25  N   UNL     1       3.368  -7.645   4.646  0.00  0.00    -0.304 N 
ATOM     26  H   UNL     1       4.030  -8.354   4.675  0.00  0.00    +0.149 HD
BRANCH  25  27
ATOM     27  C   UNL     1       2.299  -7.601   5.646  0.00  0.00    +0.159 C 
ATOM     28  C   UNL     1       2.662  -8.504   6.828  0.00  0.00    +0.032 C 
ATOM     29  C   UNL     1       3.425  -9.728   6.354  0.00  0.00    +0.004 C 
ATOM     30  C   UNL     1       2.598 -10.675   5.503  0.00  0.00    +0.019 C 
ATOM     31  C   UNL     1       2.231 -10.026   4.167  0.00  0.00    +0.104 C 
ATOM     32  N   UNL     1       0.994  -9.248   4.346  0.00  0.00    -0.314 N 
ATOM     33  C   UNL     1       1.008  -8.101   5.033  0.00  0.00    +0.233 C 
ATOM     34  O   UNL     1      -0.014  -7.463   5.172  0.00  0.00    -0.274 OA
ATOM     35  H   UNL     1       0.164  -9.567   3.960  0.00  0.00    +0.149 HD
ENDBRANCH  25  27
ENDBRANCH   6  23
TORSDOF 3
