REMARK  Name = ZINC38802811
REMARK  4 active torsions:
REMARK  status: ('A' for Active; 'I' for Inactive)
REMARK    1  A    between atoms: C_1  and  C_2
REMARK    2  A    between atoms: N_4  and  C_5
REMARK    3  A    between atoms: C_8  and  N_11
REMARK    4  A    between atoms: N_11  and  C_12
REMARK                            x       y       z     vdW  Elec       q    Type
REMARK                         _______ _______ _______ _____ _____    ______ ____
ROOT
ATOM      1  C   UNL     1      -0.272  -7.008  -2.220  0.00  0.00    +0.189 C 
ATOM      2  C   UNL     1      -1.037  -8.292  -1.974  0.00  0.00    -0.001 C 
ATOM      3  C   UNL     1      -0.357  -9.483  -2.184  0.00  0.00    +0.013 A 
ATOM      4  C   UNL     1      -1.022 -10.769  -1.969  0.00  0.00    +0.032 A 
ATOM      5  C   UNL     1      -0.316 -11.935  -2.187  0.00  0.00    +0.012 A 
ATOM      6  C   UNL     1       1.016 -11.891  -2.608  0.00  0.00    +0.003 A 
ATOM      7  C   UNL     1       1.680 -10.728  -2.822  0.00  0.00    +0.024 A 
ATOM      8  C   UNL     1       1.042  -9.478  -2.627  0.00  0.00    +0.042 A 
ATOM      9  N   UNL     1       1.702  -8.343  -2.839  0.00  0.00    -0.283 N 
ATOM     10  C   UNL     1       1.166  -7.143  -2.673  0.00  0.00    +0.242 C 
ATOM     11  O   UNL     1       1.831  -6.148  -2.887  0.00  0.00    -0.273 OA
ATOM     12  C   UNL     1      -2.429 -10.773  -1.525  0.00  0.00    +0.194 C 
ATOM     13  O   UNL     1      -3.022 -11.817  -1.332  0.00  0.00    -0.287 OA
ATOM     14  C   UNL     1      -3.094  -9.467  -1.319  0.00  0.00    +0.030 A 
ATOM     15  C   UNL     1      -2.382  -8.268  -1.548  0.00  0.00    -0.008 A 
ATOM     16  C   UNL     1      -3.030  -7.040  -1.347  0.00  0.00    +0.009 A 
ATOM     17  C   UNL     1      -4.346  -7.014  -0.931  0.00  0.00    +0.001 A 
ATOM     18  C   UNL     1      -5.038  -8.192  -0.708  0.00  0.00    +0.001 A 
ATOM     19  C   UNL     1      -4.419  -9.417  -0.900  0.00  0.00    +0.012 A 
ATOM     20  H   UNL     1       2.625  -8.397  -3.130  0.00  0.00    +0.155 HD
ENDROOT
BRANCH   1  21
ATOM     21  N   UNL     1      -0.283  -6.231  -0.978  0.00  0.00    -0.329 N 
ATOM     22  H   UNL     1      -0.339  -6.684  -0.122  0.00  0.00    +0.147 HD
BRANCH  21  26
ATOM     23  C   UNL     1      -0.071  -2.071  -1.121  0.00  0.00    +0.033 A 
ATOM     24  C   UNL     1      -0.152  -2.720   0.104  0.00  0.00    +0.025 A 
ATOM     25  C   UNL     1      -0.222  -4.098   0.151  0.00  0.00    +0.025 A 
ATOM     26  C   UNL     1      -0.212  -4.835  -1.026  0.00  0.00    +0.028 A 
ATOM     27  C   UNL     1      -0.131  -4.185  -2.251  0.00  0.00    +0.025 A 
ATOM     28  C   UNL     1      -0.066  -2.807  -2.298  0.00  0.00    +0.025 A 
BRANCH  23  32
ATOM     29  C   UNL     1      -0.617   1.507  -2.165  0.00  0.00    +0.109 C 
ATOM     30  C   UNL     1      -0.604  -0.000  -2.169  0.00  0.00    +0.214 C 
ATOM     31  O   UNL     1      -1.137  -0.609  -3.073  0.00  0.00    -0.276 OA
ATOM     32  N   UNL     1       0.000  -0.672  -1.169  0.00  0.00    -0.286 N 
ATOM     33  H   UNL     1       0.484  -0.187  -0.482  0.00  0.00    +0.155 HD
ENDBRANCH  23  32
ENDBRANCH  21  26
ENDBRANCH   1  21
TORSDOF 3
