REMARK  Name = ZINC12291134
REMARK  6 active torsions:
REMARK  status: ('A' for Active; 'I' for Inactive)
REMARK    1  A    between atoms: C_1  and  C_2
REMARK    2  A    between atoms: C_5  and  S_12
REMARK    3  A    between atoms: S_12  and  N_15
REMARK    4  A    between atoms: N_15  and  C_16
REMARK    5  A    between atoms: C_19  and  N_22
REMARK    6  A    between atoms: N_23  and  C_24
REMARK                            x       y       z     vdW  Elec       q    Type
REMARK                         _______ _______ _______ _____ _____    ______ ____
ROOT
ATOM      1  N   UNL     1      -1.127   2.092   0.021  0.00  0.00    -0.216 N 
ATOM      2  H   UNL     1      -1.789   1.808  -0.628  0.00  0.00    +0.174 HD
ENDROOT
BRANCH   1   3
ATOM      3  C   UNL     1       0.139   1.511   0.026  0.00  0.00    +0.048 A 
ATOM      4  C   UNL     1       1.271   2.316   0.112  0.00  0.00    +0.026 A 
ATOM      5  C   UNL     1       2.524   1.746   0.111  0.00  0.00    +0.031 A 
ATOM      6  C   UNL     1       2.658   0.356   0.023  0.00  0.00    +0.086 A 
ATOM      7  C   UNL     1       1.517  -0.449  -0.063  0.00  0.00    +0.031 A 
ATOM      8  C   UNL     1       0.268   0.128  -0.062  0.00  0.00    +0.026 A 
BRANCH   6   9
ATOM      9  N   UNL     1       3.898  -0.213   0.022  0.00  0.00    -0.149 NA
ATOM     10  N   UNL     1       4.949   0.531   0.102  0.00  0.00    -0.149 NA
BRANCH  10  11
ATOM     11  C   UNL     1       6.192  -0.039   0.101  0.00  0.00    +0.086 A 
ATOM     12  C   UNL     1       6.327  -1.428   0.020  0.00  0.00    +0.029 A 
ATOM     13  C   UNL     1       7.584  -1.995   0.015  0.00  0.00    +0.002 A 
ATOM     14  C   UNL     1       8.709  -1.194   0.101  0.00  0.00    +0.000 A 
ATOM     15  C   UNL     1       8.583   0.181   0.187  0.00  0.00    +0.002 A 
ATOM     16  C   UNL     1       7.332   0.763   0.188  0.00  0.00    +0.029 A 
ENDBRANCH  10  11
ENDBRANCH   6   9
ENDBRANCH   1   3
BRANCH   1  17
ATOM     17  S   UNL     1      -1.502   3.268   1.126  0.00  0.00    +0.073 S 
ATOM     18  O   UNL     1      -0.483   4.254   1.031  0.00  0.00    -0.150 OA
ATOM     19  O   UNL     1      -2.878   3.574   0.942  0.00  0.00    -0.150 OA
BRANCH  17  24
ATOM     20  C   UNL     1      -0.940   0.836   6.652  0.00  0.00    +0.044 C 
ATOM     21  C   UNL     1      -1.096   1.425   5.274  0.00  0.00    -0.043 A 
ATOM     22  C   UNL     1      -0.289   2.445   4.870  0.00  0.00    +0.006 A 
ATOM     23  C   UNL     1      -0.419   3.003   3.600  0.00  0.00    +0.030 A 
ATOM     24  C   UNL     1      -1.356   2.545   2.726  0.00  0.00    +0.116 A 
ATOM     25  C   UNL     1      -2.211   1.498   3.108  0.00  0.00    +0.009 A 
ATOM     26  C   UNL     1      -2.075   0.926   4.398  0.00  0.00    -0.013 A 
ATOM     27  C   UNL     1      -2.926  -0.126   4.778  0.00  0.00    +0.009 A 
ATOM     28  C   UNL     1      -3.862  -0.585   3.904  0.00  0.00    +0.001 A 
ATOM     29  C   UNL     1      -3.992  -0.026   2.634  0.00  0.00    +0.001 A 
ATOM     30  C   UNL     1      -3.187   0.994   2.231  0.00  0.00    +0.010 A 
ENDBRANCH  17  24
ENDBRANCH   1  17
TORSDOF 5
