REMARK  Name = ZINC65760476
REMARK  8 active torsions:
REMARK  status: ('A' for Active; 'I' for Inactive)
REMARK    1  A    between atoms: C_1  and  C_2
REMARK    2  A    between atoms: C_4  and  C_26
REMARK    3  A    between atoms: N_6  and  C_8
REMARK    4  A    between atoms: C_8  and  C_9
REMARK    5  A    between atoms: C_9  and  C_10
REMARK    6  A    between atoms: C_9  and  N_11
REMARK    7  A    between atoms: C_12  and  C_14
REMARK    8  A    between atoms: C_14  and  N_15
REMARK                            x       y       z     vdW  Elec       q    Type
REMARK                         _______ _______ _______ _____ _____    ______ ____
ROOT
ATOM      1  N   UNL     1      -0.809  -2.567   3.493  0.00  0.00    -0.313 N 
ATOM      2  C   UNL     1      -1.836  -1.959   4.117  0.00  0.00    +0.233 C 
ATOM      3  O   UNL     1      -1.630  -0.999   4.829  0.00  0.00    -0.274 OA
ATOM      4  H   UNL     1      -0.974  -3.335   2.923  0.00  0.00    +0.149 HD
ENDROOT
BRANCH   1   5
ATOM      5  C   UNL     1       0.557  -2.069   3.673  0.00  0.00    +0.053 C 
ATOM      6  C   UNL     1       1.159  -2.678   4.941  0.00  0.00    +0.026 C 
BRANCH   5   7
ATOM      7  C   UNL     1       1.408  -2.463   2.464  0.00  0.00    -0.057 C 
BRANCH   7  13
ATOM      8  C   UNL     1      -0.019   1.526   0.010  0.00  0.00    +0.005 C 
ATOM      9  C   UNL     1       0.002  -0.004   0.002  0.00  0.00    -0.031 C 
ATOM     10  C   UNL     1       0.724  -0.499  -1.255  0.00  0.00    +0.003 C 
ATOM     11  C   UNL     1       0.808  -2.027  -1.215  0.00  0.00    -0.031 C 
ATOM     12  C   UNL     1       1.518  -2.460   0.070  0.00  0.00    -0.076 C 
ATOM     13  N   UNL     1       0.765  -1.980   1.235  0.00  0.00    +0.381 N 
ATOM     14  C   UNL     1       0.742  -0.512   1.241  0.00  0.00    -0.076 C 
ATOM     15  C   UNL     1       1.595  -2.527  -2.428  0.00  0.00    +0.005 C 
ATOM     16  H   UNL     1      -0.180  -2.330   1.191  0.00  0.00    -0.082 HD
ENDBRANCH   7  13
ENDBRANCH   5   7
ENDBRANCH   1   5
BRANCH   2  17
ATOM     17  C   UNL     1      -3.241  -2.471   3.932  0.00  0.00    +0.221 C 
BRANCH  17  18
ATOM     18  N   UNL     1      -4.169  -1.646   4.710  0.00  0.00    -0.290 N 
ATOM     19  C   UNL     1      -4.452  -1.981   5.995  0.00  0.00    +0.203 A 
ATOM     20  N   UNL     1      -5.262  -1.302   6.748  0.00  0.00    -0.237 NA
ATOM     21  C   UNL     1      -5.893  -0.191   6.293  0.00  0.00    +0.078 A 
ATOM     22  C   UNL     1      -6.765   0.541   7.103  0.00  0.00    +0.028 A 
ATOM     23  C   UNL     1      -7.383   1.663   6.599  0.00  0.00    +0.002 A 
ATOM     24  C   UNL     1      -7.151   2.078   5.294  0.00  0.00    +0.001 A 
ATOM     25  C   UNL     1      -6.295   1.373   4.476  0.00  0.00    +0.015 A 
ATOM     26  C   UNL     1      -5.659   0.235   4.967  0.00  0.00    +0.065 A 
ATOM     27  C   UNL     1      -4.732  -0.554   4.142  0.00  0.00    +0.262 A 
ATOM     28  O   UNL     1      -4.484  -0.240   2.993  0.00  0.00    -0.267 OA
ENDBRANCH  17  18
ENDBRANCH   2  17
TORSDOF 5
