REMARK  Name = ZINC63686524
REMARK  9 active torsions:
REMARK  status: ('A' for Active; 'I' for Inactive)
REMARK    1  A    between atoms: C_1  and  C_2
REMARK    2  A    between atoms: C_2  and  C_3
REMARK    3  A    between atoms: C_3  and  C_4
REMARK    4  A    between atoms: C_3  and  C_6
REMARK    5  A    between atoms: C_4  and  C_5
REMARK    6  A    between atoms: N_8  and  C_9
REMARK    7  A    between atoms: C_16  and  S_19
REMARK    8  A    between atoms: S_19  and  C_20
REMARK    9  A    between atoms: C_20  and  C_21
REMARK                            x       y       z     vdW  Elec       q    Type
REMARK                         _______ _______ _______ _____ _____    ______ ____
ROOT
ATOM      1  C   UNL     1       0.255  -4.136   3.704  0.00  0.00    +0.035 A 
ATOM      2  C   UNL     1      -0.242  -5.043   2.777  0.00  0.00    +0.025 A 
ATOM      3  C   UNL     1      -0.616  -6.310   3.155  0.00  0.00    +0.026 A 
ATOM      4  C   UNL     1      -0.509  -6.735   4.492  0.00  0.00    +0.042 A 
ATOM      5  C   UNL     1      -0.005  -5.802   5.404  0.00  0.00    +0.033 A 
ATOM      6  C   UNL     1       0.376  -4.533   5.031  0.00  0.00    +0.040 A 
ATOM      7  S   UNL     1       0.001  -6.640   6.972  0.00  0.00    -0.090 S 
ATOM      8  C   UNL     1      -0.675  -8.253   6.408  0.00  0.00    +0.193 C 
ATOM      9  N   UNL     1      -0.860  -7.998   4.973  0.00  0.00    -0.323 N 
ATOM     10  H   UNL     1      -1.214  -8.681   4.382  0.00  0.00    +0.148 HD
ENDROOT
BRANCH   1  13
ATOM     11  C   UNL     1      -0.045  -2.216   2.328  0.00  0.00    +0.220 C 
ATOM     12  O   UNL     1      -0.896  -2.810   1.700  0.00  0.00    -0.275 OA
ATOM     13  N   UNL     1       0.633  -2.846   3.308  0.00  0.00    -0.285 N 
ATOM     14  H   UNL     1       1.383  -2.407   3.738  0.00  0.00    +0.155 HD
BRANCH  11  15
ATOM     15  C   UNL     1       0.253  -0.773   2.013  0.00  0.00    +0.075 C 
BRANCH  15  17
ATOM     16  C   UNL     1       0.492   0.901   0.174  0.00  0.00    +0.004 C 
ATOM     17  C   UNL     1       0.070  -0.529   0.514  0.00  0.00    +0.009 C 
ENDBRANCH  15  17
BRANCH  15  18
ATOM     18  C   UNL     1      -0.703   0.129   2.797  0.00  0.00    +0.009 C 
ATOM     19  C   UNL     1      -2.148  -0.233   2.446  0.00  0.00    +0.004 C 
ENDBRANCH  15  18
ENDBRANCH  11  15
ENDBRANCH   1  13
BRANCH   8  20
ATOM     20  S   UNL     1       0.517  -9.592   6.684  0.00  0.00    -0.121 S 
BRANCH  20  21
ATOM     21  C   UNL     1       1.980  -9.079   5.742  0.00  0.00    +0.125 C 
BRANCH  21  22
ATOM     22  C   UNL     1       3.061 -10.119   5.889  0.00  0.00    +0.030 A 
ATOM     23  N   UNL     1       3.742 -10.190   7.058  0.00  0.00    -0.356 N 
ATOM     24  C   UNL     1       4.742 -11.117   7.256  0.00  0.00    +0.069 A 
ATOM     25  C   UNL     1       5.069 -12.014   6.224  0.00  0.00    +0.046 A 
ATOM     26  C   UNL     1       6.080 -12.956   6.412  0.00  0.00    +0.014 A 
ATOM     27  C   UNL     1       6.750 -13.002   7.603  0.00  0.00    +0.002 A 
ATOM     28  C   UNL     1       6.433 -12.120   8.626  0.00  0.00    +0.022 A 
ATOM     29  C   UNL     1       5.436 -11.181   8.461  0.00  0.00    +0.065 A 
ATOM     30 CL   UNL     1       5.051 -10.083   9.750  0.00  0.00    -0.081 Cl
ATOM     31  C   UNL     1       4.322 -11.929   4.957  0.00  0.00    +0.190 A 
ATOM     32  O   UNL     1       4.566 -12.684   4.030  0.00  0.00    -0.287 OA
ATOM     33  C   UNL     1       3.310 -10.946   4.853  0.00  0.00    +0.073 A 
ATOM     34  H   UNL     1       3.520  -9.574   7.773  0.00  0.00    +0.166 HD
ENDBRANCH  21  22
ENDBRANCH  20  21
ENDBRANCH   8  20
TORSDOF 7
