REMARK  Name = ZINC36313124
REMARK  16 active torsions:
REMARK  status: ('A' for Active; 'I' for Inactive)
REMARK    1  A    between atoms: C_1  and  C_2
REMARK    2  A    between atoms: C_2  and  C_3
REMARK    3  A    between atoms: C_2  and  C_4
REMARK    4  A    between atoms: C_11  and  C_15
REMARK    5  A    between atoms: C_15  and  N_16
REMARK    6  A    between atoms: N_16  and  C_17
REMARK    7  A    between atoms: N_16  and  C_22
REMARK    8  A    between atoms: C_17  and  C_18
REMARK    9  A    between atoms: C_18  and  C_19
REMARK   10  A    between atoms: C_19  and  O_20
REMARK   11  A    between atoms: O_20  and  C_21
REMARK   12  A    between atoms: C_22  and  C_23
REMARK   13  A    between atoms: C_23  and  C_25
REMARK   14  A    between atoms: C_23  and  O_34
REMARK   15  A    between atoms: C_25  and  O_26
REMARK   16  A    between atoms: O_26  and  C_27
REMARK                            x       y       z     vdW  Elec       q    Type
REMARK                         _______ _______ _______ _____ _____    ______ ____
ROOT
ATOM      1  N   UNL     1       5.391  -1.488   5.981  0.00  0.00    +0.386 N 
ATOM      2  H   UNL     1       5.592  -0.499   6.005  0.00  0.00    -0.081 HD
ENDROOT
BRANCH   1   3
ATOM      3  C   UNL     1       4.032  -1.724   6.487  0.00  0.00    -0.003 C 
BRANCH   3  11
ATOM      4  C   UNL     1       1.168   2.494   2.722  0.00  0.00    -0.005 A 
ATOM      5  C   UNL     1       0.519   1.657   3.546  0.00  0.00    +0.027 A 
ATOM      6  C   UNL     1       1.283   0.733   4.363  0.00  0.00    +0.072 A 
ATOM      7  C   UNL     1       0.822  -0.243   5.306  0.00  0.00    +0.260 A 
ATOM      8  O   UNL     1      -0.370  -0.387   5.515  0.00  0.00    -0.267 OA
ATOM      9  N   UNL     1       1.726  -0.999   5.956  0.00  0.00    -0.312 N 
ATOM     10  H   UNL     1       1.420  -1.662   6.595  0.00  0.00    +0.170 HD
ATOM     11  C   UNL     1       3.058  -0.854   5.735  0.00  0.00    +0.094 A 
ATOM     12  N   UNL     1       3.510   0.027   4.883  0.00  0.00    -0.229 NA
ATOM     13  C   UNL     1       2.679   0.810   4.202  0.00  0.00    +0.116 A 
ATOM     14  S   UNL     1       2.884   2.085   2.985  0.00  0.00    -0.073 S 
BRANCH   4  16
ATOM     15  C   UNL     1       1.117   4.911   2.170  0.00  0.00    +0.013 C 
ATOM     16  C   UNL     1       0.586   3.527   1.791  0.00  0.00    +0.020 C 
ATOM     17  C   UNL     1       0.990   3.201   0.352  0.00  0.00    +0.013 C 
ENDBRANCH   4  16
ENDBRANCH   3  11
ENDBRANCH   1   3
BRANCH   1  18
ATOM     18  C   UNL     1       5.490  -1.973   4.598  0.00  0.00    -0.076 C 
BRANCH  18  19
ATOM     19  C   UNL     1       5.274  -3.488   4.573  0.00  0.00    +0.009 C 
BRANCH  19  20
ATOM     20  C   UNL     1       5.472  -4.008   3.148  0.00  0.00    +0.157 C 
BRANCH  20  21
ATOM     21  O   UNL     1       5.270  -5.422   3.124  0.00  0.00    -0.383 OA
ATOM     22  C   UNL     1       5.433  -6.011   1.832  0.00  0.00    +0.193 C 
ENDBRANCH  20  21
ENDBRANCH  19  20
ENDBRANCH  18  19
ENDBRANCH   1  18
BRANCH   1  23
ATOM     23  C   UNL     1       6.359  -2.205   6.822  0.00  0.00    -0.043 C 
BRANCH  23  24
ATOM     24  C   UNL     1       7.780  -1.828   6.400  0.00  0.00    +0.135 C 
BRANCH  24  25
ATOM     25  O   UNL     1       8.041  -2.343   5.093  0.00  0.00    -0.390 OA
ATOM     26  H   UNL     1       7.970  -3.306   5.029  0.00  0.00    +0.210 HD
ENDBRANCH  24  25
BRANCH  24  27
ATOM     27  C   UNL     1       8.781  -2.422   7.392  0.00  0.00    +0.258 C 
BRANCH  27  28
ATOM     28  O   UNL     1      10.098  -1.974   7.066  0.00  0.00    -0.489 OA
BRANCH  28  29
ATOM     29  C   UNL     1      11.113  -2.414   7.856  0.00  0.00    +0.121 A 
ATOM     30  C   UNL     1      10.847  -3.263   8.920  0.00  0.00    +0.047 A 
ATOM     31  C   UNL     1      11.880  -3.709   9.722  0.00  0.00    +0.023 A 
ATOM     32  C   UNL     1      13.179  -3.308   9.464  0.00  0.00    +0.041 A 
ATOM     33  C   UNL     1      13.447  -2.461   8.404  0.00  0.00    +0.023 A 
ATOM     34  C   UNL     1      12.417  -2.018   7.596  0.00  0.00    +0.047 A 
ATOM     35 CL   UNL     1      14.476  -3.869  10.473  0.00  0.00    -0.084 Cl
ENDBRANCH  28  29
ENDBRANCH  27  28
ENDBRANCH  24  27
ENDBRANCH  23  24
ENDBRANCH   1  23
TORSDOF 13
