REMARK  Name = ZINC35483375
REMARK  12 active torsions:
REMARK  status: ('A' for Active; 'I' for Inactive)
REMARK    1  A    between atoms: C_1  and  C_2
REMARK    2  A    between atoms: C_2  and  N_3
REMARK    3  A    between atoms: N_3  and  C_4
REMARK    4  A    between atoms: N_3  and  C_6
REMARK    5  A    between atoms: C_4  and  C_5
REMARK    6  A    between atoms: C_6  and  C_7
REMARK    7  A    between atoms: C_7  and  C_8
REMARK    8  A    between atoms: C_8  and  N_9
REMARK    9  A    between atoms: C_10  and  C_25
REMARK   10  A    between atoms: C_29  and  O_31
REMARK   11  A    between atoms: O_31  and  C_32
REMARK   12  A    between atoms: C_32  and  C_33
REMARK                            x       y       z     vdW  Elec       q    Type
REMARK                         _______ _______ _______ _____ _____    ______ ____
ROOT
ATOM      1  N   UNL     1       3.163  -3.820  -1.556  0.00  0.00    -0.284 N 
ATOM      2  C   UNL     1       2.652  -4.124  -2.903  0.00  0.00    +0.145 C 
ATOM      3  C   UNL     1       3.857  -4.260  -3.775  0.00  0.00    +0.072 A 
ATOM      4  C   UNL     1       3.987  -4.565  -5.203  0.00  0.00    +0.199 A 
ATOM      5  O   UNL     1       3.040  -4.594  -5.968  0.00  0.00    -0.287 OA
ATOM      6  C   UNL     1       5.384  -4.836  -5.628  0.00  0.00    +0.064 A 
ATOM      7  C   UNL     1       5.650  -5.334  -6.904  0.00  0.00    +0.015 A 
ATOM      8  C   UNL     1       6.941  -5.583  -7.278  0.00  0.00    +0.001 A 
ATOM      9  C   UNL     1       7.984  -5.343  -6.394  0.00  0.00    +0.004 A 
ATOM     10  C   UNL     1       7.739  -4.851  -5.132  0.00  0.00    +0.047 A 
ATOM     11  C   UNL     1       6.431  -4.585  -4.727  0.00  0.00    +0.139 A 
ATOM     12  O   UNL     1       6.215  -4.092  -3.486  0.00  0.00    -0.450 OA
ATOM     13  C   UNL     1       4.960  -4.047  -2.997  0.00  0.00    +0.199 A 
ATOM     14  C   UNL     1       4.509  -3.772  -1.621  0.00  0.00    +0.283 C 
ATOM     15  O   UNL     1       5.243  -3.539  -0.682  0.00  0.00    -0.267 OA
ENDROOT
BRANCH   2  16
ATOM     16  C   UNL     1       1.874  -5.414  -2.885  0.00  0.00    -0.019 A 
ATOM     17  C   UNL     1       2.323  -6.482  -2.130  0.00  0.00    +0.006 A 
ATOM     18  C   UNL     1       1.611  -7.667  -2.111  0.00  0.00    +0.004 A 
ATOM     19  C   UNL     1       0.449  -7.787  -2.847  0.00  0.00    +0.045 A 
ATOM     20  C   UNL     1      -0.004  -6.718  -3.606  0.00  0.00    +0.121 A 
ATOM     21  C   UNL     1       0.709  -5.527  -3.618  0.00  0.00    +0.051 A 
BRANCH  20  22
ATOM     22  O   UNL     1      -1.148  -6.834  -4.331  0.00  0.00    -0.487 OA
BRANCH  22  23
ATOM     23  C   UNL     1      -1.833  -8.086  -4.266  0.00  0.00    +0.264 C 
BRANCH  23  24
ATOM     24  C   UNL     1      -3.068  -8.028  -5.127  0.00  0.00    -0.010 A 
ATOM     25  C   UNL     1      -4.267  -7.601  -4.588  0.00  0.00    +0.007 A 
ATOM     26  C   UNL     1      -5.401  -7.547  -5.378  0.00  0.00    +0.000 A 
ATOM     27  C   UNL     1      -5.335  -7.921  -6.707  0.00  0.00    +0.000 A 
ATOM     28  C   UNL     1      -4.135  -8.347  -7.247  0.00  0.00    +0.000 A 
ATOM     29  C   UNL     1      -3.001  -8.396  -6.458  0.00  0.00    +0.007 A 
ENDBRANCH  23  24
ENDBRANCH  22  23
ENDBRANCH  20  22
ENDBRANCH   2  16
BRANCH   1  30
ATOM     30  C   UNL     1       2.351  -3.601  -0.357  0.00  0.00    +0.107 C 
BRANCH  30  31
ATOM     31  C   UNL     1       2.004  -2.115  -0.240  0.00  0.00    +0.000 C 
BRANCH  31  32
ATOM     32  C   UNL     1       1.156  -1.887   1.013  0.00  0.00    -0.077 C 
BRANCH  32  33
ATOM     33  N   UNL     1       0.823  -0.461   1.126  0.00  0.00    +0.379 N 
ATOM     34  H   UNL     1       1.671   0.085   1.109  0.00  0.00    -0.082 HD
BRANCH  33  36
ATOM     35  C   UNL     1      -0.264   1.445   0.037  0.00  0.00    -0.017 C 
ATOM     36  C   UNL     1      -0.034  -0.067  -0.001  0.00  0.00    -0.082 C 
ENDBRANCH  33  36
BRANCH  33  37
ATOM     37  C   UNL     1       0.111  -0.222   2.389  0.00  0.00    -0.082 C 
ATOM     38  C   UNL     1       1.053  -0.495   3.563  0.00  0.00    -0.017 C 
ENDBRANCH  33  37
ENDBRANCH  32  33
ENDBRANCH  31  32
ENDBRANCH  30  31
ENDBRANCH   1  30
TORSDOF 10
