REMARK  Name = ZINC43942538
REMARK  10 active torsions:
REMARK  status: ('A' for Active; 'I' for Inactive)
REMARK    1  A    between atoms: C_1  and  C_2
REMARK    2  A    between atoms: C_2  and  C_3
REMARK    3  A    between atoms: C_8  and  N_9
REMARK    4  A    between atoms: C_10  and  C_12
REMARK    5  A    between atoms: N_14  and  C_15
REMARK    6  A    between atoms: C_15  and  C_16
REMARK    7  A    between atoms: N_19  and  C_22
REMARK    8  A    between atoms: C_22  and  C_23
REMARK    9  A    between atoms: C_28  and  S_29
REMARK   10  A    between atoms: S_29  and  C_30
REMARK                            x       y       z     vdW  Elec       q    Type
REMARK                         _______ _______ _______ _____ _____    ______ ____
ROOT
ATOM      1  C   UNL     1       7.031  -0.179   2.407  0.00  0.00    +0.108 C 
ENDROOT
BRANCH   1   2
ATOM      2  C   UNL     1       8.510  -0.489   2.162  0.00  0.00    +0.003 C 
ATOM      3  C   UNL     1       8.681  -1.986   1.887  0.00  0.00    -0.014 C 
ATOM      4  C   UNL     1      10.169  -2.301   1.722  0.00  0.00    -0.078 C 
ATOM      5  N   UNL     1      10.888  -1.943   2.951  0.00  0.00    +0.382 N 
ATOM      6  C   UNL     1      10.788  -0.497   3.183  0.00  0.00    -0.078 C 
ATOM      7  C   UNL     1       9.324  -0.112   3.404  0.00  0.00    -0.014 C 
ATOM      8  H   UNL     1      10.483  -2.437   3.732  0.00  0.00    -0.081 HD
BRANCH   5   9
ATOM      9  C   UNL     1      12.301  -2.320   2.817  0.00  0.00    -0.042 C 
BRANCH   9  10
ATOM     10  C   UNL     1      13.014  -2.066   4.121  0.00  0.00    -0.051 A 
ATOM     11  C   UNL     1      13.771  -0.923   4.283  0.00  0.00    +0.003 A 
ATOM     12  C   UNL     1      14.426  -0.689   5.479  0.00  0.00    +0.000 A 
ATOM     13  C   UNL     1      14.325  -1.599   6.516  0.00  0.00    +0.001 A 
ATOM     14  C   UNL     1      13.570  -2.744   6.360  0.00  0.00    +0.015 A 
ATOM     15  C   UNL     1      12.906  -2.980   5.162  0.00  0.00    +0.009 A 
BRANCH  15  16
ATOM     16  S   UNL     1      11.935  -4.436   4.962  0.00  0.00    -0.128 S 
ATOM     17  C   UNL     1      12.096  -5.293   6.552  0.00  0.00    +0.090 C 
ENDBRANCH  15  16
ENDBRANCH   9  10
ENDBRANCH   5   9
ENDBRANCH   1   2
BRANCH   1  20
ATOM     18  C   UNL     1       4.939  -0.222   1.158  0.00  0.00    +0.299 C 
ATOM     19  O   UNL     1       4.370   0.170   2.156  0.00  0.00    -0.265 OA
ATOM     20  N   UNL     1       6.271  -0.428   1.179  0.00  0.00    -0.307 N 
ATOM     21  H   UNL     1       6.726  -0.741   0.382  0.00  0.00    +0.149 HD
BRANCH  18  23
ATOM     22  N   UNL     1       2.833  -0.269  -0.115  0.00  0.00    -0.278 N 
ATOM     23  C   UNL     1       4.164  -0.475  -0.093  0.00  0.00    +0.303 C 
ATOM     24  O   UNL     1       4.734  -0.866  -1.091  0.00  0.00    -0.265 OA
ATOM     25  H   UNL     1       2.387   0.106   0.662  0.00  0.00    +0.155 HD
BRANCH  22  31
ATOM     26  C   UNL     1       0.800  -1.086  -1.129  0.00  0.00    -0.026 A 
ATOM     27  C   UNL     1       0.070  -1.402  -2.258  0.00  0.00    +0.005 A 
ATOM     28  C   UNL     1       0.627  -1.234  -3.512  0.00  0.00    +0.000 A 
ATOM     29  C   UNL     1       1.917  -0.751  -3.641  0.00  0.00    +0.002 A 
ATOM     30  C   UNL     1       2.652  -0.433  -2.517  0.00  0.00    +0.023 A 
ATOM     31  C   UNL     1       2.093  -0.595  -1.255  0.00  0.00    +0.037 A 
BRANCH  26  33
ATOM     32  C   UNL     1      -0.422   0.052   0.704  0.00  0.00    +0.009 C 
ATOM     33  C   UNL     1       0.193  -1.270   0.238  0.00  0.00    +0.033 C 
ENDBRANCH  26  33
ENDBRANCH  22  31
ENDBRANCH  18  23
ENDBRANCH   1  20
TORSDOF 8
