REMARK  Name = ZINC05317889
REMARK  7 active torsions:
REMARK  status: ('A' for Active; 'I' for Inactive)
REMARK    1  A    between atoms: C_1  and  C_2
REMARK    2  A    between atoms: C_2  and  C_34
REMARK    3  A    between atoms: C_7  and  C_33
REMARK    4  A    between atoms: C_10  and  C_11
REMARK    5  A    between atoms: C_10  and  N_62
REMARK    6  A    between atoms: C_12  and  O_32
REMARK    7  A    between atoms: C_20  and  C_22
REMARK                            x       y       z     vdW  Elec       q    Type
REMARK                         _______ _______ _______ _____ _____    ______ ____
ROOT
ATOM      1  C   UNL     1       1.311  -2.004  -0.030  0.00  0.00    +0.020 A 
ATOM      2  C   UNL     1       0.079  -2.638  -0.065  0.00  0.00    +0.122 A 
ATOM      3  C   UNL     1      -1.100  -1.895  -0.030  0.00  0.00    +0.046 A 
ATOM      4  C   UNL     1      -1.056  -0.534   0.039  0.00  0.00    +0.015 A 
ATOM      5  C   UNL     1       0.182   0.127   0.075  0.00  0.00    +0.019 A 
ATOM      6  C   UNL     1       1.376  -0.619   0.040  0.00  0.00    +0.144 A 
ATOM      7  O   UNL     1       2.578  -0.004   0.074  0.00  0.00    -0.421 OA
ATOM      8  C   UNL     1       2.677   1.334   0.142  0.00  0.00    +0.348 A 
ATOM      9  O   UNL     1       3.774   1.860   0.171  0.00  0.00    -0.244 OA
ATOM     10  C   UNL     1       1.468   2.162   0.181  0.00  0.00    +0.102 A 
ATOM     11  C   UNL     1       0.233   1.541   0.147  0.00  0.00    +0.030 A 
ENDROOT
BRANCH  10  12
ATOM     12  C   UNL     1       1.567   3.631   0.256  0.00  0.00    +0.146 A 
ATOM     13  N   UNL     1       2.737   4.342   0.295  0.00  0.00    -0.338 N 
ATOM     14  H   UNL     1       3.662   3.963   0.278  0.00  0.00    +0.167 HD
ATOM     15  C   UNL     1       2.401   5.681   0.362  0.00  0.00    +0.066 A 
ATOM     16  C   UNL     1       3.135   6.856   0.423  0.00  0.00    +0.028 A 
ATOM     17  C   UNL     1       2.481   8.069   0.484  0.00  0.00    +0.002 A 
ATOM     18  C   UNL     1       1.094   8.121   0.483  0.00  0.00    +0.002 A 
ATOM     19  C   UNL     1       0.354   6.975   0.423  0.00  0.00    +0.030 A 
ATOM     20  C   UNL     1       0.995   5.733   0.362  0.00  0.00    +0.089 A 
ATOM     21  N   UNL     1       0.546   4.456   0.290  0.00  0.00    -0.228 NA
ENDBRANCH  10  12
BRANCH   2  22
ATOM     22  O   UNL     1       0.020  -3.992  -0.133  0.00  0.00    -0.506 OA
ATOM     23  H   UNL     1      -0.090  -4.424   0.725  0.00  0.00    +0.292 HD
ENDBRANCH   2  22
BRANCH   1  24
ATOM     24  C   UNL     1       2.579  -2.817  -0.069  0.00  0.00    -0.035 C 
BRANCH  24  35
ATOM     25  C   UNL     1       3.961  -7.475   1.269  0.00  0.00    +0.011 C 
ATOM     26  C   UNL     1       3.236  -6.104   1.240  0.00  0.00    -0.036 C 
ATOM     27  C   UNL     1       4.210  -5.097   0.671  0.00  0.00    -0.009 C 
ATOM     28  C   UNL     1       4.326  -3.770   1.403  0.00  0.00    -0.067 C 
ATOM     29  C   UNL     1       4.384  -4.084   2.924  0.00  0.00    -0.011 C 
ATOM     30  C   UNL     1       2.896  -4.450   3.167  0.00  0.00    -0.048 C 
ATOM     31  C   UNL     1       2.685  -5.863   2.630  0.00  0.00    +0.011 C 
ATOM     32  C   UNL     1       2.125  -3.468   2.251  0.00  0.00    -0.071 C 
ATOM     33  C   UNL     1       2.490  -4.307   4.642  0.00  0.00    +0.009 C 
ATOM     34  C   UNL     1       2.056  -6.271   0.261  0.00  0.00    +0.011 C 
ATOM     35  N   UNL     1       3.119  -2.917   1.330  0.00  0.00    +0.385 N 
ATOM     36  H   UNL     1       3.368  -1.971   1.641  0.00  0.00    -0.081 HD
ENDBRANCH  24  35
ENDBRANCH   1  24
TORSDOF 4
