REMARK  Name = ZINC12715805
REMARK  10 active torsions:
REMARK  status: ('A' for Active; 'I' for Inactive)
REMARK    1  A    between atoms: C_1  and  O_2
REMARK    2  A    between atoms: O_2  and  C_3
REMARK    3  A    between atoms: C_8  and  N_9
REMARK    4  A    between atoms: N_9  and  C_10
REMARK    5  A    between atoms: C_10  and  C_12
REMARK    6  A    between atoms: C_10  and  C_19
REMARK    7  A    between atoms: C_15  and  O_18
REMARK    8  A    between atoms: N_21  and  C_22
REMARK    9  A    between atoms: C_28  and  C_30
REMARK   10  A    between atoms: C_30  and  N_31
REMARK                            x       y       z     vdW  Elec       q    Type
REMARK                         _______ _______ _______ _____ _____    ______ ____
ROOT
ATOM      1  N   UNL     1      -1.898   2.589   3.493  0.00  0.00    -0.250 N 
ATOM      2  C   UNL     1      -2.005   3.925   3.633  0.00  0.00    +0.242 C 
ATOM      3  O   UNL     1      -1.735   4.447   4.695  0.00  0.00    -0.273 OA
ENDROOT
BRANCH   1   9
ATOM      4  C   UNL     1      -1.203   1.739   1.335  0.00  0.00    +0.141 A 
ATOM      5  C   UNL     1      -1.516   1.138   0.126  0.00  0.00    +0.047 A 
ATOM      6  C   UNL     1      -2.824   0.790  -0.155  0.00  0.00    +0.004 A 
ATOM      7  C   UNL     1      -3.823   1.040   0.767  0.00  0.00    +0.002 A 
ATOM      8  C   UNL     1      -3.520   1.639   1.975  0.00  0.00    +0.027 A 
ATOM      9  C   UNL     1      -2.209   1.986   2.266  0.00  0.00    +0.079 A 
BRANCH   4  11
ATOM     10  C   UNL     1       1.062   1.793   0.613  0.00  0.00    +0.277 C 
ATOM     11  O   UNL     1       0.083   2.082   1.613  0.00  0.00    -0.493 OA
ENDBRANCH   4  11
ENDBRANCH   1   9
BRANCH   1  12
ATOM     12  C   UNL     1      -1.457   1.766   4.622  0.00  0.00    +0.197 C 
BRANCH  12  13
ATOM     13  C   UNL     1      -0.288   0.915   4.197  0.00  0.00    -0.018 A 
ATOM     14  C   UNL     1      -0.468  -0.086   3.260  0.00  0.00    +0.009 A 
ATOM     15  C   UNL     1       0.604  -0.863   2.866  0.00  0.00    +0.046 A 
ATOM     16  C   UNL     1       1.857  -0.647   3.419  0.00  0.00    +0.117 A 
ATOM     17  C   UNL     1       2.033   0.354   4.363  0.00  0.00    +0.046 A 
ATOM     18  C   UNL     1       0.960   1.133   4.750  0.00  0.00    +0.009 A 
BRANCH  16  19
ATOM     19  O   UNL     1       2.911  -1.415   3.037  0.00  0.00    -0.507 OA
ATOM     20  H   UNL     1       3.031  -2.213   3.570  0.00  0.00    +0.292 HD
ENDBRANCH  16  19
ENDBRANCH  12  13
BRANCH  12  21
ATOM     21  C   UNL     1      -2.590   0.878   5.068  0.00  0.00    +0.239 C 
ATOM     22  O   UNL     1      -3.660   0.927   4.499  0.00  0.00    -0.273 OA
ATOM     23  N   UNL     1      -2.414   0.029   6.100  0.00  0.00    -0.311 N 
ATOM     24  H   UNL     1      -1.558  -0.010   6.555  0.00  0.00    +0.149 HD
BRANCH  23  25
ATOM     25  C   UNL     1      -3.514  -0.835   6.534  0.00  0.00    +0.073 C 
ATOM     26  C   UNL     1      -4.410  -0.068   7.509  0.00  0.00    +0.022 C 
ATOM     27  C   UNL     1      -5.560  -0.970   7.962  0.00  0.00    +0.002 C 
ATOM     28  C   UNL     1      -4.992  -2.209   8.658  0.00  0.00    +0.000 C 
ATOM     29  C   UNL     1      -4.096  -2.976   7.683  0.00  0.00    +0.002 C 
ATOM     30  C   UNL     1      -2.947  -2.074   7.230  0.00  0.00    +0.022 C 
ENDBRANCH  23  25
ENDBRANCH  12  21
ENDBRANCH   1  12
BRANCH   2  31
ATOM     31  C   UNL     1      -2.458   4.771   2.471  0.00  0.00    +0.242 C 
BRANCH  31  32
ATOM     32  N   UNL     1      -2.491   6.179   2.876  0.00  0.00    -0.235 N 
ATOM     33  C   UNL     1      -1.463   7.087   2.780  0.00  0.00    +0.090 A 
ATOM     34  C   UNL     1      -0.153   7.018   2.316  0.00  0.00    +0.029 A 
ATOM     35  C   UNL     1       0.640   8.130   2.357  0.00  0.00    +0.002 A 
ATOM     36  C   UNL     1       0.151   9.330   2.858  0.00  0.00    +0.002 A 
ATOM     37  C   UNL     1      -1.129   9.423   3.320  0.00  0.00    +0.032 A 
ATOM     38  C   UNL     1      -1.964   8.297   3.289  0.00  0.00    +0.113 A 
ATOM     39  N   UNL     1      -3.241   8.086   3.664  0.00  0.00    -0.129 NA
ATOM     40  N   UNL     1      -3.579   6.867   3.432  0.00  0.00    -0.064 NA
ENDBRANCH  31  32
ENDBRANCH   2  31
TORSDOF 9
