REMARK  Name = ZINC65298380
REMARK  13 active torsions:
REMARK  status: ('A' for Active; 'I' for Inactive)
REMARK    1  A    between atoms: C_1  and  C_2
REMARK    2  A    between atoms: C_2  and  O_3
REMARK    3  A    between atoms: O_3  and  C_4
REMARK    4  A    between atoms: C_8  and  C_11
REMARK    5  A    between atoms: C_9  and  O_10
REMARK    6  A    between atoms: C_14  and  C_26
REMARK    7  A    between atoms: N_20  and  C_23
REMARK    8  A    between atoms: C_23  and  C_24
REMARK    9  A    between atoms: C_23  and  C_25
REMARK   10  A    between atoms: C_29  and  O_34
REMARK   11  A    between atoms: C_30  and  O_32
REMARK   12  A    between atoms: O_32  and  C_33
REMARK   13  A    between atoms: O_34  and  C_35
REMARK                            x       y       z     vdW  Elec       q    Type
REMARK                         _______ _______ _______ _____ _____    ______ ____
ROOT
ATOM      1  C   UNL     1       2.224  -4.267  -3.827  0.00  0.00    +0.095 C 
ATOM      2  C   UNL     1       1.270  -4.255  -5.026  0.00  0.00    +0.079 C 
ATOM      3  C   UNL     1       1.844  -5.098  -6.130  0.00  0.00    +0.047 C 
ATOM      4  N   UNL     1       2.797  -5.933  -5.950  0.00  0.00    -0.266 NA
ATOM      5  C   UNL     1       3.450  -6.167  -4.667  0.00  0.00    +0.109 C 
ATOM      6  N   UNL     1       2.619  -5.662  -3.567  0.00  0.00    -0.286 NA
ATOM      7  C   UNL     1       4.805  -5.452  -4.644  0.00  0.00    +0.027 C 
ATOM      8  C   UNL     1       5.703  -6.041  -5.734  0.00  0.00    -0.075 C 
ATOM      9  N   UNL     1       5.903  -7.474  -5.487  0.00  0.00    +0.381 N 
ATOM     10  C   UNL     1       4.619  -8.179  -5.573  0.00  0.00    -0.075 C 
ATOM     11  C   UNL     1       3.680  -7.671  -4.477  0.00  0.00    +0.027 C 
ATOM     12  H   UNL     1       3.099  -5.743  -2.683  0.00  0.00    +0.125 HD
ATOM     13  H   UNL     1       6.296  -7.604  -4.567  0.00  0.00    -0.081 HD
ENDROOT
BRANCH   1  18
ATOM     14  C   UNL     1       0.777  -1.811  -1.336  0.00  0.00    +0.162 A 
ATOM     15  C   UNL     1       0.243  -2.669  -0.388  0.00  0.00    +0.049 A 
ATOM     16  C   UNL     1       0.352  -4.037  -0.555  0.00  0.00    +0.004 A 
ATOM     17  C   UNL     1       0.992  -4.552  -1.667  0.00  0.00    +0.009 A 
ATOM     18  C   UNL     1       1.526  -3.702  -2.616  0.00  0.00    +0.015 A 
ATOM     19  C   UNL     1       1.416  -2.330  -2.458  0.00  0.00    +0.163 A 
BRANCH  19  20
ATOM     20  O   UNL     1       1.936  -1.492  -3.394  0.00  0.00    -0.503 OA
ATOM     21  H   UNL     1       2.856  -1.241  -3.231  0.00  0.00    +0.292 HD
ENDBRANCH  19  20
BRANCH  14  22
ATOM     22  O   UNL     1       0.671  -0.465  -1.174  0.00  0.00    -0.489 OA
BRANCH  22  24
ATOM     23  C   UNL     1      -0.019   1.526   0.010  0.00  0.00    +0.048 C 
ATOM     24  C   UNL     1       0.002  -0.004   0.002  0.00  0.00    +0.226 C 
ENDBRANCH  22  24
ENDBRANCH  14  22
ENDBRANCH   1  18
BRANCH   3  25
ATOM     25  C   UNL     1       1.282  -4.955  -7.486  0.00  0.00    -0.000 A 
ATOM     26  C   UNL     1       0.245  -4.049  -7.723  0.00  0.00    +0.013 A 
ATOM     27  C   UNL     1      -0.279  -3.917  -8.991  0.00  0.00    +0.050 A 
ATOM     28  C   UNL     1       0.222  -4.682 -10.035  0.00  0.00    +0.162 A 
ATOM     29  C   UNL     1       1.256  -5.588  -9.806  0.00  0.00    +0.162 A 
ATOM     30  C   UNL     1       1.790  -5.721  -8.539  0.00  0.00    +0.059 A 
BRANCH  29  31
ATOM     31  O   UNL     1       1.743  -6.337 -10.832  0.00  0.00    -0.491 OA
ATOM     32  C   UNL     1       2.803  -7.245 -10.525  0.00  0.00    +0.277 C 
ENDBRANCH  29  31
BRANCH  28  33
ATOM     33  O   UNL     1      -0.298  -4.548 -11.283  0.00  0.00    -0.491 OA
ATOM     34  C   UNL     1      -1.356  -3.602 -11.447  0.00  0.00    +0.277 C 
ENDBRANCH  28  33
ENDBRANCH   3  25
BRANCH   9  35
ATOM     35  C   UNL     1       6.826  -8.018  -6.492  0.00  0.00    -0.075 C 
ATOM     36  C   UNL     1       8.169  -7.291  -6.398  0.00  0.00    -0.014 C 
ATOM     37  C   UNL     1       7.036  -9.512  -6.236  0.00  0.00    -0.014 C 
ENDBRANCH   9  35
TORSDOF 8
