REMARK  Name = ZINC00651023
REMARK  10 active torsions:
REMARK  status: ('A' for Active; 'I' for Inactive)
REMARK    1  A    between atoms: C_1  and  C_2
REMARK    2  A    between atoms: C_4  and  C_36
REMARK    3  A    between atoms: C_5  and  C_17
REMARK    4  A    between atoms: C_7  and  C_8
REMARK    5  A    between atoms: C_8  and  S_9
REMARK    6  A    between atoms: S_9  and  C_10
REMARK    7  A    between atoms: C_26  and  C_34
REMARK    8  A    between atoms: C_27  and  N_33
REMARK    9  A    between atoms: C_28  and  C_29
REMARK   10  A    between atoms: C_28  and  C_31
REMARK                            x       y       z     vdW  Elec       q    Type
REMARK                         _______ _______ _______ _____ _____    ______ ____
ROOT
ATOM      1  C   UNL     1      -0.253   0.068  -2.487  0.00  0.00    +0.066 C 
ATOM      2  C   UNL     1      -1.622  -0.223  -3.104  0.00  0.00    +0.030 C 
ATOM      3  C   UNL     1      -2.742   0.412  -2.313  0.00  0.00    +0.009 C 
ATOM      4  C   UNL     1      -3.417  -0.589  -1.377  0.00  0.00    +0.005 C 
ATOM      5  C   UNL     1      -3.971  -1.743  -2.223  0.00  0.00    +0.027 C 
ATOM      6  C   UNL     1      -2.809  -2.403  -2.919  0.00  0.00    -0.022 C 
ATOM      7  C   UNL     1      -1.751  -1.706  -3.286  0.00  0.00    -0.029 C 
ATOM      8  C   UNL     1      -0.583  -2.416  -3.870  0.00  0.00    +0.074 C 
ATOM      9  C   UNL     1       0.615  -1.784  -3.934  0.00  0.00    +0.054 C 
ATOM     10  C   UNL     1       0.836  -0.377  -3.465  0.00  0.00    +0.188 C 
ENDROOT
BRANCH   1  15
ATOM     11  C   UNL     1       0.281  -2.842   2.476  0.00  0.00    +0.044 C 
ATOM     12  C   UNL     1       0.145  -2.083   1.182  0.00  0.00    -0.046 A 
ATOM     13  C   UNL     1       0.041  -0.704   1.196  0.00  0.00    +0.007 A 
ATOM     14  C   UNL     1      -0.084  -0.008   0.009  0.00  0.00    -0.047 A 
ATOM     15  C   UNL     1      -0.110  -0.690  -1.193  0.00  0.00    -0.038 A 
ATOM     16  C   UNL     1      -0.000  -2.068  -1.208  0.00  0.00    +0.009 A 
ATOM     17  C   UNL     1       0.125  -2.765  -0.020  0.00  0.00    -0.034 A 
ATOM     18  C   UNL     1      -0.198   1.495   0.025  0.00  0.00    +0.044 C 
BRANCH  17  19
ATOM     19  C   UNL     1       0.238  -4.267  -0.036  0.00  0.00    +0.109 C 
BRANCH  19  20
ATOM     20  S   UNL     1      -1.419  -5.000   0.060  0.00  0.00    -0.121 S 
BRANCH  20  21
ATOM     21  C   UNL     1      -1.120  -6.736   0.031  0.00  0.00    +0.008 A 
ATOM     22  C   UNL     1       0.181  -7.217  -0.057  0.00  0.00    +0.016 A 
ATOM     23  C   UNL     1       0.412  -8.578  -0.074  0.00  0.00    +0.021 A 
ATOM     24  C   UNL     1      -0.650  -9.463  -0.015  0.00  0.00    +0.041 A 
ATOM     25  C   UNL     1      -1.947  -8.987   0.067  0.00  0.00    +0.021 A 
ATOM     26  C   UNL     1      -2.185  -7.627   0.090  0.00  0.00    +0.016 A 
ATOM     27 CL   UNL     1      -0.356 -11.174  -0.042  0.00  0.00    -0.084 Cl
ENDBRANCH  20  21
ENDBRANCH  19  20
ENDBRANCH  17  19
ENDBRANCH   1  15
BRANCH   9  28
ATOM     28  N   UNL     1       1.679  -2.466  -4.454  0.00  0.00    -0.358 N 
ATOM     29  H   UNL     1       2.665  -1.981  -4.520  0.00  0.00    +0.142 HD
ATOM     30  H   UNL     1       1.551  -3.499  -4.807  0.00  0.00    +0.142 HD
ENDBRANCH   9  28
BRANCH  10  31
ATOM     31  C   UNL     1       0.834   0.524  -4.629  0.00  0.00    +0.091 C 
ATOM     32  N   UNL     1       0.832   1.219  -5.527  0.00  0.00    -0.194 NA
ENDBRANCH  10  31
BRANCH  10  33
ATOM     33  C   UNL     1       2.145  -0.293  -2.797  0.00  0.00    +0.091 C 
ATOM     34  N   UNL     1       3.155  -0.228  -2.281  0.00  0.00    -0.194 NA
ENDBRANCH  10  33
BRANCH   8  35
ATOM     35  C   UNL     1      -0.722  -3.754  -4.361  0.00  0.00    +0.101 C 
ATOM     36  N   UNL     1      -0.832  -4.816  -4.750  0.00  0.00    -0.191 NA
ENDBRANCH   8  35
TORSDOF 8
