REMARK  Name = ZINC63697895
REMARK  9 active torsions:
REMARK  status: ('A' for Active; 'I' for Inactive)
REMARK    1  A    between atoms: C_1  and  C_2
REMARK    2  A    between atoms: C_2  and  O_3
REMARK    3  A    between atoms: O_3  and  C_4
REMARK    4  A    between atoms: C_8  and  C_13
REMARK    5  A    between atoms: C_9  and  O_10
REMARK    6  A    between atoms: O_10  and  C_11
REMARK    7  A    between atoms: C_11  and  C_12
REMARK    8  A    between atoms: C_13  and  C_14
REMARK    9  A    between atoms: C_29  and  C_31
REMARK                            x       y       z     vdW  Elec       q    Type
REMARK                         _______ _______ _______ _____ _____    ______ ____
ROOT
ATOM      1  C   UNL     1       1.329  -5.803   4.451  0.00  0.00    +0.221 C 
ATOM      2  O   UNL     1       0.288  -5.198   4.599  0.00  0.00    -0.275 OA
ATOM      3  N   UNL     1       2.278  -5.754   5.406  0.00  0.00    -0.292 N 
ATOM      4  C   UNL     1       3.577  -6.394   5.171  0.00  0.00    +0.113 C 
ATOM      5  C   UNL     1       4.697  -5.348   5.314  0.00  0.00    +0.052 C 
ATOM      6  C   UNL     1       4.396  -4.560   6.565  0.00  0.00    -0.035 C 
ATOM      7  C   UNL     1       5.146  -4.271   7.622  0.00  0.00    -0.001 A 
ATOM      8  C   UNL     1       6.567  -4.516   7.911  0.00  0.00    +0.010 A 
ATOM      9  C   UNL     1       7.013  -4.097   9.125  0.00  0.00    +0.001 A 
ATOM     10  C   UNL     1       6.197  -3.465  10.068  0.00  0.00    +0.002 A 
ATOM     11  C   UNL     1       4.881  -3.192   9.883  0.00  0.00    +0.026 A 
ATOM     12  C   UNL     1       4.299  -3.578   8.640  0.00  0.00    +0.043 A 
ATOM     13  N   UNL     1       3.088  -3.421   8.193  0.00  0.00    -0.375 N 
ATOM     14  C   UNL     1       3.031  -3.934   6.824  0.00  0.00    +0.131 C 
ATOM     15  C   UNL     1       2.003  -5.054   6.670  0.00  0.00    +0.133 C 
ATOM     16  H   UNL     1       2.348  -3.030   8.684  0.00  0.00    +0.160 HD
ENDROOT
BRANCH  15  17
ATOM     17  C   UNL     1       0.615  -4.468   6.638  0.00  0.00    -0.025 A 
ATOM     18  C   UNL     1       0.362  -3.332   5.893  0.00  0.00    +0.007 A 
ATOM     19  C   UNL     1      -0.911  -2.794   5.863  0.00  0.00    +0.020 A 
ATOM     20  C   UNL     1      -1.932  -3.393   6.579  0.00  0.00    +0.041 A 
ATOM     21  C   UNL     1      -1.678  -4.531   7.325  0.00  0.00    +0.020 A 
ATOM     22  C   UNL     1      -0.406  -5.071   7.349  0.00  0.00    +0.007 A 
ATOM     23 CL   UNL     1      -3.531  -2.718   6.542  0.00  0.00    -0.084 Cl
ENDBRANCH  15  17
BRANCH   1  24
ATOM     24  C   UNL     1       1.560  -6.609   3.199  0.00  0.00    +0.135 C 
BRANCH  24  29
ATOM     25  C   UNL     1      -0.880  -5.337   0.599  0.00  0.00    +0.162 A 
ATOM     26  C   UNL     1      -1.867  -6.308   0.656  0.00  0.00    +0.049 A 
ATOM     27  C   UNL     1      -1.742  -7.370   1.531  0.00  0.00    +0.004 A 
ATOM     28  C   UNL     1      -0.634  -7.466   2.353  0.00  0.00    +0.008 A 
ATOM     29  C   UNL     1       0.354  -6.501   2.302  0.00  0.00    +0.007 A 
ATOM     30  C   UNL     1       0.238  -5.437   1.422  0.00  0.00    +0.165 A 
BRANCH  25  31
ATOM     31  O   UNL     1      -1.002  -4.291  -0.262  0.00  0.00    -0.489 OA
BRANCH  31  33
ATOM     32  C   UNL     1      -2.135  -3.015  -1.973  0.00  0.00    +0.048 C 
ATOM     33  C   UNL     1      -2.176  -4.254  -1.075  0.00  0.00    +0.226 C 
ENDBRANCH  31  33
ENDBRANCH  25  31
BRANCH  30  34
ATOM     34  O   UNL     1       1.212  -4.489   1.366  0.00  0.00    -0.488 OA
BRANCH  34  35
ATOM     35  C   UNL     1       1.005  -3.301   2.133  0.00  0.00    +0.226 C 
ATOM     36  C   UNL     1       2.141  -2.313   1.859  0.00  0.00    +0.048 C 
ENDBRANCH  34  35
ENDBRANCH  30  34
ENDBRANCH  24  29
ENDBRANCH   1  24
TORSDOF 7
