REMARK  Name = ZINC29476621
REMARK  4 active torsions:
REMARK  status: ('A' for Active; 'I' for Inactive)
REMARK    1  A    between atoms: C_4  and  N_8
REMARK    2  A    between atoms: C_5  and  C_6
REMARK    3  A    between atoms: C_9  and  C_11
REMARK    4  A    between atoms: C_11  and  N_12
REMARK                            x       y       z     vdW  Elec       q    Type
REMARK                         _______ _______ _______ _____ _____    ______ ____
ROOT
ATOM      1  N   UNL     1       2.398  -1.477  -0.029  0.00  0.00    -0.278 N 
ATOM      2  C   UNL     1       1.715  -2.639  -0.029  0.00  0.00    +0.235 C 
ATOM      3  O   UNL     1       0.503  -2.630  -0.018  0.00  0.00    -0.274 OA
ATOM      4  H   UNL     1       3.498  -1.485  -0.040  0.00  0.00    +0.155 HD
ENDROOT
BRANCH   1   8
ATOM      5  C   UNL     1       1.284   2.103   0.001  0.00  0.00    +0.028 A 
ATOM      6  C   UNL     1      -0.022   1.777   0.012  0.00  0.00    +0.048 A 
ATOM      7  S   UNL     1       0.002  -0.004   0.002  0.00  0.00    -0.081 S 
ATOM      8  C   UNL     1       1.713  -0.270  -0.016  0.00  0.00    +0.089 A 
ATOM      9  C   UNL     1       2.234   1.018  -0.014  0.00  0.00    +0.080 A 
BRANCH   9  10
ATOM     10  C   UNL     1       3.646   1.256  -0.026  0.00  0.00    +0.102 C 
ATOM     11  N   UNL     1       4.766   1.446  -0.036  0.00  0.00    -0.191 NA
ENDBRANCH   9  10
ENDBRANCH   1   8
BRANCH   2  12
ATOM     12  C   UNL     1       2.459  -3.950  -0.044  0.00  0.00    +0.204 C 
BRANCH  12  13
ATOM     13  N   UNL     1       1.499  -5.056  -0.041  0.00  0.00    -0.283 N 
ATOM     14  C   UNL     1       1.048  -5.605   1.216  0.00  0.00    +0.120 C 
ATOM     15  C   UNL     1       0.038  -6.759   1.050  0.00  0.00    +0.098 C 
ATOM     16  S   UNL     1      -0.075  -6.858  -0.777  0.00  0.00    -0.066 S 
ATOM     17  C   UNL     1       1.054  -5.549  -1.206  0.00  0.00    +0.275 C 
ATOM     18  O   UNL     1       1.359  -5.180  -2.324  0.00  0.00    -0.263 OA
ENDBRANCH  12  13
ENDBRANCH   2  12
TORSDOF 4
