REMARK  Name = ZINC39702819
REMARK  4 active torsions:
REMARK  status: ('A' for Active; 'I' for Inactive)
REMARK    1  A    between atoms: C_1  and  C_2
REMARK    2  A    between atoms: C_2  and  C_34
REMARK    3  A    between atoms: C_6  and  C_19
REMARK    4  A    between atoms: C_24  and  C_25
REMARK                            x       y       z     vdW  Elec       q    Type
REMARK                         _______ _______ _______ _____ _____    ______ ____
ROOT
ATOM      1  C   UNL     1      -0.019   1.529   0.010  0.00  0.00    +0.011 C 
ATOM      2  C   UNL     1       0.002  -0.004   0.002  0.00  0.00    -0.024 C 
ATOM      3  C   UNL     1      -1.434  -0.527   0.039  0.00  0.00    +0.043 C 
ATOM      4  C   UNL     1      -1.464  -2.028   0.136  0.00  0.00    -0.029 C 
ATOM      5  C   UNL     1      -0.448  -2.689   0.763  0.00  0.00    +0.020 C 
ATOM      6  C   UNL     1      -0.469  -4.195   0.880  0.00  0.00    +0.119 C 
ATOM      7  N   UNL     1      -1.215  -4.755  -0.251  0.00  0.00    -0.335 N 
ATOM      8  C   UNL     1      -2.406  -4.141  -0.613  0.00  0.00    +0.036 A 
ATOM      9  C   UNL     1      -2.549  -2.758  -0.410  0.00  0.00    +0.007 A 
ATOM     10  C   UNL     1      -3.832  -2.145  -0.754  0.00  0.00    -0.009 A 
ATOM     11  C   UNL     1      -4.147  -0.815  -0.466  0.00  0.00    +0.009 A 
ATOM     12  C   UNL     1      -5.338  -0.282  -0.872  0.00  0.00    +0.001 A 
ATOM     13  C   UNL     1      -6.274  -1.054  -1.550  0.00  0.00    +0.001 A 
ATOM     14  C   UNL     1      -6.029  -2.369  -1.802  0.00  0.00    +0.008 A 
ATOM     15  C   UNL     1      -4.822  -2.950  -1.378  0.00  0.00    -0.017 A 
ATOM     16  C   UNL     1      -4.602  -4.329  -1.557  0.00  0.00    +0.010 A 
ATOM     17  C   UNL     1      -3.431  -4.899  -1.178  0.00  0.00    +0.024 A 
ATOM     18  C   UNL     1       0.645  -2.002   1.310  0.00  0.00    +0.162 C 
ATOM     19  O   UNL     1       1.538  -2.631   1.847  0.00  0.00    -0.292 OA
ATOM     20  C   UNL     1       0.743  -0.504   1.244  0.00  0.00    +0.086 C 
ATOM     21  C   UNL     1       0.708  -0.492  -1.263  0.00  0.00    +0.011 C 
ATOM     22  H   UNL     1      -0.886  -5.527  -0.735  0.00  0.00    +0.147 HD
ENDROOT
BRANCH   6  23
ATOM     23  C   UNL     1      -1.143  -4.603   2.191  0.00  0.00    +0.108 C 
ATOM     24  C   UNL     1      -2.623  -4.279   2.154  0.00  0.00    +0.119 C 
ATOM     25  N   UNL     1      -3.242  -5.408   2.279  0.00  0.00    -0.161 NA
ATOM     26  N   UNL     1      -2.367  -6.483   2.399  0.00  0.00    -0.153 NA
ATOM     27  C   UNL     1      -1.114  -6.109   2.361  0.00  0.00    +0.081 C 
BRANCH  27  28
ATOM     28  C   UNL     1       0.076  -6.969   2.459  0.00  0.00    -0.001 A 
ATOM     29  C   UNL     1       1.355  -6.407   2.403  0.00  0.00    +0.010 A 
ATOM     30  C   UNL     1       2.466  -7.219   2.495  0.00  0.00    +0.001 A 
ATOM     31  C   UNL     1       2.317  -8.587   2.643  0.00  0.00    +0.000 A 
ATOM     32  C   UNL     1       1.054  -9.151   2.699  0.00  0.00    +0.001 A 
ATOM     33  C   UNL     1      -0.066  -8.351   2.614  0.00  0.00    +0.010 A 
ENDBRANCH  27  28
ENDBRANCH   6  23
TORSDOF 2
