REMARK  Name = ZINC12250183
REMARK  9 active torsions:
REMARK  status: ('A' for Active; 'I' for Inactive)
REMARK    1  A    between atoms: C_1  and  C_2
REMARK    2  A    between atoms: C_3  and  C_30
REMARK    3  A    between atoms: C_4  and  C_23
REMARK    4  A    between atoms: C_6  and  C_21
REMARK    5  A    between atoms: C_7  and  S_9
REMARK    6  A    between atoms: S_9  and  C_10
REMARK    7  A    between atoms: C_10  and  C_11
REMARK    8  A    between atoms: N_13  and  C_14
REMARK    9  A    between atoms: C_30  and  C_32
REMARK                            x       y       z     vdW  Elec       q    Type
REMARK                         _______ _______ _______ _____ _____    ______ ____
ROOT
ATOM      1  C   UNL     1       3.811   1.899  -0.376  0.00  0.00    +0.061 C 
ATOM      2  C   UNL     1       2.433   1.290  -0.365  0.00  0.00    +0.013 C 
ATOM      3  C   UNL     1       1.371   2.054  -0.031  0.00  0.00    +0.024 C 
ATOM      4  C   UNL     1      -0.024   1.499  -0.012  0.00  0.00    +0.096 C 
ATOM      5  C   UNL     1      -0.001  -0.004  -0.011  0.00  0.00    +0.069 C 
ATOM      6  C   UNL     1       1.121  -0.693  -0.348  0.00  0.00    +0.080 C 
ATOM      7  N   UNL     1       2.276  -0.025  -0.692  0.00  0.00    -0.312 N 
ATOM      8  H   UNL     1       3.073  -0.556  -1.234  0.00  0.00    +0.152 HD
ENDROOT
BRANCH   4   9
ATOM      9  C   UNL     1      -0.767   1.983  -1.230  0.00  0.00    -0.035 A 
ATOM     10  C   UNL     1      -0.310   1.655  -2.493  0.00  0.00    +0.006 A 
ATOM     11  C   UNL     1      -0.994   2.094  -3.611  0.00  0.00    +0.020 A 
ATOM     12  C   UNL     1      -2.130   2.870  -3.466  0.00  0.00    +0.041 A 
ATOM     13  C   UNL     1      -2.584   3.202  -2.202  0.00  0.00    +0.020 A 
ATOM     14  C   UNL     1      -1.902   2.758  -1.085  0.00  0.00    +0.006 A 
ATOM     15 CL   UNL     1      -2.986   3.427  -4.870  0.00  0.00    -0.084 Cl
ENDBRANCH   4   9
BRANCH   3  16
ATOM     16  C   UNL     1       1.577   3.401   0.307  0.00  0.00    +0.159 C 
ATOM     17  O   UNL     1       2.700   3.865   0.296  0.00  0.00    -0.293 OA
ATOM     18  C   UNL     1       0.405   4.270   0.683  0.00  0.00    +0.091 C 
ENDBRANCH   3  16
BRANCH   5  19
ATOM     19  C   UNL     1      -1.185  -0.724   0.352  0.00  0.00    +0.098 C 
ATOM     20  N   UNL     1      -2.124  -1.295   0.639  0.00  0.00    -0.191 NA
ENDBRANCH   5  19
BRANCH   6  21
ATOM     21  S   UNL     1       1.099  -2.454  -0.343  0.00  0.00    -0.100 S 
BRANCH  21  22
ATOM     22  C   UNL     1       2.803  -2.791  -0.854  0.00  0.00    +0.171 C 
BRANCH  22  23
ATOM     23  C   UNL     1       3.022  -4.281  -0.921  0.00  0.00    +0.227 C 
ATOM     24  O   UNL     1       2.115  -5.040  -0.650  0.00  0.00    -0.275 OA
ATOM     25  N   UNL     1       4.225  -4.769  -1.282  0.00  0.00    -0.285 N 
ATOM     26  H   UNL     1       5.024  -4.084  -1.600  0.00  0.00    +0.155 HD
BRANCH  25  27
ATOM     27  C   UNL     1       4.458  -6.149  -1.251  0.00  0.00    +0.033 A 
ATOM     28  C   UNL     1       5.711  -6.636  -0.904  0.00  0.00    +0.024 A 
ATOM     29  C   UNL     1       5.937  -7.998  -0.869  0.00  0.00    +0.017 A 
ATOM     30  C   UNL     1       4.918  -8.877  -1.190  0.00  0.00    +0.018 A 
ATOM     31  C   UNL     1       3.670  -8.395  -1.542  0.00  0.00    +0.017 A 
ATOM     32  C   UNL     1       3.437  -7.034  -1.573  0.00  0.00    +0.024 A 
ATOM     33 BR   UNL     1       5.232 -10.742  -1.148  0.00  0.00    -0.050 Br
ENDBRANCH  25  27
ENDBRANCH  22  23
ENDBRANCH  21  22
ENDBRANCH   6  21
TORSDOF 7
