REMARK  Name = ZINC01010187
REMARK  4 active torsions:
REMARK  status: ('A' for Active; 'I' for Inactive)
REMARK    1  A    between atoms: C_8  and  C_13
REMARK    2  A    between atoms: C_13  and  C_14
REMARK    3  A    between atoms: N_16  and  C_17
REMARK    4  A    between atoms: C_18  and  C_26
REMARK                            x       y       z     vdW  Elec       q    Type
REMARK                         _______ _______ _______ _____ _____    ______ ____
ROOT
ATOM      1  C   UNL     1      -1.738   7.617  -2.454  0.00  0.00    +0.220 C 
ATOM      2  O   UNL     1      -1.577   7.870  -1.279  0.00  0.00    -0.275 OA
ATOM      3  N   UNL     1      -1.643   6.345  -2.889  0.00  0.00    -0.279 N 
ATOM      4  H   UNL     1      -1.771   6.143  -3.829  0.00  0.00    +0.155 HD
ENDROOT
BRANCH   3   5
ATOM      5  C   UNL     1      -1.362   5.324  -1.991  0.00  0.00    +0.090 A 
ATOM      6  C   UNL     1      -1.227   3.967  -2.244  0.00  0.00    +0.084 A 
ATOM      7  C   UNL     1      -0.927   3.100  -1.119  0.00  0.00    -0.018 A 
ATOM      8  C   UNL     1      -0.813   3.725   0.074  0.00  0.00    -0.004 A 
ATOM      9  S   UNL     1      -1.095   5.435  -0.283  0.00  0.00    -0.077 S 
ATOM     10  C   UNL     1      -0.514   3.094   1.399  0.00  0.00    +0.043 C 
ATOM     11  C   UNL     1      -0.726   1.578   1.271  0.00  0.00    +0.005 C 
ATOM     12  C   UNL     1      -0.013   1.086   0.008  0.00  0.00    +0.005 C 
ATOM     13  C   UNL     1      -0.749   1.591  -1.234  0.00  0.00    +0.037 C 
BRANCH   6  14
ATOM     14  C   UNL     1      -1.377   3.440  -3.568  0.00  0.00    +0.102 C 
ATOM     15  N   UNL     1      -1.496   3.023  -4.617  0.00  0.00    -0.191 NA
ENDBRANCH   6  14
ENDBRANCH   3   5
BRANCH   1  16
ATOM     16  C   UNL     1      -2.043   8.725  -3.428  0.00  0.00    +0.127 C 
BRANCH  16  24
ATOM     17  C   UNL     1      -6.883   9.986  -2.152  0.00  0.00    +0.002 A 
ATOM     18  C   UNL     1      -7.028  10.766  -3.284  0.00  0.00    +0.002 A 
ATOM     19  C   UNL     1      -5.918  11.305  -3.909  0.00  0.00    +0.025 A 
ATOM     20  C   UNL     1      -4.653  11.061  -3.399  0.00  0.00    +0.055 A 
ATOM     21  C   UNL     1      -4.510  10.280  -2.252  0.00  0.00    +0.049 A 
ATOM     22  C   UNL     1      -5.624   9.741  -1.633  0.00  0.00    +0.025 A 
ATOM     23  N   UNL     1      -3.223  10.054  -1.741  0.00  0.00    -0.331 N 
ATOM     24  C   UNL     1      -2.094  10.060  -2.682  0.00  0.00    +0.166 C 
ATOM     25  C   UNL     1      -2.281  11.183  -3.671  0.00  0.00    +0.238 C 
ATOM     26  O   UNL     1      -1.310  11.735  -4.144  0.00  0.00    -0.273 OA
ATOM     27  N   UNL     1      -3.518  11.580  -4.032  0.00  0.00    -0.282 N 
ATOM     28  H   UNL     1      -3.083   9.899  -0.794  0.00  0.00    +0.147 HD
ATOM     29  H   UNL     1      -3.622  12.234  -4.741  0.00  0.00    +0.155 HD
ENDBRANCH  16  24
ENDBRANCH   1  16
TORSDOF 4
