REMARK  Name = ZINC35178157
REMARK  9 active torsions:
REMARK  status: ('A' for Active; 'I' for Inactive)
REMARK    1  A    between atoms: C_1  and  C_2
REMARK    2  A    between atoms: C_6  and  C_9
REMARK    3  A    between atoms: C_7  and  C_8
REMARK    4  A    between atoms: C_9  and  C_11
REMARK    5  A    between atoms: C_9  and  O_35
REMARK    6  A    between atoms: N_13  and  C_16
REMARK    7  A    between atoms: C_16  and  C_17
REMARK    8  A    between atoms: C_16  and  C_23
REMARK    9  A    between atoms: C_16  and  C_29
REMARK                            x       y       z     vdW  Elec       q    Type
REMARK                         _______ _______ _______ _____ _____    ______ ____
ROOT
ATOM      1  C   UNL     1      -4.371  -2.043   4.717  0.00  0.00    +0.122 C 
ENDROOT
BRANCH   1   4
ATOM      2  C   UNL     1      -1.335  -3.651   3.625  0.00  0.00    +0.067 A 
ATOM      3  C   UNL     1      -1.955  -2.672   4.312  0.00  0.00    +0.112 A 
ATOM      4  N   UNL     1      -3.300  -2.866   4.150  0.00  0.00    -0.320 N 
ATOM      5  C   UNL     1      -3.456  -3.956   3.369  0.00  0.00    +0.175 A 
ATOM      6  N   UNL     1      -2.276  -4.418   3.055  0.00  0.00    -0.347 N 
ATOM      7  H   UNL     1      -2.107  -5.194   2.498  0.00  0.00    +0.167 HD
BRANCH   2   8
ATOM      8  C   UNL     1       0.155  -3.846   3.512  0.00  0.00    +0.192 C 
BRANCH   8  14
ATOM      9  C   UNL     1       1.860   0.569   1.883  0.00  0.00    +0.044 C 
ATOM     10  C   UNL     1       1.506  -0.872   1.618  0.00  0.00    -0.047 A 
ATOM     11  C   UNL     1       1.674  -1.404   0.353  0.00  0.00    +0.003 A 
ATOM     12  C   UNL     1       1.349  -2.725   0.110  0.00  0.00    +0.001 A 
ATOM     13  C   UNL     1       0.858  -3.516   1.133  0.00  0.00    +0.007 A 
ATOM     14  C   UNL     1       0.691  -2.985   2.397  0.00  0.00    -0.010 A 
ATOM     15  C   UNL     1       1.020  -1.664   2.642  0.00  0.00    -0.042 A 
ATOM     16  C   UNL     1       0.843  -1.086   4.022  0.00  0.00    +0.044 C 
ENDBRANCH   8  14
BRANCH   8  17
ATOM     17  O   UNL     1       0.436  -5.218   3.230  0.00  0.00    -0.381 OA
ATOM     18  H   UNL     1       0.042  -5.539   2.407  0.00  0.00    +0.211 HD
ENDBRANCH   8  17
ENDBRANCH   2   8
ENDBRANCH   1   4
BRANCH   1  19
ATOM     19  C   UNL     1      -5.700  -2.709   4.471  0.00  0.00    -0.013 A 
ATOM     20  C   UNL     1      -6.497  -3.077   5.539  0.00  0.00    +0.006 A 
ATOM     21  C   UNL     1      -7.716  -3.689   5.314  0.00  0.00    +0.000 A 
ATOM     22  C   UNL     1      -8.139  -3.932   4.020  0.00  0.00    +0.000 A 
ATOM     23  C   UNL     1      -7.343  -3.563   2.952  0.00  0.00    +0.000 A 
ATOM     24  C   UNL     1      -6.125  -2.948   3.178  0.00  0.00    +0.006 A 
ENDBRANCH   1  19
BRANCH   1  25
ATOM     25  C   UNL     1      -4.154  -1.889   6.200  0.00  0.00    -0.013 A 
ATOM     26  C   UNL     1      -4.005  -3.008   6.998  0.00  0.00    +0.006 A 
ATOM     27  C   UNL     1      -3.805  -2.866   8.358  0.00  0.00    +0.000 A 
ATOM     28  C   UNL     1      -3.754  -1.605   8.921  0.00  0.00    +0.000 A 
ATOM     29  C   UNL     1      -3.902  -0.485   8.124  0.00  0.00    +0.000 A 
ATOM     30  C   UNL     1      -4.098  -0.627   6.763  0.00  0.00    +0.006 A 
ENDBRANCH   1  25
BRANCH   1  31
ATOM     31  C   UNL     1      -4.362  -0.685   4.064  0.00  0.00    -0.013 A 
ATOM     32  C   UNL     1      -3.355  -0.352   3.178  0.00  0.00    +0.006 A 
ATOM     33  C   UNL     1      -3.346   0.894   2.578  0.00  0.00    +0.000 A 
ATOM     34  C   UNL     1      -4.344   1.806   2.865  0.00  0.00    +0.000 A 
ATOM     35  C   UNL     1      -5.352   1.472   3.751  0.00  0.00    +0.000 A 
ATOM     36  C   UNL     1      -5.363   0.225   4.347  0.00  0.00    +0.006 A 
ENDBRANCH   1  31
TORSDOF 7
