REMARK  Name = ZINC63282096
REMARK  8 active torsions:
REMARK  status: ('A' for Active; 'I' for Inactive)
REMARK    1  A    between atoms: C_1  and  C_2
REMARK    2  A    between atoms: C_2  and  C_4
REMARK    3  A    between atoms: C_2  and  N_14
REMARK    4  A    between atoms: C_4  and  C_5
REMARK    5  A    between atoms: C_15  and  C_17
REMARK    6  A    between atoms: C_21  and  C_24
REMARK    7  A    between atoms: C_27  and  O_30
REMARK    8  A    between atoms: O_30  and  C_31
REMARK                            x       y       z     vdW  Elec       q    Type
REMARK                         _______ _______ _______ _____ _____    ______ ____
ROOT
ATOM      1  N   UNL     1      -1.430  -0.345   0.018  0.00  0.00    -0.309 N 
ATOM      2  C   UNL     1      -2.013  -0.700   1.180  0.00  0.00    +0.239 C 
ATOM      3  O   UNL     1      -1.384  -0.638   2.221  0.00  0.00    -0.271 OA
ATOM      4  H   UNL     1      -1.931  -0.395  -0.811  0.00  0.00    +0.149 HD
ENDROOT
BRANCH   2   5
ATOM      5  C   UNL     1      -3.356  -1.145   1.191  0.00  0.00    +0.086 C 
ATOM      6  C   UNL     1      -3.977  -1.385   2.364  0.00  0.00    +0.020 C 
ATOM      7  C   UNL     1      -5.362  -2.016   2.437  0.00  0.00    +0.121 C 
ATOM      8  S   UNL     1      -5.241  -2.843   4.082  0.00  0.00    -0.128 S 
ATOM      9  C   UNL     1      -3.876  -1.803   4.753  0.00  0.00    +0.159 C 
ATOM     10  N   UNL     1      -3.413  -1.087   3.552  0.00  0.00    -0.331 N 
ATOM     11  H   UNL     1      -2.718  -0.413   3.616  0.00  0.00    +0.147 HD
BRANCH   9  12
ATOM     12  C   UNL     1      -2.777  -2.661   5.324  0.00  0.00    -0.017 A 
ATOM     13  C   UNL     1      -1.746  -3.094   4.511  0.00  0.00    +0.010 A 
ATOM     14  C   UNL     1      -0.738  -3.882   5.031  0.00  0.00    +0.046 A 
ATOM     15  C   UNL     1      -0.760  -4.238   6.372  0.00  0.00    +0.120 A 
ATOM     16  C   UNL     1      -1.795  -3.803   7.186  0.00  0.00    +0.046 A 
ATOM     17  C   UNL     1      -2.799  -3.011   6.662  0.00  0.00    +0.010 A 
BRANCH  15  18
ATOM     18  O   UNL     1       0.231  -5.013   6.886  0.00  0.00    -0.495 OA
ATOM     19  C   UNL     1       0.143  -5.341   8.275  0.00  0.00    +0.277 C 
ENDBRANCH  15  18
ENDBRANCH   9  12
ENDBRANCH   2   5
BRANCH   1  21
ATOM     20  C   UNL     1       0.004   1.613   0.316  0.00  0.00    +0.028 C 
ATOM     21  C   UNL     1      -0.039   0.115   0.006  0.00  0.00    +0.074 C 
BRANCH  21  22
ATOM     22  C   UNL     1       0.571  -0.138  -1.374  0.00  0.00    +0.055 C 
BRANCH  22  23
ATOM     23  C   UNL     1       0.640  -1.622  -1.627  0.00  0.00    -0.040 C 
ATOM     24  C   UNL     1      -0.264  -2.377  -2.293  0.00  0.00    -0.001 A 
ATOM     25  C   UNL     1      -1.534  -2.054  -2.954  0.00  0.00    +0.010 A 
ATOM     26  C   UNL     1      -2.234  -3.046  -3.549  0.00  0.00    +0.001 A 
ATOM     27  C   UNL     1      -1.778  -4.372  -3.551  0.00  0.00    +0.002 A 
ATOM     28  C   UNL     1      -0.621  -4.745  -2.965  0.00  0.00    +0.026 A 
ATOM     29  C   UNL     1       0.196  -3.784  -2.309  0.00  0.00    +0.043 A 
ATOM     30  N   UNL     1       1.339  -3.895  -1.678  0.00  0.00    -0.380 N 
ATOM     31  C   UNL     1       1.738  -2.568  -1.194  0.00  0.00    +0.144 C 
ATOM     32  H   UNL     1       1.840  -4.716  -1.554  0.00  0.00    +0.160 HD
ENDBRANCH  22  23
ENDBRANCH  21  22
ENDBRANCH   1  21
TORSDOF 6
