REMARK  Name = ZINC41531433
REMARK  5 active torsions:
REMARK  status: ('A' for Active; 'I' for Inactive)
REMARK    1  A    between atoms: C_1  and  C_2
REMARK    2  A    between atoms: C_2  and  N_3
REMARK    3  A    between atoms: N_13  and  C_14
REMARK    4  A    between atoms: C_14  and  C_15
REMARK    5  A    between atoms: N_17  and  C_18
REMARK                            x       y       z     vdW  Elec       q    Type
REMARK                         _______ _______ _______ _____ _____    ______ ____
ROOT
ATOM      1  N   UNL     1      -1.372  -0.511   0.012  0.00  0.00    -0.281 N 
ATOM      2  C   UNL     1      -1.982  -0.741   1.190  0.00  0.00    +0.264 A 
ATOM      3  O   UNL     1      -1.399  -0.529   2.240  0.00  0.00    -0.267 OA
ATOM      4  C   UNL     1      -3.325  -1.236   1.193  0.00  0.00    +0.076 A 
ATOM      5  C   UNL     1      -4.172  -1.554   2.344  0.00  0.00    -0.023 A 
ATOM      6  C   UNL     1      -5.413  -2.011   2.082  0.00  0.00    -0.004 A 
ATOM      7  S   UNL     1      -5.528  -2.044   0.313  0.00  0.00    -0.073 S 
ATOM      8  C   UNL     1      -3.902  -1.444  -0.071  0.00  0.00    +0.117 A 
ATOM      9  N   UNL     1      -3.244  -1.197  -1.198  0.00  0.00    -0.208 NA
ATOM     10  C   UNL     1      -2.011  -0.736  -1.171  0.00  0.00    +0.200 A 
ATOM     11  N   UNL     1      -1.357  -0.484  -2.352  0.00  0.00    -0.306 N 
ATOM     12  C   UNL     1      -6.464  -2.405   3.075  0.00  0.00    +0.043 C 
ATOM     13  C   UNL     1      -5.797  -2.567   4.447  0.00  0.00    +0.005 C 
ATOM     14  C   UNL     1      -4.907  -1.348   4.708  0.00  0.00    +0.005 C 
ATOM     15  C   UNL     1      -3.691  -1.385   3.782  0.00  0.00    +0.037 C 
ATOM     16  H   UNL     1      -0.447  -0.148  -2.340  0.00  0.00    +0.149 HD
ENDROOT
BRANCH   1  18
ATOM     17  C   UNL     1      -0.019   1.526   0.010  0.00  0.00    +0.027 C 
ATOM     18  C   UNL     1       0.002  -0.004   0.002  0.00  0.00    +0.125 C 
ENDBRANCH   1  18
BRANCH  11  19
ATOM     19  C   UNL     1      -2.034  -0.723  -3.629  0.00  0.00    +0.200 C 
BRANCH  19  20
ATOM     20  C   UNL     1      -1.105  -0.370  -4.763  0.00  0.00    +0.230 C 
ATOM     21  O   UNL     1       0.011   0.040  -4.527  0.00  0.00    -0.274 OA
ATOM     22  N   UNL     1      -1.516  -0.510  -6.039  0.00  0.00    -0.317 N 
ATOM     23  C   UNL     1      -0.614  -0.167  -7.141  0.00  0.00    +0.128 C 
ATOM     24  H   UNL     1      -2.409  -0.838  -6.227  0.00  0.00    +0.148 HD
ENDBRANCH  19  20
ENDBRANCH  11  19
TORSDOF 3
