REMARK  Name = ZINC26961072
REMARK  13 active torsions:
REMARK  status: ('A' for Active; 'I' for Inactive)
REMARK    1  A    between atoms: C_1  and  C_2
REMARK    2  A    between atoms: C_2  and  C_3
REMARK    3  A    between atoms: C_3  and  C_4
REMARK    4  A    between atoms: C_4  and  C_5
REMARK    5  A    between atoms: C_14  and  C_16
REMARK    6  A    between atoms: C_14  and  C_17
REMARK    7  A    between atoms: C_18  and  S_22
REMARK    8  A    between atoms: N_20  and  N_21
REMARK    9  A    between atoms: S_22  and  C_23
REMARK   10  A    between atoms: C_23  and  C_24
REMARK   11  A    between atoms: N_26  and  C_27
REMARK   12  A    between atoms: C_30  and  O_33
REMARK   13  A    between atoms: O_33  and  C_34
REMARK                            x       y       z     vdW  Elec       q    Type
REMARK                         _______ _______ _______ _____ _____    ______ ____
ROOT
ATOM      1  C   UNL     1      -3.864   8.530  -1.078  0.00  0.00    +0.114 C 
ATOM      2  N   UNL     1      -3.633   9.425  -0.147  0.00  0.00    -0.228 NA
ATOM      3  C   UNL     1      -3.773   9.047   1.141  0.00  0.00    +0.109 A 
ATOM      4  C   UNL     1      -3.931   7.747   1.577  0.00  0.00    +0.021 A 
ATOM      5  C   UNL     1      -4.079   7.538   2.948  0.00  0.00    -0.024 A 
ATOM      6  C   UNL     1      -4.043   8.635   3.758  0.00  0.00    +0.021 A 
ATOM      7  S   UNL     1      -3.810   9.990   2.638  0.00  0.00    -0.071 S 
ATOM      8  C   UNL     1      -4.175   8.648   5.245  0.00  0.00    +0.203 C 
ATOM      9  O   UNL     1      -4.660   7.358   5.655  0.00  0.00    -0.368 OA
ATOM     10  C   UNL     1      -3.945   6.268   5.068  0.00  0.00    +0.068 C 
ATOM     11  C   UNL     1      -4.273   6.160   3.576  0.00  0.00    +0.071 C 
ATOM     12  C   UNL     1      -4.340   4.967   5.769  0.00  0.00    +0.041 C 
ATOM     13  C   UNL     1      -2.442   6.496   5.242  0.00  0.00    +0.041 C 
ATOM     14  C   UNL     1      -3.927   6.642   0.521  0.00  0.00    +0.182 C 
ATOM     15  N   UNL     1      -4.311   7.276  -0.750  0.00  0.00    -0.239 N 
ENDROOT
BRANCH  15  16
ATOM     16  N   UNL     1      -5.124   6.605  -1.618  0.00  0.00    -0.252 NA
ATOM     17  H   UNL     1      -5.382   5.623  -1.194  0.00  0.00    +0.141 HD
ATOM     18  H   UNL     1      -6.044   7.186  -1.783  0.00  0.00    +0.141 HD
ENDBRANCH  15  16
BRANCH   1  19
ATOM     19  C   UNL     1      -3.635   8.885  -2.524  0.00  0.00    +0.073 C 
BRANCH  19  20
ATOM     20  C   UNL     1      -3.141  10.329  -2.623  0.00  0.00    +0.007 C 
BRANCH  20  22
ATOM     21  C   UNL     1      -2.415  12.134  -4.191  0.00  0.00    +0.004 C 
ATOM     22  C   UNL     1      -2.909  10.689  -4.092  0.00  0.00    -0.003 C 
ENDBRANCH  20  22
ENDBRANCH  19  20
ENDBRANCH   1  19
BRANCH  14  23
ATOM     23  S   UNL     1      -2.268   5.922   0.380  0.00  0.00    -0.123 S 
BRANCH  23  24
ATOM     24  C   UNL     1      -2.573   4.139   0.252  0.00  0.00    +0.167 C 
BRANCH  24  25
ATOM     25  C   UNL     1      -1.259   3.412   0.128  0.00  0.00    +0.227 C 
ATOM     26  O   UNL     1      -0.219   4.036   0.127  0.00  0.00    -0.275 OA
ATOM     27  N   UNL     1      -1.239   2.069   0.019  0.00  0.00    -0.285 N 
ATOM     28  H   UNL     1      -2.183   1.510  -0.067  0.00  0.00    +0.155 HD
BRANCH  27  29
ATOM     29  C   UNL     1      -0.017   1.384   0.015  0.00  0.00    +0.034 A 
ATOM     30  C   UNL     1       0.126   0.223  -0.732  0.00  0.00    +0.027 A 
ATOM     31  C   UNL     1       1.330  -0.455  -0.731  0.00  0.00    +0.047 A 
ATOM     32  C   UNL     1       2.395   0.024   0.017  0.00  0.00    +0.120 A 
ATOM     33  C   UNL     1       2.252   1.184   0.764  0.00  0.00    +0.047 A 
ATOM     34  C   UNL     1       1.050   1.863   0.764  0.00  0.00    +0.027 A 
BRANCH  32  35
ATOM     35  O   UNL     1       3.579  -0.644   0.018  0.00  0.00    -0.495 OA
ATOM     36  C   UNL     1       3.656  -1.831  -0.773  0.00  0.00    +0.277 C 
ENDBRANCH  32  35
ENDBRANCH  27  29
ENDBRANCH  24  25
ENDBRANCH  23  24
ENDBRANCH  14  23
TORSDOF 9
