REMARK  Name = ZINC63385897
REMARK  8 active torsions:
REMARK  status: ('A' for Active; 'I' for Inactive)
REMARK    1  A    between atoms: C_4  and  C_7
REMARK    2  A    between atoms: C_12  and  O_34
REMARK    3  A    between atoms: C_14  and  O_18
REMARK    4  A    between atoms: O_18  and  C_19
REMARK    5  A    between atoms: C_19  and  C_20
REMARK    6  A    between atoms: N_22  and  C_23
REMARK    7  A    between atoms: C_23  and  C_24
REMARK    8  A    between atoms: C_24  and  C_25
REMARK                            x       y       z     vdW  Elec       q    Type
REMARK                         _______ _______ _______ _____ _____    ______ ____
ROOT
ATOM      1  C   UNL     1       3.695  -0.683  -0.037  0.00  0.00    +0.139 A 
ATOM      2  C   UNL     1       3.687  -2.042  -0.050  0.00  0.00    +0.098 A 
ATOM      3  C   UNL     1       4.915  -2.748  -0.067  0.00  0.00    +0.197 A 
ATOM      4  O   UNL     1       4.945  -3.967  -0.079  0.00  0.00    -0.287 OA
ATOM      5  C   UNL     1       6.153  -1.951  -0.069  0.00  0.00    +0.105 A 
ATOM      6  C   UNL     1       7.412  -2.564  -0.086  0.00  0.00    +0.135 A 
ATOM      7  C   UNL     1       8.551  -1.780  -0.088  0.00  0.00    +0.092 A 
ATOM      8  C   UNL     1       8.445  -0.394  -0.074  0.00  0.00    +0.128 A 
ATOM      9  C   UNL     1       7.202   0.220  -0.057  0.00  0.00    +0.092 A 
ATOM     10  C   UNL     1       6.049  -0.549  -0.055  0.00  0.00    +0.146 A 
ATOM     11  O   UNL     1       4.830   0.032  -0.045  0.00  0.00    -0.454 OA
ENDROOT
BRANCH   1  15
ATOM     12  C   UNL     1      -0.017   1.379   0.010  0.00  0.00    +0.000 A 
ATOM     13  C   UNL     1       1.168   2.094   0.002  0.00  0.00    +0.001 A 
ATOM     14  C   UNL     1       2.377   1.430  -0.013  0.00  0.00    +0.011 A 
ATOM     15  C   UNL     1       2.404   0.034  -0.021  0.00  0.00    +0.017 A 
ATOM     16  C   UNL     1       1.204  -0.681  -0.013  0.00  0.00    +0.011 A 
ATOM     17  C   UNL     1       0.002  -0.004   0.002  0.00  0.00    +0.001 A 
ENDBRANCH   1  15
BRANCH   6  18
ATOM     18  O   UNL     1       7.514  -3.917  -0.099  0.00  0.00    -0.506 OA
ATOM     19  H   UNL     1       7.536  -4.301  -0.986  0.00  0.00    +0.292 HD
ENDBRANCH   6  18
BRANCH   8  20
ATOM     20  O   UNL     1       9.569   0.367  -0.076  0.00  0.00    -0.483 OA
BRANCH  20  21
ATOM     21  C   UNL     1      10.820  -0.325  -0.093  0.00  0.00    +0.324 C 
BRANCH  21  22
ATOM     22  C   UNL     1      11.947   0.676  -0.093  0.00  0.00    +0.251 C 
ATOM     23  O   UNL     1      11.704   1.864  -0.080  0.00  0.00    -0.272 OA
ATOM     24  N   UNL     1      13.226   0.250  -0.108  0.00  0.00    -0.312 N 
ATOM     25  H   UNL     1      13.421  -0.700  -0.119  0.00  0.00    +0.149 HD
BRANCH  24  26
ATOM     26  C   UNL     1      14.322   1.222  -0.108  0.00  0.00    +0.108 C 
BRANCH  26  27
ATOM     27  C   UNL     1      15.660   0.482  -0.126  0.00  0.00    +0.052 C 
BRANCH  27  28
ATOM     28  C   UNL     1      16.788   1.483  -0.126  0.00  0.00    -0.040 C 
ATOM     29  C   UNL     1      17.471   1.938   0.948  0.00  0.00    -0.001 A 
ATOM     30  C   UNL     1      17.372   1.649   2.384  0.00  0.00    +0.010 A 
ATOM     31  C   UNL     1      18.213   2.276   3.238  0.00  0.00    +0.001 A 
ATOM     32  C   UNL     1      19.174   3.192   2.788  0.00  0.00    +0.002 A 
ATOM     33  C   UNL     1      19.325   3.508   1.484  0.00  0.00    +0.026 A 
ATOM     34  C   UNL     1      18.494   2.908   0.498  0.00  0.00    +0.043 A 
ATOM     35  N   UNL     1      18.445   3.048  -0.804  0.00  0.00    -0.380 N 
ATOM     36  C   UNL     1      17.388   2.176  -1.329  0.00  0.00    +0.144 C 
ATOM     37  H   UNL     1      19.015   3.628  -1.334  0.00  0.00    +0.160 HD
ENDBRANCH  27  28
ENDBRANCH  26  27
ENDBRANCH  24  26
ENDBRANCH  21  22
ENDBRANCH  20  21
ENDBRANCH   8  20
TORSDOF 8
