REMARK  Name = ZINC08816237
REMARK  10 active torsions:
REMARK  status: ('A' for Active; 'I' for Inactive)
REMARK    1  A    between atoms: C_1  and  C_2
REMARK    2  A    between atoms: C_2  and  C_14
REMARK    3  A    between atoms: N_3  and  N_4
REMARK    4  A    between atoms: C_5  and  C_7
REMARK    5  A    between atoms: C_7  and  C_8
REMARK    6  A    between atoms: C_8  and  C_13
REMARK    7  A    between atoms: C_27  and  C_30
REMARK    8  A    between atoms: C_33  and  C_36
REMARK    9  A    between atoms: C_36  and  O_38
REMARK   10  A    between atoms: O_38  and  C_39
REMARK                            x       y       z     vdW  Elec       q    Type
REMARK                         _______ _______ _______ _____ _____    ______ ____
ROOT
ATOM      1  C   UNL     1       1.975  -6.220   3.169  0.00  0.00    -0.002 A 
ATOM      2  C   UNL     1       2.604  -6.920   4.203  0.00  0.00    +0.011 A 
ATOM      3  C   UNL     1       2.611  -8.297   4.185  0.00  0.00    +0.024 A 
ATOM      4  C   UNL     1       2.005  -8.987   3.139  0.00  0.00    +0.031 A 
ATOM      5  C   UNL     1       1.382  -8.302   2.104  0.00  0.00    -0.019 A 
ATOM      6  C   UNL     1       1.370  -6.917   2.123  0.00  0.00    +0.015 A 
ATOM      7  C   UNL     1       0.721  -9.007   0.962  0.00  0.00    +0.049 C 
ATOM      8  C   UNL     1      -0.784  -8.966   1.086  0.00  0.00    -0.023 C 
ATOM      9  C   UNL     1      -1.305 -10.088   0.654  0.00  0.00    -0.030 C 
ATOM     10  C   UNL     1      -0.216 -11.030   0.177  0.00  0.00    +0.033 C 
ATOM     11  C   UNL     1       1.056 -10.510   0.907  0.00  0.00    +0.029 C 
ATOM     12  C   UNL     1       1.044 -11.099   2.320  0.00  0.00    +0.105 C 
ATOM     13  N   UNL     1       2.027 -10.384   3.141  0.00  0.00    -0.336 N 
ATOM     14  H   UNL     1       2.677 -10.870   3.674  0.00  0.00    +0.147 HD
ENDROOT
BRANCH  12  15
ATOM     15  C   UNL     1      -0.328 -10.939   2.922  0.00  0.00    -0.027 A 
ATOM     16  C   UNL     1      -0.703  -9.724   3.468  0.00  0.00    +0.006 A 
ATOM     17  C   UNL     1      -1.960  -9.570   4.015  0.00  0.00    +0.015 A 
ATOM     18  C   UNL     1      -2.850 -10.646   4.028  0.00  0.00    +0.059 A 
ATOM     19  C   UNL     1      -2.462 -11.870   3.480  0.00  0.00    +0.015 A 
ATOM     20  C   UNL     1      -1.205 -12.009   2.931  0.00  0.00    +0.006 A 
BRANCH  18  21
ATOM     21  C   UNL     1      -4.195 -10.489   4.619  0.00  0.00    +0.339 C 
ATOM     22  O   UNL     1      -4.966 -11.427   4.629  0.00  0.00    -0.245 OA
BRANCH  21  23
ATOM     23  O   UNL     1      -4.565  -9.306   5.146  0.00  0.00    -0.464 OA
ATOM     24  C   UNL     1      -5.901  -9.225   5.709  0.00  0.00    +0.280 C 
ENDBRANCH  21  23
ENDBRANCH  18  21
ENDBRANCH  12  15
BRANCH   1  26
ATOM     25  C   UNL     1       2.611  -3.994   4.310  0.00  0.00    +0.068 C 
ATOM     26  C   UNL     1       1.957  -4.747   3.180  0.00  0.00    +0.063 C 
ATOM     27  N   UNL     1       1.378  -4.097   2.217  0.00  0.00    -0.185 NA
BRANCH  27  28
ATOM     28  N   UNL     1       1.361  -2.696   2.228  0.00  0.00    -0.207 N 
ATOM     29  C   UNL     1       0.760  -2.022   1.228  0.00  0.00    +0.237 C 
ATOM     30  O   UNL     1       0.233  -2.628   0.319  0.00  0.00    -0.274 OA
ATOM     31  H   UNL     1       1.782  -2.212   2.956  0.00  0.00    +0.177 HD
BRANCH  29  32
ATOM     32  C   UNL     1       0.741  -0.515   1.240  0.00  0.00    +0.162 C 
BRANCH  32  33
ATOM     33  C   UNL     1       0.002  -0.004   0.002  0.00  0.00    +0.176 C 
ATOM     34  O   UNL     1       0.664  -0.470  -1.181  0.00  0.00    -0.346 OA
ATOM     35  C   UNL     1      -0.284  -1.256  -1.925  0.00  0.00    +0.191 C 
ATOM     36  C   UNL     1      -1.649  -0.754  -1.391  0.00  0.00    +0.191 C 
ATOM     37  O   UNL     1      -1.345  -0.505   0.003  0.00  0.00    -0.346 OA
ATOM     38  C   UNL     1      -0.019   1.526   0.010  0.00  0.00    +0.074 C 
ENDBRANCH  32  33
ENDBRANCH  29  32
ENDBRANCH  27  28
ENDBRANCH   1  26
TORSDOF 7
