REMARK  Name = ZINC14550259
REMARK  8 active torsions:
REMARK  status: ('A' for Active; 'I' for Inactive)
REMARK    1  A    between atoms: C_1  and  C_2
REMARK    2  A    between atoms: C_4  and  C_36
REMARK    3  A    between atoms: C_6  and  N_8
REMARK    4  A    between atoms: N_8  and  S_9
REMARK    5  A    between atoms: S_9  and  C_12
REMARK    6  A    between atoms: C_25  and  C_28
REMARK    7  A    between atoms: C_32  and  O_34
REMARK    8  A    between atoms: O_34  and  C_35
REMARK                            x       y       z     vdW  Elec       q    Type
REMARK                         _______ _______ _______ _____ _____    ______ ____
ROOT
ATOM      1  C   UNL     1      -4.261   2.982   0.686  0.00  0.00    +0.109 A 
ATOM      2  C   UNL     1      -3.640   4.135   1.131  0.00  0.00    +0.030 A 
ATOM      3  C   UNL     1      -4.155   5.367   0.780  0.00  0.00    +0.025 A 
ATOM      4  C   UNL     1      -5.297   5.445  -0.006  0.00  0.00    +0.031 A 
ATOM      5  C   UNL     1      -5.926   4.292  -0.449  0.00  0.00    -0.018 A 
ATOM      6  C   UNL     1      -5.396   3.059  -0.094  0.00  0.00    +0.034 A 
ATOM      7  C   UNL     1      -7.159   4.326  -1.295  0.00  0.00    +0.049 C 
ATOM      8  C   UNL     1      -6.850   3.985  -2.734  0.00  0.00    -0.023 C 
ATOM      9  C   UNL     1      -7.596   4.676  -3.544  0.00  0.00    -0.030 C 
ATOM     10  C   UNL     1      -8.503   5.605  -2.761  0.00  0.00    +0.033 C 
ATOM     11  C   UNL     1      -7.789   5.730  -1.383  0.00  0.00    +0.029 C 
ATOM     12  C   UNL     1      -6.691   6.787  -1.533  0.00  0.00    +0.105 C 
ATOM     13  N   UNL     1      -5.788   6.701  -0.380  0.00  0.00    -0.336 N 
ATOM     14  H   UNL     1      -5.545   7.495   0.121  0.00  0.00    +0.147 HD
ENDROOT
BRANCH  12  15
ATOM     15  C   UNL     1      -5.916   6.533  -2.800  0.00  0.00    -0.024 A 
ATOM     16  C   UNL     1      -4.934   5.560  -2.827  0.00  0.00    +0.006 A 
ATOM     17  C   UNL     1      -4.222   5.325  -3.988  0.00  0.00    +0.004 A 
ATOM     18  C   UNL     1      -4.490   6.062  -5.125  0.00  0.00    +0.045 A 
ATOM     19  C   UNL     1      -5.475   7.038  -5.102  0.00  0.00    +0.120 A 
ATOM     20  C   UNL     1      -6.192   7.269  -3.936  0.00  0.00    +0.051 A 
BRANCH  19  21
ATOM     21  O   UNL     1      -5.741   7.765  -6.219  0.00  0.00    -0.495 OA
ATOM     22  C   UNL     1      -4.967   7.470  -7.384  0.00  0.00    +0.277 C 
ENDBRANCH  19  21
ENDBRANCH  12  15
BRANCH   1  23
ATOM     23  S   UNL     1      -3.603   1.407   1.125  0.00  0.00    +0.072 S 
ATOM     24  O   UNL     1      -4.665   0.472   0.992  0.00  0.00    -0.150 OA
ATOM     25  O   UNL     1      -2.896   1.588   2.345  0.00  0.00    -0.150 OA
BRANCH  23  26
ATOM     26  N   UNL     1      -2.476   1.010  -0.021  0.00  0.00    -0.216 N 
ATOM     27  H   UNL     1      -2.614   0.236  -0.590  0.00  0.00    +0.174 HD
BRANCH  26  33
ATOM     28  C   UNL     1       1.945   2.386   1.626  0.00  0.00    +0.044 C 
ATOM     29  C   UNL     1       0.833   2.477   0.613  0.00  0.00    -0.048 A 
ATOM     30  C   UNL     1       0.947   3.339  -0.462  0.00  0.00    +0.006 A 
ATOM     31  C   UNL     1      -0.071   3.426  -1.394  0.00  0.00    -0.048 A 
ATOM     32  C   UNL     1      -1.206   2.653  -1.252  0.00  0.00    +0.028 A 
ATOM     33  C   UNL     1      -1.327   1.790  -0.170  0.00  0.00    +0.049 A 
ATOM     34  C   UNL     1      -0.300   1.701   0.761  0.00  0.00    +0.028 A 
ATOM     35  C   UNL     1       0.057   4.367  -2.564  0.00  0.00    +0.044 C 
ENDBRANCH  26  33
ENDBRANCH  23  26
ENDBRANCH   1  23
TORSDOF 5
