REMARK  Name = ZINC05379177
REMARK  7 active torsions:
REMARK  status: ('A' for Active; 'I' for Inactive)
REMARK    1  A    between atoms: C_1  and  C_2
REMARK    2  A    between atoms: C_4  and  O_9
REMARK    3  A    between atoms: O_9  and  C_10
REMARK    4  A    between atoms: C_10  and  C_11
REMARK    5  A    between atoms: N_13  and  N_14
REMARK    6  A    between atoms: C_15  and  C_16
REMARK    7  A    between atoms: C_18  and  O_23
REMARK                            x       y       z     vdW  Elec       q    Type
REMARK                         _______ _______ _______ _____ _____    ______ ____
ROOT
ATOM      1  C   UNL     1      -3.690  -1.540   0.011  0.00  0.00    +0.270 C 
ATOM      2  O   UNL     1      -2.633  -2.135   0.003  0.00  0.00    -0.270 OA
ATOM      3  N   UNL     1      -3.704  -0.192   0.018  0.00  0.00    -0.204 N 
ATOM      4  H   UNL     1      -4.549   0.284   0.025  0.00  0.00    +0.177 HD
ENDROOT
BRANCH   3   5
ATOM      5  N   UNL     1      -2.498   0.521   0.017  0.00  0.00    -0.188 NA
ATOM      6  C   UNL     1      -2.512   1.819   0.024  0.00  0.00    +0.139 C 
BRANCH   6   7
ATOM      7  C   UNL     1      -1.243   2.570   0.022  0.00  0.00    +0.012 A 
ATOM      8  C   UNL     1      -1.254   3.966   0.035  0.00  0.00    +0.056 A 
ATOM      9  C   UNL     1      -0.059   4.664   0.027  0.00  0.00    +0.118 A 
ATOM     10  C   UNL     1       1.148   3.976   0.012  0.00  0.00    +0.046 A 
ATOM     11  C   UNL     1       1.162   2.594   0.005  0.00  0.00    +0.019 A 
ATOM     12  C   UNL     1      -0.024   1.887   0.012  0.00  0.00    +0.027 A 
ATOM     13 BR   UNL     1       0.002  -0.004   0.002  0.00  0.00    -0.050 Br
BRANCH   9  14
ATOM     14  O   UNL     1      -0.066   6.023   0.034  0.00  0.00    -0.507 OA
ATOM     15  H   UNL     1      -0.077   6.421  -0.847  0.00  0.00    +0.292 HD
ENDBRANCH   9  14
ENDBRANCH   6   7
ENDBRANCH   3   5
BRANCH   1  16
ATOM     16  C   UNL     1      -4.987  -2.307   0.013  0.00  0.00    +0.326 C 
BRANCH  16  17
ATOM     17  O   UNL     1      -4.711  -3.709   0.004  0.00  0.00    -0.483 OA
BRANCH  17  21
ATOM     18  C   UNL     1      -6.461  -8.265  -0.013  0.00  0.00    +0.045 C 
ATOM     19  C   UNL     1      -6.673  -6.773  -0.003  0.00  0.00    -0.029 A 
ATOM     20  C   UNL     1      -5.585  -5.922  -0.004  0.00  0.00    +0.050 A 
ATOM     21  C   UNL     1      -5.780  -4.548   0.004  0.00  0.00    +0.122 A 
ATOM     22  C   UNL     1      -7.068  -4.033   0.019  0.00  0.00    +0.047 A 
ATOM     23  C   UNL     1      -8.153  -4.887   0.015  0.00  0.00    +0.024 A 
ATOM     24  C   UNL     1      -7.956  -6.257   0.006  0.00  0.00    +0.044 A 
ATOM     25 CL   UNL     1      -9.322  -7.329   0.007  0.00  0.00    -0.083 Cl
ENDBRANCH  17  21
ENDBRANCH  16  17
ENDBRANCH   1  16
TORSDOF 6
