REMARK  Name = ZINC00881874
REMARK  5 active torsions:
REMARK  status: ('A' for Active; 'I' for Inactive)
REMARK    1  A    between atoms: C_1  and  C_2
REMARK    2  A    between atoms: C_6  and  C_8
REMARK    3  A    between atoms: C_13  and  C_18
REMARK    4  A    between atoms: C_13  and  C_19
REMARK    5  A    between atoms: C_25  and  O_27
REMARK                            x       y       z     vdW  Elec       q    Type
REMARK                         _______ _______ _______ _____ _____    ______ ____
ROOT
ATOM      1  C   UNL     1       2.455   1.361   0.156  0.00  0.00    +0.058 C 
ATOM      2  C   UNL     1       3.320   1.642   1.387  0.00  0.00    +0.081 C 
ATOM      3  C   UNL     1       4.716   1.060   1.141  0.00  0.00    +0.182 C 
ATOM      4  C   UNL     1       5.571   1.239   2.399  0.00  0.00    +0.094 C 
ATOM      5  C   UNL     1       6.920   0.547   2.174  0.00  0.00    +0.036 C 
ATOM      6  N   UNL     1       6.688  -0.852   1.810  0.00  0.00    -0.294 N 
ATOM      7  C   UNL     1       5.575  -1.230   1.164  0.00  0.00    +0.303 C 
ATOM      8  O   UNL     1       5.439  -2.402   0.872  0.00  0.00    -0.253 OA
ATOM      9  N   UNL     1       4.607  -0.364   0.826  0.00  0.00    -0.262 N 
ATOM     10  C   UNL     1       7.748   0.611   3.459  0.00  0.00    +0.031 C 
ATOM     11  C   UNL     1       7.675   1.251   1.044  0.00  0.00    +0.031 C 
ATOM     12  O   UNL     1       5.315   1.756   0.049  0.00  0.00    -0.468 OA
ATOM     13  C   UNL     1       4.582   1.916  -1.084  0.00  0.00    +0.131 A 
ATOM     14  C   UNL     1       3.208   1.747  -1.093  0.00  0.00    +0.004 A 
ATOM     15  C   UNL     1       2.496   1.933  -2.267  0.00  0.00    +0.031 A 
ATOM     16  C   UNL     1       3.151   2.283  -3.432  0.00  0.00    +0.083 A 
ATOM     17  C   UNL     1       4.529   2.449  -3.428  0.00  0.00    +0.139 A 
ATOM     18  C   UNL     1       5.242   2.266  -2.256  0.00  0.00    +0.093 A 
ATOM     19 CL   UNL     1       2.251   2.514  -4.898  0.00  0.00    -0.080 Cl
ATOM     20  H   UNL     1       7.353  -1.519   2.041  0.00  0.00    +0.151 HD
ATOM     21  H   UNL     1       3.818  -0.690   0.365  0.00  0.00    +0.154 HD
ENDROOT
BRANCH   1  27
ATOM     22  C   UNL     1      -2.541   1.557   0.360  0.00  0.00    +0.044 C 
ATOM     23  C   UNL     1      -1.207   2.258   0.341  0.00  0.00    -0.050 A 
ATOM     24  C   UNL     1      -1.151   3.638   0.403  0.00  0.00    +0.003 A 
ATOM     25  C   UNL     1       0.072   4.281   0.379  0.00  0.00    +0.001 A 
ATOM     26  C   UNL     1       1.240   3.545   0.299  0.00  0.00    +0.004 A 
ATOM     27  C   UNL     1       1.183   2.165   0.243  0.00  0.00    -0.039 A 
ATOM     28  C   UNL     1      -0.040   1.521   0.267  0.00  0.00    +0.007 A 
ENDBRANCH   1  27
BRANCH  17  29
ATOM     29  O   UNL     1       5.177   2.792  -4.573  0.00  0.00    -0.505 OA
ATOM     30  H   UNL     1       5.468   2.036  -5.101  0.00  0.00    +0.292 HD
ENDBRANCH  17  29
TORSDOF 2
