REMARK  Name = ZINC02661594
REMARK  11 active torsions:
REMARK  status: ('A' for Active; 'I' for Inactive)
REMARK    1  A    between atoms: C_1  and  C_2
REMARK    2  A    between atoms: C_2  and  O_3
REMARK    3  A    between atoms: O_3  and  C_4
REMARK    4  A    between atoms: C_4  and  C_6
REMARK    5  A    between atoms: C_7  and  C_33
REMARK    6  A    between atoms: C_11  and  C_15
REMARK    7  A    between atoms: C_15  and  N_57
REMARK    8  A    between atoms: C_16  and  C_17
REMARK    9  A    between atoms: C_16  and  N_57
REMARK   10  A    between atoms: N_24  and  C_25
REMARK   11  A    between atoms: C_25  and  C_26
REMARK                            x       y       z     vdW  Elec       q    Type
REMARK                         _______ _______ _______ _____ _____    ______ ____
ROOT
ATOM      1  C   UNL     1       3.267   3.402   0.346  0.00  0.00    +0.102 A 
ATOM      2  C   UNL     1       3.443   2.090   0.028  0.00  0.00    -0.017 A 
ATOM      3  C   UNL     1       2.335   1.294  -0.289  0.00  0.00    +0.051 A 
ATOM      4  C   UNL     1       2.287  -0.086  -0.647  0.00  0.00    +0.131 A 
ATOM      5  N   UNL     1       1.116  -0.644  -0.909  0.00  0.00    -0.219 NA
ATOM      6  C   UNL     1      -0.017   0.033  -0.851  0.00  0.00    +0.116 A 
ATOM      7  N   UNL     1      -0.039   1.311  -0.526  0.00  0.00    -0.227 NA
ATOM      8  C   UNL     1       1.079   1.949  -0.249  0.00  0.00    +0.114 A 
ATOM      9  S   UNL     1       1.499   3.608   0.218  0.00  0.00    -0.062 S 
ATOM     10  N   UNL     1       3.447  -0.830  -0.720  0.00  0.00    -0.324 N 
ATOM     11  C   UNL     1       4.828   1.495   0.016  0.00  0.00    +0.046 C 
ATOM     12  H   UNL     1       4.308  -0.396  -0.617  0.00  0.00    +0.148 HD
ENDROOT
BRANCH   1  13
ATOM     13  C   UNL     1       4.280   4.400   0.706  0.00  0.00    +0.346 C 
ATOM     14  O   UNL     1       5.454   4.087   0.746  0.00  0.00    -0.244 OA
BRANCH  13  15
ATOM     15  O   UNL     1       3.909   5.665   0.992  0.00  0.00    -0.461 OA
BRANCH  15  17
ATOM     16  C   UNL     1       4.356   7.972   1.629  0.00  0.00    +0.048 C 
ATOM     17  C   UNL     1       4.965   6.599   1.339  0.00  0.00    +0.229 C 
ENDBRANCH  15  17
ENDBRANCH  13  15
ENDBRANCH   1  13
BRANCH   6  18
ATOM     18  C   UNL     1      -1.312  -0.671  -1.163  0.00  0.00    -0.005 C 
BRANCH  18  19
ATOM     19  N   UNL     1      -1.591  -0.553  -2.607  0.00  0.00    +0.386 N 
ATOM     20  H   UNL     1      -0.824  -0.983  -3.137  0.00  0.00    -0.085 HD
ATOM     21  H   UNL     1      -1.665   0.440  -2.857  0.00  0.00    -0.085 HD
BRANCH  19  22
ATOM     22  C   UNL     1      -2.856  -1.234  -2.942  0.00  0.00    -0.043 C 
BRANCH  22  23
ATOM     23  C   UNL     1      -3.114  -1.097  -4.420  0.00  0.00    -0.029 A 
ATOM     24  C   UNL     1      -4.004  -0.145  -4.881  0.00  0.00    +0.004 A 
ATOM     25  C   UNL     1      -4.237  -0.015  -6.237  0.00  0.00    +0.000 A 
ATOM     26  C   UNL     1      -3.589  -0.845  -7.133  0.00  0.00    +0.003 A 
ATOM     27  C   UNL     1      -2.703  -1.801  -6.675  0.00  0.00    +0.038 A 
ATOM     28  C   UNL     1      -2.465  -1.928  -5.317  0.00  0.00    +0.125 A 
ATOM     29  F   UNL     1      -1.599  -2.862  -4.867  0.00  0.00    -0.205 F 
ENDBRANCH  22  23
ENDBRANCH  19  22
ENDBRANCH  18  19
ENDBRANCH   6  18
BRANCH  10  30
ATOM     30  C   UNL     1       3.377  -2.275  -0.952  0.00  0.00    +0.141 C 
BRANCH  30  31
ATOM     31  C   UNL     1       4.772  -2.846  -0.988  0.00  0.00    +0.005 A 
ATOM     32  C   UNL     1       5.377  -3.117  -2.201  0.00  0.00    +0.008 A 
ATOM     33  C   UNL     1       6.658  -3.635  -2.234  0.00  0.00    +0.000 A 
ATOM     34  C   UNL     1       7.331  -3.893  -1.055  0.00  0.00    +0.003 A 
ATOM     35  C   UNL     1       6.726  -3.628   0.159  0.00  0.00    +0.038 A 
ATOM     36  C   UNL     1       5.445  -3.103   0.194  0.00  0.00    +0.128 A 
ATOM     37  F   UNL     1       4.853  -2.844   1.380  0.00  0.00    -0.205 F 
ENDBRANCH  30  31
ENDBRANCH  10  30
TORSDOF 9
