REMARK  Name = ZINC39937990
REMARK  8 active torsions:
REMARK  status: ('A' for Active; 'I' for Inactive)
REMARK    1  A    between atoms: C_1  and  C_2
REMARK    2  A    between atoms: C_5  and  C_17
REMARK    3  A    between atoms: C_7  and  C_16
REMARK    4  A    between atoms: C_18  and  C_19
REMARK    5  A    between atoms: C_18  and  C_21
REMARK    6  A    between atoms: N_23  and  C_24
REMARK    7  A    between atoms: C_24  and  C_25
REMARK    8  A    between atoms: C_25  and  C_26
REMARK                            x       y       z     vdW  Elec       q    Type
REMARK                         _______ _______ _______ _____ _____    ______ ____
ROOT
ATOM      1  C   UNL     1       2.391  -2.521  -1.900  0.00  0.00    +0.002 C 
ATOM      2  C   UNL     1       3.536  -2.333  -2.584  0.00  0.00    +0.110 C 
ENDROOT
BRANCH   1   6
ATOM      3  C   UNL     1       1.627   0.199   1.859  0.00  0.00    +0.028 C 
ATOM      4  C   UNL     1       0.795  -0.718   0.959  0.00  0.00    +0.073 C 
ATOM      5  C   UNL     1       1.370  -0.711  -0.473  0.00  0.00    +0.031 C 
ATOM      6  C   UNL     1       2.256  -1.985  -0.498  0.00  0.00    +0.035 C 
ATOM      7  C   UNL     1       1.434  -2.953   0.390  0.00  0.00    +0.079 C 
ATOM      8  N   UNL     1       0.865  -2.101   1.454  0.00  0.00    -0.311 N 
ATOM      9  C   UNL     1       0.464  -2.532   2.713  0.00  0.00    +0.099 A 
ATOM     10  C   UNL     1       0.829  -3.799   3.157  0.00  0.00    +0.042 A 
ATOM     11  C   UNL     1       0.423  -4.215   4.412  0.00  0.00    +0.005 A 
ATOM     12  C   UNL     1      -0.338  -3.346   5.185  0.00  0.00    +0.018 A 
ATOM     13  C   UNL     1      -0.664  -2.103   4.681  0.00  0.00    +0.084 A 
ATOM     14  N   UNL     1      -0.258  -1.731   3.482  0.00  0.00    -0.350 N 
ATOM     15  C   UNL     1       0.315  -3.604  -0.426  0.00  0.00    +0.028 C 
ATOM     16  H   UNL     1      -0.498  -0.850   3.154  0.00  0.00    +0.166 HD
ENDBRANCH   1   6
BRANCH   2  17
ATOM     17  C   UNL     1       4.546  -1.377  -2.087  0.00  0.00    +0.254 C 
ATOM     18  O   UNL     1       4.294  -0.669  -1.131  0.00  0.00    -0.269 OA
ATOM     19  N   UNL     1       5.747  -1.288  -2.693  0.00  0.00    -0.310 N 
ATOM     20  H   UNL     1       5.947  -1.853  -3.456  0.00  0.00    +0.149 HD
BRANCH  19  21
ATOM     21  C   UNL     1       6.748  -0.340  -2.200  0.00  0.00    +0.109 C 
BRANCH  21  22
ATOM     22  C   UNL     1       8.011  -0.439  -3.057  0.00  0.00    +0.056 C 
BRANCH  22  23
ATOM     23  C   UNL     1       9.041   0.536  -2.550  0.00  0.00    -0.021 A 
ATOM     24  C   UNL     1       9.996   0.309  -1.463  0.00  0.00    +0.003 A 
ATOM     25  C   UNL     1      10.260  -0.766  -0.612  0.00  0.00    +0.010 A 
ATOM     26  C   UNL     1      11.247  -0.663   0.327  0.00  0.00    +0.001 A 
ATOM     27  C   UNL     1      11.991   0.504   0.442  0.00  0.00    +0.002 A 
ATOM     28  C   UNL     1      11.747   1.577  -0.388  0.00  0.00    +0.026 A 
ATOM     29  C   UNL     1      10.747   1.493  -1.350  0.00  0.00    +0.047 A 
ATOM     30  N   UNL     1      10.274   2.366  -2.304  0.00  0.00    -0.360 N 
ATOM     31  C   UNL     1       9.262   1.777  -3.012  0.00  0.00    +0.087 A 
ATOM     32  H   UNL     1      10.610   3.264  -2.454  0.00  0.00    +0.165 HD
ENDBRANCH  22  23
ENDBRANCH  21  22
ENDBRANCH  19  21
ENDBRANCH   2  17
BRANCH   2  33
ATOM     33  C   UNL     1       3.774  -3.061  -3.794  0.00  0.00    +0.104 C 
ATOM     34  N   UNL     1       3.963  -3.639  -4.754  0.00  0.00    -0.191 NA
ENDBRANCH   2  33
TORSDOF 6
