REMARK  Name = ZINC03262948
REMARK  13 active torsions:
REMARK  status: ('A' for Active; 'I' for Inactive)
REMARK    1  A    between atoms: C_1  and  C_2
REMARK    2  A    between atoms: C_4  and  C_34
REMARK    3  A    between atoms: C_6  and  S_8
REMARK    4  A    between atoms: S_8  and  C_9
REMARK    5  A    between atoms: C_9  and  C_10
REMARK    6  A    between atoms: C_13  and  C_16
REMARK    7  A    between atoms: N_18  and  N_19
REMARK    8  A    between atoms: N_19  and  C_20
REMARK    9  A    between atoms: C_20  and  C_22
REMARK   10  A    between atoms: C_23  and  C_24
REMARK   11  A    between atoms: C_26  and  C_33
REMARK   12  A    between atoms: C_30  and  C_31
REMARK   13  A    between atoms: C_30  and  C_32
REMARK                            x       y       z     vdW  Elec       q    Type
REMARK                         _______ _______ _______ _____ _____    ______ ____
ROOT
ATOM      1  C   UNL     1       0.097  -3.857   9.188  0.00  0.00    +0.260 C 
ATOM      2  O   UNL     1      -0.950  -4.120   9.747  0.00  0.00    -0.269 OA
ATOM      3  N   UNL     1       1.270  -4.107   9.801  0.00  0.00    -0.232 N 
ATOM      4  H   UNL     1       2.106  -3.897   9.355  0.00  0.00    +0.173 HD
ENDROOT
BRANCH   1   8
ATOM      5  C   UNL     1       0.056  -2.148   5.299  0.00  0.00    -0.037 A 
ATOM      6  C   UNL     1      -1.137  -2.447   5.933  0.00  0.00    +0.005 A 
ATOM      7  C   UNL     1      -1.131  -3.002   7.196  0.00  0.00    +0.013 A 
ATOM      8  C   UNL     1       0.083  -3.263   7.834  0.00  0.00    +0.038 A 
ATOM      9  C   UNL     1       1.283  -2.959   7.189  0.00  0.00    +0.013 A 
ATOM     10  C   UNL     1       1.262  -2.409   5.924  0.00  0.00    +0.005 A 
BRANCH   5  11
ATOM     11  C   UNL     1       0.041  -1.542   3.919  0.00  0.00    +0.112 C 
BRANCH  11  12
ATOM     12  S   UNL     1       0.053  -2.864   2.678  0.00  0.00    -0.081 S 
BRANCH  12  18
ATOM     13  C   UNL     1      -0.018   1.503   0.010  0.00  0.00    +0.066 C 
ATOM     14  C   UNL     1       0.002  -0.004   0.002  0.00  0.00    +0.043 A 
ATOM     15  C   UNL     1       0.006  -0.699  -1.198  0.00  0.00    +0.046 A 
ATOM     16  C   UNL     1       0.025  -2.084  -1.161  0.00  0.00    +0.043 A 
ATOM     17  N   UNL     1       0.039  -2.699   0.010  0.00  0.00    -0.227 NA
ATOM     18  C   UNL     1       0.035  -2.005   1.140  0.00  0.00    +0.189 A 
ATOM     19  N   UNL     1       0.022  -0.679   1.139  0.00  0.00    -0.227 NA
ATOM     20  C   UNL     1       0.029  -2.881  -2.440  0.00  0.00    +0.066 C 
ENDBRANCH  12  18
ENDBRANCH  11  12
ENDBRANCH   5  11
ENDBRANCH   1   8
BRANCH   3  21
ATOM     21  N   UNL     1       1.284  -4.670  11.084  0.00  0.00    -0.265 N 
ATOM     22  H   UNL     1       0.449  -4.880  11.530  0.00  0.00    +0.170 HD
BRANCH  21  23
ATOM     23  C   UNL     1       2.500  -4.930  11.720  0.00  0.00    +0.037 C 
ATOM     24  C   UNL     1       3.650  -4.641  11.105  0.00  0.00    +0.034 C 
BRANCH  23  25
ATOM     25  C   UNL     1       2.514  -5.523  13.070  0.00  0.00    +0.020 C 
ATOM     26  C   UNL     1       1.371  -5.810  13.681  0.00  0.00    -0.017 C 
BRANCH  26  27
ATOM     27  C   UNL     1       1.386  -6.416  15.061  0.00  0.00    +0.043 C 
ATOM     28  C   UNL     1       0.670  -5.503  16.013  0.00  0.00    -0.069 C 
ATOM     29  C   UNL     1      -0.531  -5.707  16.448  0.00  0.00    -0.027 C 
ATOM     30  C   UNL     1      -1.373  -6.890  16.071  0.00  0.00    +0.028 C 
ATOM     31  C   UNL     1      -0.807  -7.561  14.817  0.00  0.00    +0.011 C 
ATOM     32  C   UNL     1       0.694  -7.780  15.023  0.00  0.00    -0.025 C 
ATOM     33  C   UNL     1       0.930  -8.513  16.345  0.00  0.00    +0.012 C 
ATOM     34  C   UNL     1       1.252  -8.608  13.864  0.00  0.00    +0.012 C 
ATOM     35  C   UNL     1       1.396  -4.272  16.491  0.00  0.00    +0.039 C 
ENDBRANCH  26  27
ENDBRANCH  23  25
ENDBRANCH  21  23
ENDBRANCH   3  21
TORSDOF 8
