REMARK  Name = ZINC62069446
REMARK  8 active torsions:
REMARK  status: ('A' for Active; 'I' for Inactive)
REMARK    1  A    between atoms: C_1  and  C_2
REMARK    2  A    between atoms: C_2  and  C_4
REMARK    3  A    between atoms: C_2  and  C_17
REMARK    4  A    between atoms: C_4  and  N_5
REMARK    5  A    between atoms: N_5  and  S_6
REMARK    6  A    between atoms: S_6  and  C_9
REMARK    7  A    between atoms: C_14  and  N_15
REMARK    8  A    between atoms: C_17  and  N_18
REMARK                            x       y       z     vdW  Elec       q    Type
REMARK                         _______ _______ _______ _____ _____    ______ ____
ROOT
ATOM      1  S   UNL     1       0.680  -0.044  -3.982  0.00  0.00    +0.060 S 
ATOM      2  O   UNL     1      -0.194   0.466  -4.979  0.00  0.00    -0.153 OA
ATOM      3  O   UNL     1       1.929   0.563  -3.681  0.00  0.00    -0.153 OA
ENDROOT
BRANCH   1   4
ATOM      4  C   UNL     1       1.024  -1.715  -4.421  0.00  0.00    +0.127 A 
ATOM      5  C   UNL     1       2.330  -2.165  -4.458  0.00  0.00    +0.045 A 
ATOM      6  C   UNL     1       2.601  -3.477  -4.803  0.00  0.00    +0.020 A 
ATOM      7  C   UNL     1       1.567  -4.343  -5.111  0.00  0.00    +0.017 A 
ATOM      8  C   UNL     1       0.260  -3.898  -5.076  0.00  0.00    +0.026 A 
ATOM      9  C   UNL     1      -0.017  -2.583  -4.724  0.00  0.00    +0.051 A 
ATOM     10 BR   UNL     1       4.390  -4.089  -4.854  0.00  0.00    -0.050 Br
BRANCH   9  11
ATOM     11  N   UNL     1      -1.338  -2.132  -4.681  0.00  0.00    -0.356 N 
ATOM     12  H   UNL     1      -1.537  -1.241  -4.353  0.00  0.00    +0.142 HD
ATOM     13  H   UNL     1      -2.058  -2.711  -4.980  0.00  0.00    +0.142 HD
ENDBRANCH   9  11
ENDBRANCH   1   4
BRANCH   1  14
ATOM     14  N   UNL     1      -0.182  -0.077  -2.568  0.00  0.00    -0.190 NA
ATOM     15  H   UNL     1      -1.098   0.242  -2.551  0.00  0.00    +0.148 HD
BRANCH  14  16
ATOM     16  C   UNL     1       0.438  -0.587  -1.343  0.00  0.00    +0.107 C 
BRANCH  16  18
ATOM     17  C   UNL     1      -0.360   1.362  -0.000  0.00  0.00    +0.007 C 
ATOM     18  C   UNL     1      -0.396  -0.162  -0.133  0.00  0.00    -0.015 C 
BRANCH  18  19
ATOM     19  C   UNL     1       0.181  -0.798   1.133  0.00  0.00    -0.074 C 
BRANCH  19  20
ATOM     20  N   UNL     1      -0.688  -0.488   2.276  0.00  0.00    +0.380 N 
ATOM     21  C   UNL     1      -1.986  -1.195   2.139  0.00  0.00    -0.079 C 
ATOM     22  C   UNL     1      -2.520  -1.241   3.593  0.00  0.00    -0.020 C 
ATOM     23  C   UNL     1      -1.238  -1.475   4.425  0.00  0.00    -0.020 C 
ATOM     24  C   UNL     1      -0.083  -0.993   3.528  0.00  0.00    -0.079 C 
ATOM     25  H   UNL     1      -0.838   0.508   2.339  0.00  0.00    -0.082 HD
ENDBRANCH  19  20
ENDBRANCH  18  19
ENDBRANCH  16  18
ENDBRANCH  14  16
ENDBRANCH   1  14
TORSDOF 7
