REMARK  Name = ZINC44681253
REMARK  14 active torsions:
REMARK  status: ('A' for Active; 'I' for Inactive)
REMARK    1  A    between atoms: C_1  and  C_2
REMARK    2  A    between atoms: C_2  and  O_4
REMARK    3  A    between atoms: O_4  and  C_5
REMARK    4  A    between atoms: C_9  and  C_32
REMARK    5  A    between atoms: C_9  and  C_33
REMARK    6  A    between atoms: C_12  and  C_31
REMARK    7  A    between atoms: C_15  and  O_18
REMARK    8  A    between atoms: O_18  and  C_19
REMARK    9  A    between atoms: C_19  and  C_21
REMARK   10  A    between atoms: C_22  and  O_30
REMARK   11  A    between atoms: C_24  and  C_27
REMARK   12  A    between atoms: C_24  and  C_28
REMARK   13  A    between atoms: C_33  and  O_35
REMARK   14  A    between atoms: O_35  and  C_36
REMARK                            x       y       z     vdW  Elec       q    Type
REMARK                         _______ _______ _______ _____ _____    ______ ____
ROOT
ATOM      1  C   UNL     1      -1.200  -1.907  -0.353  0.00  0.00    +0.187 C 
ATOM      2  C   UNL     1      -1.014  -2.103   1.155  0.00  0.00    +0.046 C 
ATOM      3  C   UNL     1      -0.738  -3.575   1.461  0.00  0.00    +0.022 C 
ATOM      4  C   UNL     1      -1.900  -4.442   0.964  0.00  0.00    +0.069 C 
ATOM      5  C   UNL     1      -2.054  -4.239  -0.543  0.00  0.00    +0.023 C 
ATOM      6  C   UNL     1      -2.366  -2.773  -0.825  0.00  0.00    +0.030 C 
ATOM      7  C   UNL     1      -2.649  -2.548  -2.291  0.00  0.00    -0.055 C 
ATOM      8  C   UNL     1      -3.032  -3.512  -3.076  0.00  0.00    -0.001 C 
ATOM      9  C   UNL     1      -3.186  -4.946  -2.615  0.00  0.00    +0.205 C 
ATOM     10  C   UNL     1      -3.212  -5.076  -1.092  0.00  0.00    +0.055 C 
ATOM     11  C   UNL     1      -3.380  -3.285  -4.534  0.00  0.00    +0.154 C 
ATOM     12  C   UNL     1      -2.777  -1.988  -5.058  0.00  0.00    +0.016 C 
ATOM     13  C   UNL     1      -3.164  -0.868  -4.084  0.00  0.00    +0.018 C 
ATOM     14  C   UNL     1      -2.437  -1.128  -2.771  0.00  0.00    +0.032 C 
ATOM     15  C   UNL     1      -1.253  -2.115  -5.124  0.00  0.00    +0.018 C 
ATOM     16  C   UNL     1      -3.618  -2.381  -0.037  0.00  0.00    +0.020 C 
ATOM     17  C   UNL     1      -1.603  -5.915   1.255  0.00  0.00    +0.023 C 
ENDROOT
BRANCH  12  18
ATOM     18  C   UNL     1      -3.326  -1.687  -6.429  0.00  0.00    -0.025 C 
ATOM     19  C   UNL     1      -3.987  -0.576  -6.640  0.00  0.00    +0.004 C 
ENDBRANCH  12  18
BRANCH  11  20
ATOM     20  O   UNL     1      -4.801  -3.225  -4.670  0.00  0.00    -0.387 OA
ATOM     21  H   UNL     1      -5.258  -4.029  -4.386  0.00  0.00    +0.210 HD
ENDBRANCH  11  20
BRANCH   4  22
ATOM     22  C   UNL     1      -3.171  -4.032   1.662  0.00  0.00    +0.313 C 
ATOM     23  O   UNL     1      -3.136  -3.212   2.548  0.00  0.00    -0.250 OA
BRANCH  22  24
ATOM     24  O   UNL     1      -4.342  -4.579   1.299  0.00  0.00    -0.468 OA
ATOM     25  C   UNL     1      -5.507  -4.145   2.004  0.00  0.00    +0.280 C 
ENDBRANCH  22  24
ENDBRANCH   4  22
BRANCH   1  26
ATOM     26  O   UNL     1      -1.483  -0.533  -0.626  0.00  0.00    -0.461 OA
BRANCH  26  28
ATOM     27  C   UNL     1      -0.654   1.730  -1.160  0.00  0.00    +0.136 C 
ATOM     28  C   UNL     1      -0.433   0.269  -0.864  0.00  0.00    +0.304 C 
ATOM     29  O   UNL     1       0.688  -0.180  -0.842  0.00  0.00    -0.251 OA
ENDBRANCH  26  28
ENDBRANCH   1  26
BRANCH   9  30
ATOM     30  O   UNL     1      -4.402  -5.476  -3.146  0.00  0.00    -0.457 OA
BRANCH  30  31
ATOM     31  C   UNL     1      -4.436  -6.795  -3.393  0.00  0.00    +0.305 C 
ATOM     32  O   UNL     1      -3.465  -7.477  -3.165  0.00  0.00    -0.251 OA
ATOM     33  C   UNL     1      -5.685  -7.425  -3.953  0.00  0.00    +0.136 C 
ENDBRANCH  30  31
ENDBRANCH   9  30
TORSDOF 8
