REMARK  Name = ZINC46994362
REMARK  6 active torsions:
REMARK  status: ('A' for Active; 'I' for Inactive)
REMARK    1  A    between atoms: C_1  and  N_2
REMARK    2  A    between atoms: C_4  and  C_7
REMARK    3  A    between atoms: C_7  and  C_8
REMARK    4  A    between atoms: C_8  and  N_9
REMARK    5  A    between atoms: N_12  and  N_13
REMARK    6  A    between atoms: C_14  and  C_16
REMARK                            x       y       z     vdW  Elec       q    Type
REMARK                         _______ _______ _______ _____ _____    ______ ____
ROOT
ATOM      1  N   UNL     1       1.472  -7.080  -4.328  0.00  0.00    -0.229 N 
ATOM      2  C   UNL     1       1.483  -8.171  -5.120  0.00  0.00    +0.267 C 
ATOM      3  O   UNL     1       2.541  -8.649  -5.483  0.00  0.00    -0.268 OA
ATOM      4  H   UNL     1       0.628  -6.699  -4.039  0.00  0.00    +0.173 HD
ENDROOT
BRANCH   2   5
ATOM      5  C   UNL     1       0.219  -8.781  -5.544  0.00  0.00    +0.076 A 
ATOM      6  C   UNL     1       0.009  -9.887  -6.338  0.00  0.00    +0.024 A 
ATOM      7  C   UNL     1      -1.319 -10.234  -6.605  0.00  0.00    -0.036 A 
ATOM      8  C   UNL     1      -2.273  -9.431  -6.097  0.00  0.00    -0.006 A 
ATOM      9  S   UNL     1      -1.450  -8.293  -5.165  0.00  0.00    -0.088 S 
ATOM     10  C   UNL     1      -3.768  -9.376  -6.290  0.00  0.00    +0.043 C 
ATOM     11  C   UNL     1      -4.266 -10.439  -7.270  0.00  0.00    +0.005 C 
ATOM     12  C   UNL     1      -4.373 -11.795  -6.592  0.00  0.00    +0.000 C 
ATOM     13  C   UNL     1      -3.250 -12.052  -5.608  0.00  0.00    +0.000 C 
ATOM     14  C   UNL     1      -2.065 -12.589  -6.417  0.00  0.00    +0.005 C 
ATOM     15  C   UNL     1      -1.599 -11.507  -7.391  0.00  0.00    +0.036 C 
ENDBRANCH   2   5
BRANCH   1  19
ATOM     16  N   UNL     1       1.497  -4.877  -2.729  0.00  0.00    -0.298 N 
ATOM     17  C   UNL     1       2.669  -5.407  -3.131  0.00  0.00    +0.316 C 
ATOM     18  O   UNL     1       3.717  -4.901  -2.779  0.00  0.00    -0.251 OA
ATOM     19  N   UNL     1       2.680  -6.497  -3.923  0.00  0.00    -0.218 N 
ATOM     20  H   UNL     1       0.661  -5.281  -3.010  0.00  0.00    +0.150 HD
ATOM     21  H   UNL     1       3.523  -6.878  -4.212  0.00  0.00    +0.174 HD
BRANCH  16  22
ATOM     22  C   UNL     1       1.485  -3.692  -1.868  0.00  0.00    +0.110 C 
BRANCH  22  23
ATOM     23  C   UNL     1       0.039  -3.298  -1.561  0.00  0.00    +0.057 C 
BRANCH  23  27
ATOM     24  C   UNL     1      -0.018   1.461   0.010  0.00  0.00    +0.172 C 
ATOM     25  N   UNL     1       0.002  -0.004   0.002  0.00  0.00    -0.274 N 
ATOM     26  C   UNL     1       0.008  -0.792  -1.094  0.00  0.00    +0.111 A 
ATOM     27  C   UNL     1       0.027  -2.079  -0.676  0.00  0.00    -0.008 A 
ATOM     28  C   UNL     1       0.034  -2.078   0.723  0.00  0.00    +0.138 A 
ATOM     29  N   UNL     1       0.025  -0.834   1.130  0.00  0.00    -0.180 NA
ENDBRANCH  23  27
ENDBRANCH  22  23
ENDBRANCH  16  22
ENDBRANCH   1  19
TORSDOF 5
