REMARK  Name = ZINC22058728
REMARK  8 active torsions:
REMARK  status: ('A' for Active; 'I' for Inactive)
REMARK    1  A    between atoms: C_1  and  C_2
REMARK    2  A    between atoms: C_2  and  C_3
REMARK    3  A    between atoms: C_6  and  O_29
REMARK    4  A    between atoms: C_25  and  C_26
REMARK    5  A    between atoms: C_25  and  O_28
REMARK    6  A    between atoms: C_26  and  C_27
REMARK    7  A    between atoms: O_29  and  C_30
REMARK    8  A    between atoms: C_35  and  N_38
REMARK                            x       y       z     vdW  Elec       q    Type
REMARK                         _______ _______ _______ _____ _____    ______ ____
ROOT
ATOM      1  C   UNL     1      -1.513   4.626   0.239  0.00  0.00    -0.031 A 
ATOM      2  C   UNL     1      -2.902   4.405   0.129  0.00  0.00    +0.007 A 
ATOM      3  C   UNL     1      -3.812   5.472   0.147  0.00  0.00    +0.056 A 
ATOM      4  C   UNL     1      -5.151   5.219   0.043  0.00  0.00    +0.134 A 
ATOM      5  C   UNL     1      -5.623   3.908  -0.083  0.00  0.00    +0.048 A 
ATOM      6  C   UNL     1      -4.766   2.853  -0.103  0.00  0.00    +0.032 A 
ATOM      7  C   UNL     1      -3.379   3.075   0.003  0.00  0.00    +0.072 A 
ATOM      8  N   UNL     1      -2.521   2.055  -0.015  0.00  0.00    -0.245 NA
ATOM      9  C   UNL     1      -1.215   2.249   0.081  0.00  0.00    +0.093 A 
ATOM     10  C   UNL     1      -0.688   3.546   0.209  0.00  0.00    +0.003 A 
ATOM     11  C   UNL     1       0.810   3.402   0.286  0.00  0.00    +0.163 C 
ATOM     12  N   UNL     1       1.096   1.964   0.201  0.00  0.00    -0.302 N 
ATOM     13  C   UNL     1      -0.086   1.290   0.084  0.00  0.00    +0.071 A 
ATOM     14  C   UNL     1      -0.084  -0.085  -0.014  0.00  0.00    +0.035 A 
ATOM     15  C   UNL     1       1.126  -0.792   0.007  0.00  0.00    +0.008 A 
ATOM     16  C   UNL     1       2.296  -0.111   0.136  0.00  0.00    +0.061 A 
ATOM     17  C   UNL     1       2.266   1.296   0.223  0.00  0.00    +0.259 A 
ATOM     18  O   UNL     1       3.312   1.917   0.321  0.00  0.00    -0.267 OA
ATOM     19  C   UNL     1       3.632  -0.803   0.193  0.00  0.00    +0.273 C 
ATOM     20  O   UNL     1       3.521  -2.170  -0.284  0.00  0.00    -0.457 OA
ATOM     21  C   UNL     1       2.456  -2.852   0.194  0.00  0.00    +0.344 C 
ATOM     22  O   UNL     1       2.589  -3.859   0.848  0.00  0.00    -0.247 OA
ATOM     23  C   UNL     1       1.090  -2.293  -0.131  0.00  0.00    +0.188 C 
ENDROOT
BRANCH   1  25
ATOM     24  C   UNL     1      -0.688   6.597  -1.020  0.00  0.00    +0.009 C 
ATOM     25  C   UNL     1      -0.959   6.021   0.371  0.00  0.00    +0.033 C 
ENDBRANCH   1  25
BRANCH  23  26
ATOM     26  C   UNL     1       0.712  -2.666  -1.566  0.00  0.00    +0.048 C 
ATOM     27  C   UNL     1       0.675  -4.189  -1.705  0.00  0.00    +0.007 C 
ENDBRANCH  23  26
BRANCH  23  28
ATOM     28  O   UNL     1       0.125  -2.833   0.774  0.00  0.00    -0.373 OA
ATOM     29  H   UNL     1      -0.043  -3.919   0.816  0.00  0.00    +0.211 HD
ENDBRANCH  23  28
BRANCH   4  30
ATOM     30  O   UNL     1      -6.033   6.252   0.060  0.00  0.00    -0.411 OA
BRANCH  30  31
ATOM     31  C   UNL     1      -6.814   6.371   1.151  0.00  0.00    +0.408 C 
ATOM     32  O   UNL     1      -6.638   5.641   2.107  0.00  0.00    -0.226 OA
ATOM     33  N   UNL     1      -7.791   7.298   1.183  0.00  0.00    -0.267 N 
ATOM     34  C   UNL     1      -8.013   8.192   0.037  0.00  0.00    +0.109 C 
ATOM     35  C   UNL     1      -9.488   8.093  -0.381  0.00  0.00    +0.003 C 
ATOM     36  C   UNL     1     -10.376   8.392   0.830  0.00  0.00    -0.072 C 
ATOM     37  C   UNL     1     -10.116   7.354   1.924  0.00  0.00    +0.003 C 
ATOM     38  C   UNL     1      -8.651   7.439   2.366  0.00  0.00    +0.109 C 
BRANCH  36  39
ATOM     39  N   UNL     1     -11.787   8.334   0.427  0.00  0.00    +0.380 N 
ATOM     40  H   UNL     1     -12.426   8.549   1.296  0.00  0.00    -0.090 HD
ATOM     41  H   UNL     1     -12.018   7.330   0.041  0.00  0.00    -0.090 HD
ATOM     42  H   UNL     1     -11.975   9.081  -0.359  0.00  0.00    -0.090 HD
ENDBRANCH  36  39
ENDBRANCH  30  31
ENDBRANCH   4  30
TORSDOF 6
