REMARK  Name = ZINC12467483
REMARK  6 active torsions:
REMARK  status: ('A' for Active; 'I' for Inactive)
REMARK    1  A    between atoms: C_1  and  C_2
REMARK    2  A    between atoms: C_5  and  C_34
REMARK    3  A    between atoms: C_6  and  C_8
REMARK    4  A    between atoms: C_8  and  N_9
REMARK    5  A    between atoms: C_12  and  C_19
REMARK    6  A    between atoms: C_26  and  C_28
REMARK                            x       y       z     vdW  Elec       q    Type
REMARK                         _______ _______ _______ _____ _____    ______ ____
ROOT
ATOM      1  N   UNL     1       2.651  -3.579   2.678  0.00  0.00    -0.222 N 
ATOM      2  C   UNL     1       3.012  -4.892   2.675  0.00  0.00    +0.186 A 
ATOM      3  N   UNL     1       2.602  -5.977   2.001  0.00  0.00    -0.213 NA
ATOM      4  C   UNL     1       3.134  -7.148   2.196  0.00  0.00    +0.117 A 
ATOM      5  N   UNL     1       4.133  -7.364   3.086  0.00  0.00    -0.309 N 
ATOM      6  C   UNL     1       4.626  -6.341   3.822  0.00  0.00    +0.281 A 
ATOM      7  O   UNL     1       5.524  -6.518   4.626  0.00  0.00    -0.265 OA
ATOM      8  C   UNL     1       4.041  -5.014   3.617  0.00  0.00    +0.195 A 
ATOM      9  N   UNL     1       4.265  -3.803   4.147  0.00  0.00    -0.122 NA
ATOM     10  N   UNL     1       3.473  -2.937   3.616  0.00  0.00    -0.063 NA
ATOM     11  H   UNL     1       4.497  -8.257   3.196  0.00  0.00    +0.170 HD
ENDROOT
BRANCH   4  12
ATOM     12  C   UNL     1       2.615  -8.317   1.397  0.00  0.00    +0.072 C 
ATOM     13  C   UNL     1       3.491  -8.518   0.159  0.00  0.00    +0.014 C 
ATOM     14  C   UNL     1       2.985  -9.724  -0.636  0.00  0.00    +0.020 C 
ATOM     15  C   UNL     1       1.548  -9.460  -1.097  0.00  0.00    +0.108 C 
ATOM     16  N   UNL     1       0.730  -9.123   0.075  0.00  0.00    -0.301 N 
ATOM     17  C   UNL     1       1.174  -8.037   0.960  0.00  0.00    +0.119 C 
ATOM     18  C   UNL     1      -0.408  -9.798   0.335  0.00  0.00    +0.219 C 
ATOM     19  O   UNL     1      -1.033  -9.565   1.348  0.00  0.00    -0.275 OA
BRANCH  18  20
ATOM     20  C   UNL     1      -0.903 -10.842  -0.633  0.00  0.00    +0.075 C 
ATOM     21  C   UNL     1      -1.666 -10.161  -1.771  0.00  0.00    +0.013 C 
ATOM     22  C   UNL     1      -2.168 -11.220  -2.753  0.00  0.00    +0.001 C 
ATOM     23  C   UNL     1      -3.100 -12.191  -2.025  0.00  0.00    +0.000 C 
ATOM     24  C   UNL     1      -2.337 -12.872  -0.886  0.00  0.00    +0.001 C 
ATOM     25  C   UNL     1      -1.834 -11.812   0.096  0.00  0.00    +0.013 C 
ENDBRANCH  18  20
ENDBRANCH   4  12
BRANCH   1  26
ATOM     26  C   UNL     1       1.610  -2.956   1.856  0.00  0.00    +0.183 C 
BRANCH  26  32
ATOM     27  C   UNL     1       3.643   0.691  -0.903  0.00  0.00    +0.044 C 
ATOM     28  C   UNL     1       3.183  -0.737  -0.762  0.00  0.00    -0.050 A 
ATOM     29  C   UNL     1       3.313  -1.613  -1.824  0.00  0.00    +0.003 A 
ATOM     30  C   UNL     1       2.891  -2.923  -1.695  0.00  0.00    +0.004 A 
ATOM     31  C   UNL     1       2.340  -3.357  -0.504  0.00  0.00    -0.046 A 
ATOM     32  C   UNL     1       2.211  -2.482   0.558  0.00  0.00    -0.023 A 
ATOM     33  C   UNL     1       2.637  -1.173   0.430  0.00  0.00    +0.009 A 
ATOM     34  C   UNL     1       1.879  -4.785  -0.364  0.00  0.00    +0.044 C 
ENDBRANCH  26  32
ENDBRANCH   1  26
TORSDOF 4
