REMARK  Name = ZINC36159848
REMARK  16 active torsions:
REMARK  status: ('A' for Active; 'I' for Inactive)
REMARK    1  A    between atoms: C_1  and  C_2
REMARK    2  A    between atoms: C_2  and  C_3
REMARK    3  A    between atoms: C_2  and  N_4
REMARK    4  A    between atoms: N_4  and  C_5
REMARK    5  A    between atoms: C_5  and  C_6
REMARK    6  A    between atoms: C_5  and  C_7
REMARK    7  A    between atoms: C_8  and  C_10
REMARK    8  A    between atoms: C_10  and  C_12
REMARK    9  A    between atoms: C_10  and  C_18
REMARK   10  A    between atoms: C_18  and  C_20
REMARK   11  A    between atoms: C_18  and  C_35
REMARK   12  A    between atoms: C_20  and  N_21
REMARK   13  A    between atoms: C_22  and  C_24
REMARK   14  A    between atoms: C_24  and  C_26
REMARK   15  A    between atoms: C_24  and  N_34
REMARK   16  A    between atoms: C_26  and  C_27
REMARK                            x       y       z     vdW  Elec       q    Type
REMARK                         _______ _______ _______ _____ _____    ______ ____
ROOT
ATOM      1  C   UNL     1      -3.795   1.119   2.246  0.00  0.00    +0.052 C 
ENDROOT
BRANCH   1   2
ATOM      2  C   UNL     1      -3.684   2.335   3.129  0.00  0.00    -0.042 A 
ATOM      3  C   UNL     1      -2.582   2.496   3.947  0.00  0.00    +0.004 A 
ATOM      4  C   UNL     1      -2.479   3.611   4.758  0.00  0.00    +0.000 A 
ATOM      5  C   UNL     1      -3.480   4.565   4.750  0.00  0.00    +0.000 A 
ATOM      6  C   UNL     1      -4.582   4.404   3.931  0.00  0.00    +0.000 A 
ATOM      7  C   UNL     1      -4.682   3.291   3.117  0.00  0.00    +0.004 A 
ENDBRANCH   1   2
BRANCH   1   8
ATOM      8  C   UNL     1      -2.606   1.076   1.284  0.00  0.00    +0.115 C 
BRANCH   8   9
ATOM      9  C   UNL     1      -2.604   2.319   0.431  0.00  0.00    -0.017 A 
ATOM     10  C   UNL     1      -1.467   3.106   0.340  0.00  0.00    +0.007 A 
ATOM     11  C   UNL     1      -1.512   4.240  -0.457  0.00  0.00    +0.020 A 
ATOM     12  C   UNL     1      -2.681   4.546  -1.128  0.00  0.00    +0.111 A 
ATOM     13  N   UNL     1      -3.744   3.774  -1.017  0.00  0.00    -0.263 NA
ATOM     14  C   UNL     1      -3.735   2.685  -0.273  0.00  0.00    +0.115 A 
ENDBRANCH   8   9
BRANCH   8  16
ATOM     15  N   UNL     1      -1.613  -0.659  -0.172  0.00  0.00    -0.296 N 
ATOM     16  C   UNL     1      -2.717  -0.139   0.401  0.00  0.00    +0.224 C 
ATOM     17  O   UNL     1      -3.800  -0.649   0.205  0.00  0.00    -0.275 OA
BRANCH  15  19
ATOM     18  C   UNL     1      -2.240  -3.018  -0.016  0.00  0.00    +0.028 C 
ATOM     19  C   UNL     1      -1.701  -1.913  -0.926  0.00  0.00    +0.070 C 
ATOM     20  C   UNL     1      -2.643  -1.727  -2.116  0.00  0.00    +0.028 C 
ENDBRANCH  15  19
BRANCH  15  21
ATOM     21  C   UNL     1      -0.327   0.028  -0.040  0.00  0.00    +0.070 C 
ATOM     22  C   UNL     1       0.675  -0.894   0.658  0.00  0.00    +0.028 C 
ATOM     23  C   UNL     1       0.200   0.395  -1.429  0.00  0.00    +0.028 C 
ENDBRANCH  15  21
ENDBRANCH   8  16
ENDBRANCH   1   8
BRANCH   1  24
ATOM     24  C   UNL     1      -3.797  -0.142   3.112  0.00  0.00    +0.113 C 
BRANCH  24  25
ATOM     25  N   UNL     1      -4.999  -0.160   3.948  0.00  0.00    -0.316 N 
ATOM     26  C   UNL     1      -5.215  -1.183   4.797  0.00  0.00    +0.199 C 
ATOM     27  O   UNL     1      -4.413  -2.090   4.870  0.00  0.00    -0.278 OA
ATOM     28  H   UNL     1      -5.641   0.566   3.890  0.00  0.00    +0.149 HD
BRANCH  26  29
ATOM     29  C   UNL     1      -6.452  -1.201   5.658  0.00  0.00    +0.017 C 
BRANCH  29  30
ATOM     30  N   UNL     1      -6.245  -2.106   6.796  0.00  0.00    +0.386 N 
ATOM     31  H   UNL     1      -7.073  -2.118   7.372  0.00  0.00    -0.089 HD
ATOM     32  H   UNL     1      -6.058  -3.038   6.455  0.00  0.00    -0.089 HD
ATOM     33  H   UNL     1      -5.460  -1.785   7.342  0.00  0.00    -0.089 HD
ENDBRANCH  29  30
BRANCH  29  34
ATOM     34  C   UNL     1      -7.642  -1.688   4.829  0.00  0.00    +0.031 C 
BRANCH  34  35
ATOM     35  C   UNL     1      -8.901  -1.590   5.652  0.00  0.00    -0.013 A 
ATOM     36  C   UNL     1      -9.356  -2.690   6.354  0.00  0.00    +0.006 A 
ATOM     37  C   UNL     1     -10.510  -2.600   7.109  0.00  0.00    +0.000 A 
ATOM     38  C   UNL     1     -11.212  -1.409   7.162  0.00  0.00    +0.003 A 
ATOM     39  C   UNL     1     -10.759  -0.308   6.460  0.00  0.00    +0.038 A 
ATOM     40  C   UNL     1      -9.600  -0.396   5.708  0.00  0.00    +0.127 A 
ATOM     41  F   UNL     1      -9.154   0.681   5.026  0.00  0.00    -0.205 F 
ENDBRANCH  34  35
ENDBRANCH  29  34
ENDBRANCH  26  29
ENDBRANCH  24  25
ENDBRANCH   1  24
TORSDOF 12
