REMARK  Name = ZINC22418139
REMARK  10 active torsions:
REMARK  status: ('A' for Active; 'I' for Inactive)
REMARK    1  A    between atoms: C_1  and  C_2
REMARK    2  A    between atoms: C_3  and  C_11
REMARK    3  A    between atoms: C_7  and  N_8
REMARK    4  A    between atoms: N_13  and  C_14
REMARK    5  A    between atoms: C_14  and  C_15
REMARK    6  A    between atoms: C_15  and  C_17
REMARK    7  A    between atoms: C_15  and  N_26
REMARK    8  A    between atoms: C_20  and  N_23
REMARK    9  A    between atoms: N_23  and  C_24
REMARK   10  A    between atoms: N_23  and  C_25
REMARK                            x       y       z     vdW  Elec       q    Type
REMARK                         _______ _______ _______ _____ _____    ______ ____
ROOT
ATOM      1  C   UNL     1       0.181   1.125   0.378  0.00  0.00    -0.020 C 
ENDROOT
BRANCH   1   2
ATOM      2  N   UNL     1      -0.531   1.860  -0.676  0.00  0.00    +0.388 N 
ATOM      3  C   UNL     1       0.062   1.594  -1.996  0.00  0.00    -0.073 C 
ATOM      4  C   UNL     1      -0.915   2.071  -3.072  0.00  0.00    +0.017 C 
ATOM      5  C   UNL     1      -1.352   3.483  -2.780  0.00  0.00    -0.048 A 
ATOM      6  C   UNL     1      -1.943   4.217  -3.798  0.00  0.00    +0.004 A 
ATOM      7  C   UNL     1      -2.361   5.513  -3.572  0.00  0.00    +0.000 A 
ATOM      8  C   UNL     1      -2.190   6.083  -2.324  0.00  0.00    +0.000 A 
ATOM      9  C   UNL     1      -1.601   5.354  -1.310  0.00  0.00    +0.002 A 
ATOM     10  C   UNL     1      -1.179   4.052  -1.537  0.00  0.00    -0.061 A 
ATOM     11  C   UNL     1      -0.534   3.301  -0.402  0.00  0.00    -0.042 C 
ATOM     12  H   UNL     1      -1.573   1.508  -0.683  0.00  0.00    -0.080 HD
ENDBRANCH   1   2
BRANCH   1  13
ATOM     13  C   UNL     1       1.590   1.647   0.491  0.00  0.00    -0.059 A 
ATOM     14  C   UNL     1       1.821   2.895   1.042  0.00  0.00    +0.004 A 
ATOM     15  C   UNL     1       3.111   3.374   1.153  0.00  0.00    +0.023 A 
ATOM     16  C   UNL     1       4.177   2.606   0.700  0.00  0.00    +0.029 A 
ATOM     17  C   UNL     1       3.941   1.356   0.142  0.00  0.00    +0.023 A 
ATOM     18  C   UNL     1       2.648   0.881   0.040  0.00  0.00    +0.004 A 
BRANCH  16  19
ATOM     19  N   UNL     1       5.483   3.091   0.804  0.00  0.00    -0.336 N 
ATOM     20  C   UNL     1       6.605   2.280   0.326  0.00  0.00    +0.129 C 
ATOM     21  C   UNL     1       5.730   4.409   1.393  0.00  0.00    +0.129 C 
ENDBRANCH  16  19
ENDBRANCH   1  13
BRANCH   1  22
ATOM     22  C   UNL     1      -0.544   1.318   1.712  0.00  0.00    +0.094 C 
BRANCH  22  25
ATOM     23  C   UNL     1      -2.783   1.006   2.621  0.00  0.00    +0.244 C 
ATOM     24  O   UNL     1      -2.373   1.412   3.691  0.00  0.00    -0.270 OA
ATOM     25  N   UNL     1      -1.946   0.921   1.568  0.00  0.00    -0.313 N 
ATOM     26  H   UNL     1      -2.317   0.553   0.600  0.00  0.00    +0.149 HD
BRANCH  23  29
ATOM     27  C   UNL     1      -4.490   0.910   4.956  0.00  0.00    +0.047 C 
ATOM     28  C   UNL     1      -5.031   0.555   3.595  0.00  0.00    -0.008 A 
ATOM     29  C   UNL     1      -4.198   0.605   2.476  0.00  0.00    +0.042 A 
ATOM     30  C   UNL     1      -4.706   0.270   1.220  0.00  0.00    +0.013 A 
ATOM     31  C   UNL     1      -6.028  -0.103   1.091  0.00  0.00    +0.003 A 
ATOM     32  C   UNL     1      -6.850  -0.146   2.204  0.00  0.00    +0.033 A 
ATOM     33  C   UNL     1      -6.352   0.185   3.452  0.00  0.00    +0.130 A 
BRANCH  33  34
ATOM     34  N   UNL     1      -7.238   0.137   4.636  0.00  0.00    +0.057 N 
ATOM     35  O   UNL     1      -8.366  -0.311   4.535  0.00  0.00    -0.126 OA
ATOM     36  O   UNL     1      -6.839   0.545   5.713  0.00  0.00    -0.126 OA
ENDBRANCH  33  34
ENDBRANCH  23  29
ENDBRANCH  22  25
ENDBRANCH   1  22
TORSDOF 7
