REMARK  Name = ZINC08970314
REMARK  7 active torsions:
REMARK  status: ('A' for Active; 'I' for Inactive)
REMARK    1  A    between atoms: C_1  and  C_2
REMARK    2  A    between atoms: C_2  and  C_3
REMARK    3  A    between atoms: C_2  and  C_4
REMARK    4  A    between atoms: N_12  and  C_15
REMARK    5  A    between atoms: C_18  and  N_23
REMARK    6  A    between atoms: C_20  and  O_21
REMARK    7  A    between atoms: O_21  and  C_22
REMARK                            x       y       z     vdW  Elec       q    Type
REMARK                         _______ _______ _______ _____ _____    ______ ____
ROOT
ATOM      1  C   UNL     1       0.002  -0.004   0.002  0.00  0.00    -0.055 C 
ATOM      2  C   UNL     1       0.745  -0.538   1.246  0.00  0.00    +0.073 C 
ATOM      3  C   UNL     1       1.522  -1.785   0.739  0.00  0.00    +0.088 C 
ATOM      4  C   UNL     1       0.859  -2.930   1.471  0.00  0.00    +0.229 C 
ATOM      5  O   UNL     1       1.160  -4.100   1.361  0.00  0.00    -0.275 OA
ATOM      6  N   UNL     1      -0.112  -2.452   2.258  0.00  0.00    -0.206 N 
ATOM      7  C   UNL     1      -0.263  -1.108   2.219  0.00  0.00    +0.229 C 
ATOM      8  O   UNL     1      -1.069  -0.460   2.851  0.00  0.00    -0.275 OA
ATOM      9  C   UNL     1       1.194  -1.865  -0.756  0.00  0.00    +0.050 C 
ATOM     10  C   UNL     1       2.373  -2.345  -1.554  0.00  0.00    -0.028 A 
ATOM     11  C   UNL     1       3.656  -1.876  -1.726  0.00  0.00    +0.004 A 
ATOM     12  C   UNL     1       4.538  -2.555  -2.547  0.00  0.00    +0.000 A 
ATOM     13  C   UNL     1       4.128  -3.706  -3.195  0.00  0.00    +0.002 A 
ATOM     14  C   UNL     1       2.844  -4.180  -3.026  0.00  0.00    +0.023 A 
ATOM     15  C   UNL     1       1.949  -3.502  -2.201  0.00  0.00    +0.036 A 
ATOM     16  N   UNL     1       0.620  -3.779  -1.874  0.00  0.00    -0.286 N 
ATOM     17  C   UNL     1       0.104  -2.865  -1.029  0.00  0.00    +0.211 C 
ATOM     18  O   UNL     1      -1.021  -2.851  -0.577  0.00  0.00    -0.277 OA
ATOM     19  H   UNL     1       0.126  -4.540  -2.216  0.00  0.00    +0.155 HD
ATOM     20  N   UNL     1       0.781  -0.522  -1.125  0.00  0.00    +0.394 N 
ATOM     21  H   UNL     1       1.605   0.070  -1.288  0.00  0.00    -0.083 HD
ATOM     22  H   UNL     1       0.204  -0.548  -1.973  0.00  0.00    -0.083 HD
ENDROOT
BRANCH   6  23
ATOM     23  C   UNL     1      -0.908  -3.277   3.068  0.00  0.00    +0.086 A 
ATOM     24  C   UNL     1      -0.515  -3.566   4.366  0.00  0.00    +0.030 A 
ATOM     25  C   UNL     1      -1.301  -4.378   5.161  0.00  0.00    +0.035 A 
ATOM     26  C   UNL     1      -2.479  -4.904   4.666  0.00  0.00    +0.130 A 
ATOM     27  C   UNL     1      -2.878  -4.621   3.373  0.00  0.00    +0.080 A 
ATOM     28  C   UNL     1      -2.098  -3.804   2.571  0.00  0.00    +0.144 A 
BRANCH  26  29
ATOM     29  N   UNL     1      -3.317  -5.773   5.523  0.00  0.00    +0.057 N 
ATOM     30  O   UNL     1      -2.968  -6.023   6.663  0.00  0.00    -0.126 OA
ATOM     31  O   UNL     1      -4.356  -6.237   5.088  0.00  0.00    -0.126 OA
ENDBRANCH  26  29
BRANCH  28  32
ATOM     32  O   UNL     1      -2.491  -3.520   1.301  0.00  0.00    -0.493 OA
ATOM     33  C   UNL     1      -3.722  -4.094   0.859  0.00  0.00    +0.277 C 
ENDBRANCH  28  32
ENDBRANCH   6  23
BRANCH   1  35
ATOM     34  C   UNL     1      -0.759   2.033  -1.229  0.00  0.00    +0.005 C 
ATOM     35  C   UNL     1      -0.019   1.526   0.010  0.00  0.00    -0.031 C 
ATOM     36  C   UNL     1      -0.735   2.019   1.269  0.00  0.00    +0.005 C 
ENDBRANCH   1  35
TORSDOF 4
