REMARK  Name = ZINC25461348
REMARK  8 active torsions:
REMARK  status: ('A' for Active; 'I' for Inactive)
REMARK    1  A    between atoms: C_1  and  O_2
REMARK    2  A    between atoms: O_2  and  C_3
REMARK    3  A    between atoms: C_5  and  C_13
REMARK    4  A    between atoms: C_7  and  O_11
REMARK    5  A    between atoms: C_8  and  O_9
REMARK    6  A    between atoms: O_9  and  C_10
REMARK    7  A    between atoms: O_11  and  C_12
REMARK    8  A    between atoms: C_25  and  C_29
REMARK                            x       y       z     vdW  Elec       q    Type
REMARK                         _______ _______ _______ _____ _____    ______ ____
ROOT
ATOM      1  C   UNL     1      -4.871   0.264   0.038  0.00  0.00    +0.132 C 
ATOM      2  C   UNL     1      -5.382   0.424  -1.374  0.00  0.00    +0.043 A 
ATOM      3  C   UNL     1      -6.417  -0.292  -1.869  0.00  0.00    -0.009 A 
ATOM      4  C   UNL     1      -6.616   0.134  -3.236  0.00  0.00    +0.004 A 
ATOM      5  C   UNL     1      -7.525  -0.247  -4.229  0.00  0.00    +0.010 A 
ATOM      6  C   UNL     1      -7.421   0.387  -5.442  0.00  0.00    +0.001 A 
ATOM      7  C   UNL     1      -6.465   1.359  -5.686  0.00  0.00    +0.002 A 
ATOM      8  C   UNL     1      -5.553   1.755  -4.723  0.00  0.00    +0.026 A 
ATOM      9  C   UNL     1      -5.635   1.130  -3.481  0.00  0.00    +0.047 A 
ATOM     10  N   UNL     1      -4.908   1.276  -2.334  0.00  0.00    -0.356 N 
ATOM     11  H   UNL     1      -4.168   1.892  -2.217  0.00  0.00    +0.166 HD
ATOM     12  C   UNL     1      -7.168  -1.329  -1.072  0.00  0.00    +0.067 C 
ATOM     13  C   UNL     1      -6.327  -1.677   0.164  0.00  0.00    +0.094 C 
ATOM     14  N   UNL     1      -5.894  -0.437   0.832  0.00  0.00    -0.304 NA
ATOM     15  H   UNL     1      -5.562  -0.621   1.767  0.00  0.00    +0.123 HD
ENDROOT
BRANCH  12  16
ATOM     16  C   UNL     1      -7.379  -2.563  -1.910  0.00  0.00    -0.020 A 
ATOM     17  C   UNL     1      -6.290  -3.258  -2.403  0.00  0.00    +0.007 A 
ATOM     18  C   UNL     1      -6.483  -4.390  -3.172  0.00  0.00    +0.020 A 
ATOM     19  C   UNL     1      -7.766  -4.828  -3.450  0.00  0.00    +0.042 A 
ATOM     20  C   UNL     1      -8.855  -4.133  -2.957  0.00  0.00    +0.040 A 
ATOM     21  C   UNL     1      -8.662  -3.003  -2.183  0.00  0.00    +0.046 A 
ATOM     22 CL   UNL     1     -10.029  -2.134  -1.558  0.00  0.00    -0.083 Cl
ATOM     23 CL   UNL     1      -8.007  -6.250  -4.416  0.00  0.00    -0.083 Cl
ENDBRANCH  12  16
BRANCH   1  26
ATOM     24  C   UNL     1      -2.023  -1.950   1.165  0.00  0.00    +0.165 A 
ATOM     25  C   UNL     1      -3.193  -1.206   1.171  0.00  0.00    +0.055 A 
ATOM     26  C   UNL     1      -3.598  -0.543   0.028  0.00  0.00    -0.018 A 
ATOM     27  C   UNL     1      -2.839  -0.617  -1.125  0.00  0.00    +0.055 A 
ATOM     28  C   UNL     1      -1.667  -1.359  -1.139  0.00  0.00    +0.165 A 
ATOM     29  C   UNL     1      -1.254  -2.023   0.009  0.00  0.00    +0.204 A 
BRANCH  24  31
ATOM     30  C   UNL     1      -2.464  -2.483   3.440  0.00  0.00    +0.277 C 
ATOM     31  O   UNL     1      -1.625  -2.602   2.290  0.00  0.00    -0.491 OA
ENDBRANCH  24  31
BRANCH  29  32
ATOM     32  O   UNL     1      -0.101  -2.747   0.001  0.00  0.00    -0.488 OA
ATOM     33  C   UNL     1      -0.202  -4.123  -0.370  0.00  0.00    +0.277 C 
ENDBRANCH  29  32
BRANCH  28  34
ATOM     34  O   UNL     1      -0.921  -1.432  -2.274  0.00  0.00    -0.491 OA
ATOM     35  C   UNL     1      -1.405  -0.720  -3.415  0.00  0.00    +0.277 C 
ENDBRANCH  28  34
ENDBRANCH   1  26
TORSDOF 5
