REMARK  Name = ZINC39325167
REMARK  7 active torsions:
REMARK  status: ('A' for Active; 'I' for Inactive)
REMARK    1  A    between atoms: C_4  and  C_7
REMARK    2  A    between atoms: C_7  and  N_8
REMARK    3  A    between atoms: C_15  and  C_27
REMARK    4  A    between atoms: C_17  and  C_23
REMARK    5  A    between atoms: C_17  and  C_25
REMARK    6  A    between atoms: C_18  and  N_22
REMARK    7  A    between atoms: C_19  and  C_20
REMARK                            x       y       z     vdW  Elec       q    Type
REMARK                         _______ _______ _______ _____ _____    ______ ____
ROOT
ATOM      1  N   UNL     1       4.020  -1.915   0.524  0.00  0.00    -0.294 NA
ATOM      2  C   UNL     1       4.299  -0.474   0.669  0.00  0.00    +0.112 C 
ATOM      3  C   UNL     1       4.590  -0.212   2.126  0.00  0.00    -0.007 C 
ATOM      4  C   UNL     1       5.193  -1.133   2.855  0.00  0.00    -0.027 C 
ATOM      5  C   UNL     1       5.664  -2.442   2.290  0.00  0.00    +0.040 C 
ATOM      6  C   UNL     1       5.210  -2.697   0.871  0.00  0.00    +0.093 C 
ATOM      7  C   UNL     1       5.228  -3.556   3.244  0.00  0.00    +0.041 C 
ATOM      8  C   UNL     1       5.920  -3.352   4.592  0.00  0.00    +0.184 C 
ATOM      9  C   UNL     1       5.754  -1.950   5.097  0.00  0.00    +0.054 C 
ATOM     10  C   UNL     1       5.427  -0.900   4.302  0.00  0.00    +0.074 C 
ENDROOT
BRANCH   7  11
ATOM     11  C   UNL     1       3.711  -3.506   3.431  0.00  0.00    -0.000 C 
ATOM     12  C   UNL     1       3.184  -4.910   3.751  0.00  0.00    +0.008 C 
ATOM     13  C   UNL     1       1.700  -4.801   4.107  0.00  0.00    +0.027 C 
ATOM     14  C   UNL     1       0.976  -3.996   3.068  0.00  0.00    -0.031 C 
ATOM     15  C   UNL     1       1.563  -3.219   2.214  0.00  0.00    -0.031 C 
ATOM     16  C   UNL     1       3.049  -3.018   2.140  0.00  0.00    +0.030 C 
ENDBRANCH   7  11
BRANCH   9  17
ATOM     17  N   UNL     1       5.941  -1.718   6.431  0.00  0.00    -0.358 N 
ATOM     18  H   UNL     1       6.176  -2.450   7.022  0.00  0.00    +0.142 HD
ATOM     19  H   UNL     1       5.840  -0.821   6.785  0.00  0.00    +0.142 HD
ENDBRANCH   9  17
BRANCH  10  20
ATOM     20  C   UNL     1       5.310   0.417   4.852  0.00  0.00    +0.101 C 
ATOM     21  N   UNL     1       5.217   1.462   5.288  0.00  0.00    -0.191 NA
ENDBRANCH  10  20
BRANCH   8  22
ATOM     22  C   UNL     1       5.345  -4.286   5.572  0.00  0.00    +0.091 C 
ATOM     23  N   UNL     1       4.901  -5.008   6.329  0.00  0.00    -0.195 NA
ENDBRANCH   8  22
BRANCH   8  24
ATOM     24  C   UNL     1       7.356  -3.640   4.442  0.00  0.00    +0.091 C 
ATOM     25  N   UNL     1       8.464  -3.863   4.327  0.00  0.00    -0.195 NA
ENDBRANCH   8  24
BRANCH   1  26
ATOM     26  C   UNL     1       3.562  -2.228  -0.836  0.00  0.00    +0.120 C 
BRANCH  26  30
ATOM     27  C   UNL     1      -0.263  -0.446  -1.498  0.00  0.00    +0.000 A 
ATOM     28  C   UNL     1       0.888   0.258  -1.798  0.00  0.00    +0.000 A 
ATOM     29  C   UNL     1       2.126  -0.319  -1.583  0.00  0.00    +0.005 A 
ATOM     30  C   UNL     1       2.213  -1.599  -1.069  0.00  0.00    -0.033 A 
ATOM     31  C   UNL     1       1.061  -2.302  -0.768  0.00  0.00    +0.005 A 
ATOM     32  C   UNL     1      -0.177  -1.726  -0.984  0.00  0.00    +0.000 A 
ENDBRANCH  26  30
ENDBRANCH   1  26
TORSDOF 7
