REMARK  Name = ZINC08636416
REMARK  10 active torsions:
REMARK  status: ('A' for Active; 'I' for Inactive)
REMARK    1  A    between atoms: C_1  and  C_2
REMARK    2  A    between atoms: C_2  and  C_3
REMARK    3  A    between atoms: C_2  and  C_4
REMARK    4  A    between atoms: C_7  and  N_10
REMARK    5  A    between atoms: C_13  and  C_27
REMARK    6  A    between atoms: C_16  and  O_26
REMARK    7  A    between atoms: C_18  and  O_25
REMARK    8  A    between atoms: N_29  and  C_30
REMARK    9  A    between atoms: N_29  and  C_31
REMARK   10  A    between atoms: C_31  and  C_32
REMARK                            x       y       z     vdW  Elec       q    Type
REMARK                         _______ _______ _______ _____ _____    ______ ____
ROOT
ATOM      1  N   UNL     1       3.914   2.931  -0.536  0.00  0.00    -0.277 N 
ATOM      2  C   UNL     1       3.189   3.801   0.389  0.00  0.00    +0.115 C 
ATOM      3  C   UNL     1       1.778   3.405   0.643  0.00  0.00    +0.100 C 
ATOM      4  C   UNL     1       0.737   4.125  -0.181  0.00  0.00    +0.048 C 
ATOM      5  C   UNL     1       0.990   5.618  -0.233  0.00  0.00    +0.146 C 
ATOM      6  C   UNL     1       2.371   5.950  -0.738  0.00  0.00    +0.165 C 
ATOM      7  C   UNL     1       3.498   5.212  -0.057  0.00  0.00    +0.124 C 
ATOM      8  N   UNL     1       4.583   5.016  -1.050  0.00  0.00    -0.319 N 
ATOM      9  C   UNL     1       4.715   3.703  -1.291  0.00  0.00    +0.138 C 
ATOM     10  S   UNL     1       5.802   3.069  -2.452  0.00  0.00    -0.018 S 
ATOM     11  H   UNL     1       5.109   5.721  -1.459  0.00  0.00    +0.148 HD
ENDROOT
BRANCH   1  15
ATOM     12  C   UNL     1       3.562  -1.213  -0.787  0.00  0.00    -0.045 A 
ATOM     13  C   UNL     1       3.536  -0.447  -1.938  0.00  0.00    +0.006 A 
ATOM     14  C   UNL     1       3.652   0.927  -1.859  0.00  0.00    +0.024 A 
ATOM     15  C   UNL     1       3.796   1.539  -0.620  0.00  0.00    +0.036 A 
ATOM     16  C   UNL     1       3.826   0.767   0.534  0.00  0.00    +0.024 A 
ATOM     17  C   UNL     1       3.704  -0.606   0.447  0.00  0.00    +0.006 A 
BRANCH  12  19
ATOM     18  C   UNL     1       4.684  -3.366  -0.285  0.00  0.00    +0.012 C 
ATOM     19  C   UNL     1       3.435  -2.712  -0.878  0.00  0.00    +0.013 C 
ATOM     20  C   UNL     1       2.201  -3.167  -0.097  0.00  0.00    +0.012 C 
ENDBRANCH  12  19
ENDBRANCH   1  15
BRANCH   3  21
ATOM     21  C   UNL     1       1.649   1.927   0.381  0.00  0.00    +0.221 C 
ATOM     22  O   UNL     1       1.700   1.140   1.302  0.00  0.00    -0.275 OA
ATOM     23  N   UNL     1       1.475   1.479  -0.879  0.00  0.00    -0.300 N 
ATOM     24  C   UNL     1       1.624   2.398  -2.010  0.00  0.00    +0.132 C 
BRANCH  23  25
ATOM     25  C   UNL     1       1.144   0.072  -1.117  0.00  0.00    +0.142 C 
BRANCH  25  26
ATOM     26  C   UNL     1      -0.347  -0.118  -1.013  0.00  0.00    -0.030 A 
ATOM     27  C   UNL     1      -0.909  -0.535   0.179  0.00  0.00    +0.005 A 
ATOM     28  C   UNL     1      -2.278  -0.706   0.276  0.00  0.00    +0.000 A 
ATOM     29  C   UNL     1      -3.083  -0.467  -0.822  0.00  0.00    +0.000 A 
ATOM     30  C   UNL     1      -2.521  -0.054  -2.015  0.00  0.00    +0.000 A 
ATOM     31  C   UNL     1      -1.153   0.120  -2.111  0.00  0.00    +0.005 A 
ENDBRANCH  25  26
ENDBRANCH  23  25
ENDBRANCH   3  21
BRANCH   6  32
ATOM     32  O   UNL     1       2.420   5.658  -2.136  0.00  0.00    -0.387 OA
ATOM     33  H   UNL     1       1.784   6.158  -2.665  0.00  0.00    +0.210 HD
ENDBRANCH   6  32
BRANCH   5  34
ATOM     34  O   UNL     1       0.836   6.158   1.081  0.00  0.00    -0.389 OA
ATOM     35  H   UNL     1      -0.044   6.025   1.460  0.00  0.00    +0.210 HD
ENDBRANCH   5  34
TORSDOF 7
