REMARK  Name = ZINC09777354
REMARK  9 active torsions:
REMARK  status: ('A' for Active; 'I' for Inactive)
REMARK    1  A    between atoms: C_1  and  C_2
REMARK    2  A    between atoms: C_6  and  N_8
REMARK    3  A    between atoms: C_9  and  C_11
REMARK    4  A    between atoms: N_22  and  C_37
REMARK    5  A    between atoms: C_23  and  C_25
REMARK    6  A    between atoms: N_27  and  C_28
REMARK    7  A    between atoms: C_34  and  C_36
REMARK    8  A    between atoms: C_37  and  C_38
REMARK    9  A    between atoms: C_38  and  C_39
REMARK                            x       y       z     vdW  Elec       q    Type
REMARK                         _______ _______ _______ _____ _____    ______ ____
ROOT
ATOM      1  C   UNL     1       1.695  -2.547   0.567  0.00  0.00    +0.123 C 
ATOM      2  C   UNL     1       0.823  -2.599  -0.729  0.00  0.00    +0.155 C 
ATOM      3  C   UNL     1       1.465  -1.636  -1.735  0.00  0.00    +0.004 C 
ATOM      4  C   UNL     1       2.592  -2.210  -2.173  0.00  0.00    +0.009 C 
ATOM      5  C   UNL     1       2.656  -3.486  -1.413  0.00  0.00    +0.127 C 
ATOM      6  C   UNL     1       3.032  -3.127   0.072  0.00  0.00    +0.128 C 
ATOM      7  C   UNL     1       3.374  -4.485   0.616  0.00  0.00    +0.223 C 
ATOM      8  O   UNL     1       3.307  -4.811   1.782  0.00  0.00    -0.275 OA
ATOM      9  N   UNL     1       3.770  -5.289  -0.403  0.00  0.00    -0.286 N 
ATOM     10  C   UNL     1       3.603  -4.607  -1.708  0.00  0.00    +0.198 C 
ATOM     11  O   UNL     1       1.266  -3.891  -1.282  0.00  0.00    -0.358 OA
ENDROOT
BRANCH   1  13
ATOM     12  N   UNL     1       0.795  -0.424   1.463  0.00  0.00    -0.285 N 
ATOM     13  C   UNL     1       1.866  -1.129   1.046  0.00  0.00    +0.224 C 
ATOM     14  O   UNL     1       2.967  -0.621   1.057  0.00  0.00    -0.275 OA
ATOM     15  H   UNL     1      -0.074  -0.851   1.520  0.00  0.00    +0.155 HD
BRANCH  12  21
ATOM     16  C   UNL     1       3.498   3.168   3.454  0.00  0.00    +0.044 C 
ATOM     17  C   UNL     1       2.237   2.691   2.780  0.00  0.00    -0.049 A 
ATOM     18  C   UNL     1       1.218   3.586   2.508  0.00  0.00    +0.003 A 
ATOM     19  C   UNL     1       0.060   3.153   1.890  0.00  0.00    +0.002 A 
ATOM     20  C   UNL     1      -0.084   1.824   1.542  0.00  0.00    +0.023 A 
ATOM     21  C   UNL     1       0.937   0.923   1.813  0.00  0.00    +0.034 A 
ATOM     22  C   UNL     1       2.098   1.360   2.439  0.00  0.00    +0.026 A 
ENDBRANCH  12  21
ENDBRANCH   1  13
BRANCH  10  23
ATOM     23  C   UNL     1       4.924  -4.071  -2.198  0.00  0.00    +0.237 C 
ATOM     24  O   UNL     1       5.822  -3.862  -1.411  0.00  0.00    -0.274 OA
ATOM     25  N   UNL     1       5.106  -3.825  -3.510  0.00  0.00    -0.311 N 
ATOM     26  H   UNL     1       4.419  -4.068  -4.150  0.00  0.00    +0.149 HD
BRANCH  25  27
ATOM     27  C   UNL     1       6.344  -3.191  -3.971  0.00  0.00    +0.076 C 
ATOM     28  C   UNL     1       6.187  -1.670  -3.921  0.00  0.00    +0.022 C 
ATOM     29  C   UNL     1       5.029  -1.246  -4.827  0.00  0.00    +0.002 C 
ATOM     30  C   UNL     1       5.320  -1.682  -6.264  0.00  0.00    +0.000 C 
ATOM     31  C   UNL     1       5.477  -3.203  -6.315  0.00  0.00    +0.005 C 
ATOM     32  C   UNL     1       6.635  -3.626  -5.409  0.00  0.00    +0.006 C 
ATOM     33  C   UNL     1       6.792  -5.147  -5.459  0.00  0.00    +0.009 C 
ENDBRANCH  25  27
ENDBRANCH  10  23
BRANCH   9  34
ATOM     34  C   UNL     1       4.292  -6.648  -0.235  0.00  0.00    +0.113 C 
BRANCH  34  35
ATOM     35  C   UNL     1       3.135  -7.648  -0.281  0.00  0.00    +0.049 C 
BRANCH  35  36
ATOM     36  C   UNL     1       3.671  -9.045  -0.108  0.00  0.00    -0.072 C 
ATOM     37  C   UNL     1       3.676  -9.551   1.084  0.00  0.00    -0.028 C 
ATOM     38  C   UNL     1       4.182 -10.925   1.412  0.00  0.00    +0.027 C 
ATOM     39  C   UNL     1       4.292 -11.766   0.139  0.00  0.00    +0.004 C 
ATOM     40  C   UNL     1       5.046 -10.950  -0.919  0.00  0.00    +0.005 C 
ATOM     41  C   UNL     1       4.173  -9.762  -1.327  0.00  0.00    +0.030 C 
ENDBRANCH  35  36
ENDBRANCH  34  35
ENDBRANCH   9  34
TORSDOF 7
