REMARK  Name = ZINC05812385
REMARK  6 active torsions:
REMARK  status: ('A' for Active; 'I' for Inactive)
REMARK    1  A    between atoms: C_1  and  C_2
REMARK    2  A    between atoms: C_2  and  C_3
REMARK    3  A    between atoms: C_3  and  C_22
REMARK    4  A    between atoms: C_11  and  C_12
REMARK    5  A    between atoms: C_15  and  O_18
REMARK    6  A    between atoms: O_18  and  C_19
REMARK                            x       y       z     vdW  Elec       q    Type
REMARK                         _______ _______ _______ _____ _____    ______ ____
ROOT
ATOM      1  C   UNL     1       0.660   3.678   1.232  0.00  0.00    +0.122 C 
ATOM      2  N   UNL     1      -0.236   3.938   0.095  0.00  0.00    -0.243 N 
ATOM      3  N   UNL     1      -0.892   5.196   0.075  0.00  0.00    -0.158 NA
ATOM      4  C   UNL     1      -1.045   5.746   1.235  0.00  0.00    +0.210 A 
ATOM      5  N   UNL     1      -0.638   5.205   2.459  0.00  0.00    -0.202 N 
ATOM      6  C   UNL     1      -0.852   5.927   3.561  0.00  0.00    +0.284 A 
ATOM      7  O   UNL     1      -0.498   5.521   4.653  0.00  0.00    -0.265 OA
ATOM      8  C   UNL     1      -1.526   7.228   3.419  0.00  0.00    +0.082 A 
ATOM      9  C   UNL     1      -1.863   8.131   4.375  0.00  0.00    +0.028 C 
ATOM     10  S   UNL     1      -1.782   7.302   1.651  0.00  0.00    -0.043 S 
ATOM     11  N   UNL     1      -0.048   3.949   2.491  0.00  0.00    -0.256 N 
ATOM     12  C   UNL     1       1.886   4.588   1.133  0.00  0.00    +0.056 C 
ATOM     13  H   UNL     1      -0.371   3.283  -0.608  0.00  0.00    +0.170 HD
ATOM     14  H   UNL     1      -0.732   3.232   2.683  0.00  0.00    +0.169 HD
ENDROOT
BRANCH   9  15
ATOM     15  C   UNL     1      -1.720   7.784   5.795  0.00  0.00    -0.024 A 
ATOM     16  C   UNL     1      -2.053   6.500   6.242  0.00  0.00    +0.011 A 
ATOM     17  C   UNL     1      -1.912   6.180   7.574  0.00  0.00    +0.046 A 
ATOM     18  C   UNL     1      -1.450   7.131   8.475  0.00  0.00    +0.120 A 
ATOM     19  C   UNL     1      -1.122   8.409   8.038  0.00  0.00    +0.046 A 
ATOM     20  C   UNL     1      -1.254   8.739   6.707  0.00  0.00    +0.011 A 
BRANCH  18  21
ATOM     21  O   UNL     1      -1.318   6.811   9.789  0.00  0.00    -0.495 OA
ATOM     22  C   UNL     1      -1.673   5.481  10.171  0.00  0.00    +0.277 C 
ENDBRANCH  18  21
ENDBRANCH   9  15
BRANCH   1  24
ATOM     23  C   UNL     1       1.954   1.965  -0.046  0.00  0.00    +0.008 C 
ATOM     24  C   UNL     1       1.108   2.216   1.204  0.00  0.00    +0.044 C 
ENDBRANCH   1  24
TORSDOF 3
