REMARK  Name = ZINC40314935
REMARK  17 active torsions:
REMARK  status: ('A' for Active; 'I' for Inactive)
REMARK    1  A    between atoms: C_1  and  C_2
REMARK    2  A    between atoms: C_5  and  O_9
REMARK    3  A    between atoms: C_7  and  C_8
REMARK    4  A    between atoms: O_9  and  C_10
REMARK    5  A    between atoms: C_10  and  C_11
REMARK    6  A    between atoms: C_11  and  C_13
REMARK    7  A    between atoms: C_11  and  O_36
REMARK    8  A    between atoms: C_13  and  N_14
REMARK    9  A    between atoms: N_14  and  C_15
REMARK   10  A    between atoms: N_14  and  C_28
REMARK   11  A    between atoms: C_15  and  C_16
REMARK   12  A    between atoms: C_18  and  O_26
REMARK   13  A    between atoms: C_19  and  O_24
REMARK   14  A    between atoms: C_20  and  O_22
REMARK   15  A    between atoms: O_22  and  C_23
REMARK   16  A    between atoms: O_24  and  C_25
REMARK   17  A    between atoms: O_26  and  C_27
REMARK                            x       y       z     vdW  Elec       q    Type
REMARK                         _______ _______ _______ _____ _____    ______ ____
ROOT
ATOM      1  N   UNL     1       0.741  -8.369  -2.285  0.00  0.00    +0.387 N 
ATOM      2  H   UNL     1       1.546  -8.679  -1.761  0.00  0.00    -0.081 HD
ENDROOT
BRANCH   1   3
ATOM      3  C   UNL     1      -0.481  -8.663  -1.525  0.00  0.00    -0.045 C 
ATOM      4  C   UNL     1      -0.405 -10.088  -0.950  0.00  0.00    +0.009 C 
ATOM      5  C   UNL     1      -1.796 -10.522  -0.430  0.00  0.00    +0.164 C 
ATOM      6  S   UNL     1      -2.945  -9.554  -1.492  0.00  0.00    -0.033 S 
ATOM      7  O   UNL     1      -3.690  -8.663  -0.674  0.00  0.00    -0.174 OA
ATOM      8  O   UNL     1      -3.630 -10.444  -2.362  0.00  0.00    -0.174 OA
ATOM      9  C   UNL     1      -1.716  -8.587  -2.467  0.00  0.00    +0.151 C 
ENDBRANCH   1   3
BRANCH   1  10
ATOM     10  C   UNL     1       0.836  -6.921  -2.517  0.00  0.00    -0.043 C 
BRANCH  10  11
ATOM     11  C   UNL     1       1.155  -6.213  -1.199  0.00  0.00    +0.135 C 
BRANCH  11  12
ATOM     12  O   UNL     1       0.032  -6.314  -0.321  0.00  0.00    -0.390 OA
ATOM     13  H   UNL     1      -0.793  -5.980  -0.698  0.00  0.00    +0.210 HD
ENDBRANCH  11  12
BRANCH  11  14
ATOM     14  C   UNL     1       1.458  -4.739  -1.473  0.00  0.00    +0.258 C 
BRANCH  14  15
ATOM     15  O   UNL     1       1.868  -4.104  -0.260  0.00  0.00    -0.489 OA
BRANCH  15  20
ATOM     16  C   UNL     1       3.143   1.375  -0.547  0.00  0.00    +0.044 C 
ATOM     17  C   UNL     1       2.803  -0.091  -0.470  0.00  0.00    -0.047 A 
ATOM     18  C   UNL     1       2.399  -0.766  -1.607  0.00  0.00    +0.007 A 
ATOM     19  C   UNL     1       2.086  -2.110  -1.540  0.00  0.00    +0.046 A 
ATOM     20  C   UNL     1       2.176  -2.782  -0.329  0.00  0.00    +0.121 A 
ATOM     21  C   UNL     1       2.582  -2.102   0.810  0.00  0.00    +0.049 A 
ATOM     22  C   UNL     1       2.899  -0.760   0.736  0.00  0.00    -0.044 A 
ATOM     23  C   UNL     1       3.345  -0.022   1.972  0.00  0.00    +0.044 C 
ENDBRANCH  15  20
ENDBRANCH  14  15
ENDBRANCH  11  14
ENDBRANCH  10  11
ENDBRANCH   1  10
BRANCH   1  24
ATOM     24  C   UNL     1       0.697  -9.070  -3.575  0.00  0.00    -0.042 C 
BRANCH  24  25
ATOM     25  C   UNL     1       0.795 -10.556  -3.343  0.00  0.00    -0.057 A 
ATOM     26  C   UNL     1       1.973 -11.103  -2.871  0.00  0.00    +0.051 A 
ATOM     27  C   UNL     1       2.067 -12.470  -2.656  0.00  0.00    +0.165 A 
ATOM     28  C   UNL     1       0.975 -13.289  -2.916  0.00  0.00    +0.204 A 
ATOM     29  C   UNL     1      -0.207 -12.735  -3.391  0.00  0.00    +0.165 A 
ATOM     30  C   UNL     1      -0.295 -11.367  -3.598  0.00  0.00    +0.051 A 
BRANCH  29  31
ATOM     31  O   UNL     1      -1.279 -13.533  -3.647  0.00  0.00    -0.491 OA
ATOM     32  C   UNL     1      -2.420 -12.914  -4.243  0.00  0.00    +0.277 C 
ENDBRANCH  29  31
BRANCH  28  33
ATOM     33  O   UNL     1       1.064 -14.631  -2.707  0.00  0.00    -0.488 OA
ATOM     34  C   UNL     1       0.702 -15.112  -1.411  0.00  0.00    +0.277 C 
ENDBRANCH  28  33
BRANCH  27  35
ATOM     35  O   UNL     1       3.227 -13.008  -2.192  0.00  0.00    -0.491 OA
ATOM     36  C   UNL     1       4.308 -12.106  -1.947  0.00  0.00    +0.277 C 
ENDBRANCH  27  35
ENDBRANCH  24  25
ENDBRANCH   1  24
TORSDOF 12
