REMARK  Name = ZINC36832580
REMARK  7 active torsions:
REMARK  status: ('A' for Active; 'I' for Inactive)
REMARK    1  A    between atoms: C_1  and  C_2
REMARK    2  A    between atoms: C_2  and  C_4
REMARK    3  A    between atoms: C_2  and  S_20
REMARK    4  A    between atoms: N_6  and  C_7
REMARK    5  A    between atoms: C_7  and  C_8
REMARK    6  A    between atoms: N_10  and  C_11
REMARK    7  A    between atoms: S_20  and  C_21
REMARK                            x       y       z     vdW  Elec       q    Type
REMARK                         _______ _______ _______ _____ _____    ______ ____
ROOT
ATOM      1  C   UNL     1      -0.362   0.908   0.046  0.00  0.00    +0.029 C 
ATOM      2  C   UNL     1      -0.590  -0.504   0.589  0.00  0.00    +0.137 C 
ENDROOT
BRANCH   2   3
ATOM      3  C   UNL     1      -0.184  -1.515  -0.453  0.00  0.00    +0.227 C 
ATOM      4  O   UNL     1       0.894  -2.065  -0.377  0.00  0.00    -0.275 OA
ATOM      5  N   UNL     1      -1.019  -1.807  -1.470  0.00  0.00    -0.306 N 
ATOM      6  H   UNL     1      -1.882  -1.367  -1.531  0.00  0.00    +0.149 HD
BRANCH   5   7
ATOM      7  C   UNL     1      -0.625  -2.789  -2.483  0.00  0.00    +0.200 C 
BRANCH   7   8
ATOM      8  C   UNL     1      -1.727  -2.931  -3.501  0.00  0.00    +0.234 C 
ATOM      9  O   UNL     1      -2.742  -2.277  -3.391  0.00  0.00    -0.274 OA
ATOM     10  N   UNL     1      -1.585  -3.786  -4.533  0.00  0.00    -0.282 N 
ATOM     11  H   UNL     1      -0.748  -4.260  -4.658  0.00  0.00    +0.155 HD
BRANCH  10  12
ATOM     12  C   UNL     1      -2.645  -3.989  -5.426  0.00  0.00    +0.072 A 
ATOM     13  C   UNL     1      -3.573  -2.979  -5.644  0.00  0.00    +0.029 A 
ATOM     14  C   UNL     1      -4.619  -3.180  -6.525  0.00  0.00    +0.043 A 
ATOM     15  C   UNL     1      -4.743  -4.387  -7.191  0.00  0.00    +0.161 A 
ATOM     16  C   UNL     1      -3.819  -5.398  -6.976  0.00  0.00    +0.195 A 
ATOM     17  C   UNL     1      -2.767  -5.199  -6.099  0.00  0.00    +0.182 A 
ATOM     18  F   UNL     1      -1.862  -6.181  -5.894  0.00  0.00    -0.200 F 
ATOM     19  F   UNL     1      -3.943  -6.576  -7.627  0.00  0.00    -0.199 F 
ATOM     20  F   UNL     1      -5.767  -4.580  -8.051  0.00  0.00    -0.202 F 
ENDBRANCH  10  12
ENDBRANCH   7   8
ENDBRANCH   5   7
ENDBRANCH   2   3
BRANCH   2  21
ATOM     21  S   UNL     1       0.406  -0.745   2.085  0.00  0.00    -0.073 S 
BRANCH  21  22
ATOM     22  C   UNL     1      -0.279   0.394   3.242  0.00  0.00    +0.192 A 
ATOM     23  N   UNL     1      -1.303   1.156   2.877  0.00  0.00    -0.207 NA
ATOM     24  C   UNL     1      -1.859   2.029   3.700  0.00  0.00    +0.129 A 
ATOM     25  C   UNL     1      -1.347   2.160   5.022  0.00  0.00    +0.051 A 
ATOM     26  C   UNL     1      -1.798   3.052   6.093  0.00  0.00    -0.025 A 
ATOM     27  C   UNL     1      -1.138   2.982   7.266  0.00  0.00    -0.004 A 
ATOM     28  S   UNL     1       0.106   1.742   7.023  0.00  0.00    -0.073 S 
ATOM     29  C   UNL     1      -0.262   1.320   5.340  0.00  0.00    +0.115 A 
ATOM     30  N   UNL     1       0.234   0.470   4.462  0.00  0.00    -0.214 NA
ATOM     31  C   UNL     1      -1.402   3.781   8.506  0.00  0.00    +0.043 C 
ATOM     32  C   UNL     1      -2.303   4.968   8.135  0.00  0.00    +0.005 C 
ATOM     33  C   UNL     1      -3.469   4.452   7.287  0.00  0.00    +0.005 C 
ATOM     34  C   UNL     1      -2.960   4.024   5.910  0.00  0.00    +0.037 C 
ATOM     35  N   UNL     1      -2.924   2.805   3.282  0.00  0.00    -0.343 N 
ATOM     36  H   UNL     1      -3.420   2.559   2.486  0.00  0.00    +0.144 HD
ATOM     37  H   UNL     1      -3.176   3.595   3.786  0.00  0.00    +0.144 HD
ENDBRANCH  21  22
ENDBRANCH   2  21
TORSDOF 6
