REMARK  Name = ZINC01307500
REMARK  9 active torsions:
REMARK  status: ('A' for Active; 'I' for Inactive)
REMARK    1  A    between atoms: C_1  and  C_2
REMARK    2  A    between atoms: C_2  and  C_3
REMARK    3  A    between atoms: C_2  and  O_4
REMARK    4  A    between atoms: O_4  and  C_5
REMARK    5  A    between atoms: C_8  and  C_11
REMARK    6  A    between atoms: C_11  and  S_12
REMARK    7  A    between atoms: S_12  and  C_13
REMARK    8  A    between atoms: C_24  and  C_26
REMARK    9  A    between atoms: C_24  and  C_27
REMARK                            x       y       z     vdW  Elec       q    Type
REMARK                         _______ _______ _______ _____ _____    ______ ____
ROOT
ATOM      1  C   UNL     1      -2.667   3.391   1.126  0.00  0.00    +0.191 A 
ATOM      2  N   UNL     1      -3.304   3.634  -0.014  0.00  0.00    -0.207 NA
ATOM      3  C   UNL     1      -4.512   4.170  -0.043  0.00  0.00    +0.129 A 
ATOM      4  C   UNL     1      -5.157   4.502   1.181  0.00  0.00    +0.051 A 
ATOM      5  C   UNL     1      -6.476   5.096   1.391  0.00  0.00    -0.020 A 
ATOM      6  C   UNL     1      -6.857   5.312   2.668  0.00  0.00    +0.021 A 
ATOM      7  S   UNL     1      -5.503   4.744   3.656  0.00  0.00    -0.071 S 
ATOM      8  C   UNL     1      -4.423   4.216   2.351  0.00  0.00    +0.115 A 
ATOM      9  N   UNL     1      -3.222   3.674   2.297  0.00  0.00    -0.215 NA
ATOM     10  C   UNL     1      -8.156   5.907   3.116  0.00  0.00    +0.203 C 
ATOM     11  O   UNL     1      -8.790   6.499   1.971  0.00  0.00    -0.368 OA
ATOM     12  C   UNL     1      -8.825   5.637   0.830  0.00  0.00    +0.068 C 
ATOM     13  C   UNL     1      -7.417   5.473   0.249  0.00  0.00    +0.071 C 
ATOM     14  C   UNL     1      -9.365   4.267   1.246  0.00  0.00    +0.041 C 
ATOM     15  C   UNL     1      -9.742   6.242  -0.235  0.00  0.00    +0.041 C 
ATOM     16  N   UNL     1      -5.141   4.407  -1.252  0.00  0.00    -0.343 N 
ATOM     17  H   UNL     1      -4.769   4.047  -2.071  0.00  0.00    +0.144 HD
ATOM     18  H   UNL     1      -5.956   4.934  -1.279  0.00  0.00    +0.144 HD
ENDROOT
BRANCH   1  19
ATOM     19  S   UNL     1      -1.059   2.673   1.082  0.00  0.00    -0.081 S 
BRANCH  19  20
ATOM     20  C   UNL     1      -0.836   2.509  -0.707  0.00  0.00    +0.112 C 
BRANCH  20  24
ATOM     21  C   UNL     1       2.984   0.778  -1.526  0.00  0.00    +0.121 A 
ATOM     22  C   UNL     1       1.875  -0.037  -1.350  0.00  0.00    +0.046 A 
ATOM     23  C   UNL     1       0.641   0.525  -1.083  0.00  0.00    +0.008 A 
ATOM     24  C   UNL     1       0.511   1.899  -0.992  0.00  0.00    -0.037 A 
ATOM     25  C   UNL     1       1.615   2.713  -1.167  0.00  0.00    +0.008 A 
ATOM     26  C   UNL     1       2.851   2.156  -1.434  0.00  0.00    +0.046 A 
BRANCH  21  27
ATOM     27  O   UNL     1       4.198   0.228  -1.788  0.00  0.00    -0.489 OA
BRANCH  27  29
ATOM     28  C   UNL     1       5.456  -1.547  -2.841  0.00  0.00    +0.051 C 
ATOM     29  C   UNL     1       4.240  -1.187  -1.984  0.00  0.00    +0.167 C 
ATOM     30  C   UNL     1       4.347  -1.887  -0.628  0.00  0.00    +0.051 C 
ENDBRANCH  27  29
ENDBRANCH  21  27
ENDBRANCH  20  24
ENDBRANCH  19  20
ENDBRANCH   1  19
TORSDOF 5
