REMARK  Name = ZINC49438384
REMARK  6 active torsions:
REMARK  status: ('A' for Active; 'I' for Inactive)
REMARK    1  A    between atoms: C_3  and  C_8
REMARK    2  A    between atoms: C_11  and  C_13
REMARK    3  A    between atoms: C_14  and  C_15
REMARK    4  A    between atoms: C_15  and  C_17
REMARK    5  A    between atoms: C_17  and  C_19
REMARK    6  A    between atoms: C_17  and  C_21
REMARK                            x       y       z     vdW  Elec       q    Type
REMARK                         _______ _______ _______ _____ _____    ______ ____
ROOT
ATOM      1  C   UNL     1       6.970   7.389  -0.013  0.00  0.00    +0.180 C 
ATOM      2  O   UNL     1       8.171   7.201  -0.030  0.00  0.00    -0.291 OA
ENDROOT
BRANCH   1   4
ATOM      3  C   UNL     1       6.582   5.026  -0.031  0.00  0.00    +0.018 C 
ATOM      4  C   UNL     1       6.091   6.299  -0.012  0.00  0.00    +0.049 C 
BRANCH   3   8
ATOM      5  C   UNL     1       3.656   2.161  -0.022  0.00  0.00    +0.020 A 
ATOM      6  C   UNL     1       4.956   1.676  -0.043  0.00  0.00    +0.017 A 
ATOM      7  C   UNL     1       5.989   2.566  -0.047  0.00  0.00    +0.016 A 
ATOM      8  C   UNL     1       5.696   3.929  -0.030  0.00  0.00    +0.013 A 
ATOM      9  S   UNL     1       3.911   3.928  -0.016  0.00  0.00    -0.089 S 
BRANCH   5  12
ATOM     10  C   UNL     1      -0.017   1.379   0.010  0.00  0.00    +0.002 A 
ATOM     11  C   UNL     1       1.167   2.089   0.002  0.00  0.00    +0.009 A 
ATOM     12  C   UNL     1       2.386   1.408  -0.013  0.00  0.00    -0.010 A 
ATOM     13  C   UNL     1       2.398   0.011  -0.021  0.00  0.00    +0.029 A 
ATOM     14  C   UNL     1       1.207  -0.686  -0.013  0.00  0.00    +0.042 A 
ATOM     15  C   UNL     1       0.002  -0.004   0.002  0.00  0.00    +0.020 A 
ATOM     16 CL   UNL     1       1.220  -2.422  -0.023  0.00  0.00    -0.084 Cl
ENDBRANCH   5  12
ENDBRANCH   3   8
ENDBRANCH   1   4
BRANCH   1  17
ATOM     17  C   UNL     1       6.428   8.795   0.007  0.00  0.00    +0.229 C 
BRANCH  17  18
ATOM     18  C   UNL     1       7.386   9.713  -0.706  0.00  0.00    +0.161 A 
ATOM     19  N   UNL     1       8.628   9.838  -0.271  0.00  0.00    -0.198 NA
ATOM     20  C   UNL     1       9.477  10.648  -0.898  0.00  0.00    +0.217 A 
ATOM     21  N   UNL     1       9.076  11.332  -1.964  0.00  0.00    -0.181 NA
ATOM     22  C   UNL     1       7.827  11.204  -2.399  0.00  0.00    +0.217 A 
ATOM     23  N   UNL     1       7.405  11.912  -3.506  0.00  0.00    -0.327 N 
ATOM     24  N   UNL     1       6.985  10.388  -1.769  0.00  0.00    -0.198 NA
ATOM     25  N   UNL     1      10.773  10.777  -0.442  0.00  0.00    -0.327 N 
ATOM     26  H   UNL     1       8.020  12.504  -3.966  0.00  0.00    +0.145 HD
ATOM     27  H   UNL     1      11.066  10.278   0.336  0.00  0.00    +0.145 HD
ATOM     28  H   UNL     1      11.392  11.368  -0.900  0.00  0.00    +0.145 HD
ATOM     29  H   UNL     1       6.493  11.819  -3.823  0.00  0.00    +0.145 HD
ENDBRANCH  17  18
BRANCH  17  30
ATOM     30  C   UNL     1       6.269   9.239   1.401  0.00  0.00    +0.082 C 
ATOM     31  N   UNL     1       6.146   9.582   2.478  0.00  0.00    -0.195 NA
ENDBRANCH  17  30
ENDBRANCH   1  17
TORSDOF 6
