REMARK  Name = ZINC13799974
REMARK  8 active torsions:
REMARK  status: ('A' for Active; 'I' for Inactive)
REMARK    1  A    between atoms: C_5  and  C_7
REMARK    2  A    between atoms: N_11  and  C_15
REMARK    3  A    between atoms: C_15  and  C_16
REMARK    4  A    between atoms: C_16  and  C_17
REMARK    5  A    between atoms: C_17  and  C_18
REMARK    6  A    between atoms: N_20  and  N_21
REMARK    7  A    between atoms: C_22  and  C_24
REMARK    8  A    between atoms: C_28  and  N_30
REMARK                            x       y       z     vdW  Elec       q    Type
REMARK                         _______ _______ _______ _____ _____    ______ ____
ROOT
ATOM      1  C   UNL     1      -2.811  -1.183  -3.093  0.00  0.00    +0.099 C 
ENDROOT
BRANCH   1   2
ATOM      2  C   UNL     1      -3.083  -1.084  -4.571  0.00  0.00    +0.229 C 
ATOM      3  O   UNL     1      -2.306  -0.497  -5.294  0.00  0.00    -0.274 OA
ATOM      4  N   UNL     1      -4.192  -1.647  -5.091  0.00  0.00    -0.234 N 
ATOM      5  H   UNL     1      -4.814  -2.116  -4.514  0.00  0.00    +0.173 HD
BRANCH   4   6
ATOM      6  N   UNL     1      -4.446  -1.555  -6.466  0.00  0.00    -0.230 N 
ATOM      7  C   UNL     1      -5.554  -2.119  -6.986  0.00  0.00    +0.260 C 
ATOM      8  O   UNL     1      -6.334  -2.706  -6.262  0.00  0.00    -0.269 OA
ATOM      9  H   UNL     1      -3.824  -1.086  -7.044  0.00  0.00    +0.173 HD
BRANCH   7  10
ATOM     10  C   UNL     1      -5.822  -2.021  -8.437  0.00  0.00    +0.040 A 
ATOM     11  C   UNL     1      -4.931  -1.342  -9.270  0.00  0.00    +0.013 A 
ATOM     12  C   UNL     1      -5.185  -1.259 -10.623  0.00  0.00    +0.003 A 
ATOM     13  C   UNL     1      -6.324  -1.839 -11.154  0.00  0.00    +0.033 A 
ATOM     14  C   UNL     1      -7.213  -2.509 -10.333  0.00  0.00    +0.127 A 
ATOM     15  C   UNL     1      -6.969  -2.604  -8.978  0.00  0.00    +0.045 A 
BRANCH  14  16
ATOM     16  N   UNL     1      -8.429  -3.126 -10.909  0.00  0.00    +0.056 N 
ATOM     17  O   UNL     1      -9.213  -3.716 -10.187  0.00  0.00    -0.126 OA
ATOM     18  O   UNL     1      -8.646  -3.043 -12.105  0.00  0.00    -0.126 OA
ENDBRANCH  14  16
ENDBRANCH   7  10
ENDBRANCH   4   6
ENDBRANCH   1   2
BRANCH   1  19
ATOM     19  C   UNL     1      -1.499  -0.465  -2.767  0.00  0.00    +0.029 C 
BRANCH  19  20
ATOM     20  C   UNL     1      -1.222  -0.566  -1.266  0.00  0.00    +0.115 C 
BRANCH  20  25
ATOM     21  C   UNL     1       1.585   3.323   0.005  0.00  0.00    +0.029 C 
ATOM     22  C   UNL     1       1.307   2.041  -0.340  0.00  0.00    +0.077 C 
ATOM     23  C   UNL     1       0.007   1.407  -0.643  0.00  0.00    +0.258 C 
ATOM     24  O   UNL     1      -1.034   2.036  -0.614  0.00  0.00    -0.269 OA
ATOM     25  N   UNL     1       0.034   0.121  -0.954  0.00  0.00    -0.255 N 
ATOM     26  C   UNL     1       1.190  -0.571  -0.990  0.00  0.00    +0.121 C 
ATOM     27  S   UNL     1       1.428  -2.224  -1.367  0.00  0.00    -0.027 S 
ATOM     28  S   UNL     1       2.414   0.653  -0.551  0.00  0.00    -0.061 S 
BRANCH  21  33
ATOM     29  C   UNL     1       5.308   3.464  -0.409  0.00  0.00    +0.001 A 
ATOM     30  C   UNL     1       5.613   4.617   0.294  0.00  0.00    +0.001 A 
ATOM     31  C   UNL     1       4.611   5.350   0.904  0.00  0.00    +0.020 A 
ATOM     32  C   UNL     1       3.296   4.937   0.815  0.00  0.00    +0.048 A 
ATOM     33  C   UNL     1       2.980   3.772   0.105  0.00  0.00    -0.005 A 
ATOM     34  C   UNL     1       4.002   3.034  -0.504  0.00  0.00    +0.009 A 
ATOM     35 CL   UNL     1       2.040   5.858   1.581  0.00  0.00    -0.083 Cl
ENDBRANCH  21  33
ENDBRANCH  20  25
ENDBRANCH  19  20
ENDBRANCH   1  19
TORSDOF 8
