REMARK  Name = ZINC14184743
REMARK  9 active torsions:
REMARK  status: ('A' for Active; 'I' for Inactive)
REMARK    1  A    between atoms: C_1  and  O_2
REMARK    2  A    between atoms: O_2  and  C_3
REMARK    3  A    between atoms: C_6  and  C_9
REMARK    4  A    between atoms: C_9  and  C_11
REMARK    5  A    between atoms: C_9  and  N_66
REMARK    6  A    between atoms: C_11  and  N_12
REMARK    7  A    between atoms: C_13  and  C_15
REMARK    8  A    between atoms: N_20  and  S_22
REMARK    9  A    between atoms: S_22  and  C_25
REMARK                            x       y       z     vdW  Elec       q    Type
REMARK                         _______ _______ _______ _____ _____    ______ ____
ROOT
ATOM      1  N   UNL     1      -0.014   0.980  -0.059  0.00  0.00    -0.316 N 
ATOM      2  C   UNL     1       1.139   1.676  -0.118  0.00  0.00    +0.217 C 
ATOM      3  O   UNL     1       1.114   2.888  -0.155  0.00  0.00    -0.275 OA
ATOM      4  H   UNL     1       0.006   0.011  -0.029  0.00  0.00    +0.149 HD
ENDROOT
BRANCH   2   5
ATOM      5  C   UNL     1       2.458   0.949  -0.138  0.00  0.00    +0.091 C 
ATOM      6  C   UNL     1       2.598   0.110   1.135  0.00  0.00    +0.015 C 
ATOM      7  C   UNL     1       3.923  -0.655   1.100  0.00  0.00    +0.018 C 
ATOM      8  C   UNL     1       5.083   0.343   1.050  0.00  0.00    +0.109 C 
ATOM      9  N   UNL     1       4.879   1.248  -0.090  0.00  0.00    -0.176 NA
ATOM     10  C   UNL     1       3.602   1.966  -0.202  0.00  0.00    +0.122 C 
BRANCH   9  11
ATOM     11  S   UNL     1       6.066   1.456  -1.226  0.00  0.00    +0.061 S 
ATOM     12  O   UNL     1       5.836   2.723  -1.827  0.00  0.00    -0.153 OA
ATOM     13  O   UNL     1       7.295   1.125  -0.594  0.00  0.00    -0.153 OA
BRANCH  11  14
ATOM     14  C   UNL     1       5.804   0.247  -2.481  0.00  0.00    +0.106 A 
ATOM     15  C   UNL     1       6.407  -0.993  -2.382  0.00  0.00    +0.031 A 
ATOM     16  C   UNL     1       6.197  -1.943  -3.363  0.00  0.00    +0.040 A 
ATOM     17  C   UNL     1       5.391  -1.649  -4.451  0.00  0.00    +0.124 A 
ATOM     18  C   UNL     1       4.792  -0.405  -4.551  0.00  0.00    +0.040 A 
ATOM     19  C   UNL     1       4.999   0.542  -3.566  0.00  0.00    +0.031 A 
ATOM     20  F   UNL     1       5.191  -2.576  -5.413  0.00  0.00    -0.205 F 
ENDBRANCH  11  14
ENDBRANCH   9  11
ENDBRANCH   2   5
BRANCH   1  21
ATOM     21  C   UNL     1      -1.297   1.687  -0.046  0.00  0.00    +0.093 C 
BRANCH  21  22
ATOM     22  C   UNL     1      -2.439   0.671   0.017  0.00  0.00    -0.020 C 
BRANCH  22  26
ATOM     23  C   UNL     1      -6.161   2.734   0.406  0.00  0.00    +0.120 A 
ATOM     24  C   UNL     1      -5.033   3.207   1.060  0.00  0.00    +0.046 A 
ATOM     25  C   UNL     1      -3.831   2.538   0.933  0.00  0.00    +0.005 A 
ATOM     26  C   UNL     1      -3.752   1.398   0.155  0.00  0.00    -0.059 A 
ATOM     27  C   UNL     1      -4.873   0.928  -0.502  0.00  0.00    +0.005 A 
ATOM     28  C   UNL     1      -6.079   1.589  -0.373  0.00  0.00    +0.046 A 
BRANCH  23  30
ATOM     29  C   UNL     1      -8.465   2.846  -0.172  0.00  0.00    +0.277 C 
ATOM     30  O   UNL     1      -7.345   3.390   0.530  0.00  0.00    -0.495 OA
ENDBRANCH  23  30
ENDBRANCH  22  26
BRANCH  22  35
ATOM     31  C   UNL     1      -2.409   0.535   2.448  0.00  0.00    -0.078 C 
ATOM     32  C   UNL     1      -2.699  -0.583   3.481  0.00  0.00    -0.020 C 
ATOM     33  C   UNL     1      -3.578  -1.573   2.681  0.00  0.00    -0.020 C 
ATOM     34  C   UNL     1      -3.265  -1.283   1.202  0.00  0.00    -0.078 C 
ATOM     35  N   UNL     1      -2.253  -0.225   1.198  0.00  0.00    +0.385 N 
ATOM     36  H   UNL     1      -1.316  -0.642   1.160  0.00  0.00    -0.081 HD
ENDBRANCH  22  35
ENDBRANCH  21  22
ENDBRANCH   1  21
TORSDOF 8
