REMARK  Name = ZINC35174071
REMARK  12 active torsions:
REMARK  status: ('A' for Active; 'I' for Inactive)
REMARK    1  A    between atoms: C_1  and  C_2
REMARK    2  A    between atoms: C_2  and  O_3
REMARK    3  A    between atoms: O_3  and  C_4
REMARK    4  A    between atoms: C_4  and  C_6
REMARK    5  A    between atoms: C_6  and  N_7
REMARK    6  A    between atoms: N_7  and  C_8
REMARK    7  A    between atoms: C_9  and  C_18
REMARK    8  A    between atoms: C_13  and  C_17
REMARK    9  A    between atoms: C_22  and  O_24
REMARK   10  A    between atoms: O_24  and  S_25
REMARK   11  A    between atoms: S_25  and  C_28
REMARK   12  A    between atoms: C_31  and  N_34
REMARK                            x       y       z     vdW  Elec       q    Type
REMARK                         _______ _______ _______ _____ _____    ______ ____
ROOT
ATOM      1  C   UNL     1       2.091  -4.543  -3.447  0.00  0.00    +0.130 A 
ATOM      2  C   UNL     1       2.165  -5.920  -3.453  0.00  0.00    +0.087 A 
ATOM      3  N   UNL     1       2.925  -6.292  -4.500  0.00  0.00    -0.338 N 
ATOM      4  C   UNL     1       3.331  -5.213  -5.149  0.00  0.00    +0.117 A 
ATOM      5  N   UNL     1       2.819  -4.103  -4.517  0.00  0.00    -0.286 N 
ATOM      6  C   UNL     1       3.087  -2.848  -4.996  0.00  0.00    +0.024 A 
ATOM      7  C   UNL     1       3.850  -2.682  -6.095  0.00  0.00    +0.021 A 
ATOM      8  C   UNL     1       4.383  -3.797  -6.765  0.00  0.00    +0.005 A 
ATOM      9  C   UNL     1       4.135  -5.049  -6.297  0.00  0.00    +0.045 A 
ATOM     10  C   UNL     1       2.522  -1.643  -4.290  0.00  0.00    +0.064 C 
ATOM     11  H   UNL     1       3.142  -7.206  -4.740  0.00  0.00    +0.167 HD
ENDROOT
BRANCH   2  12
ATOM     12  C   UNL     1       1.521  -6.832  -2.478  0.00  0.00    +0.005 A 
ATOM     13  C   UNL     1       1.529  -6.520  -1.119  0.00  0.00    +0.010 A 
ATOM     14  C   UNL     1       0.928  -7.371  -0.213  0.00  0.00    +0.004 A 
ATOM     15  C   UNL     1       0.318  -8.532  -0.649  0.00  0.00    +0.048 A 
ATOM     16  C   UNL     1       0.305  -8.850  -2.001  0.00  0.00    +0.157 A 
ATOM     17  C   UNL     1       0.900  -7.999  -2.918  0.00  0.00    +0.058 A 
BRANCH  16  18
ATOM     18  O   UNL     1      -0.296  -9.992  -2.425  0.00  0.00    -0.342 OA
BRANCH  18  19
ATOM     19  S   UNL     1      -1.770  -9.825  -2.768  0.00  0.00    +0.151 S 
ATOM     20  O   UNL     1      -2.286 -11.131  -2.986  0.00  0.00    -0.131 OA
ATOM     21  O   UNL     1      -2.315  -8.943  -1.798  0.00  0.00    -0.131 OA
BRANCH  19  22
ATOM     22  C   UNL     1      -1.852  -8.987  -4.315  0.00  0.00    +0.128 A 
ATOM     23  C   UNL     1      -1.893  -7.605  -4.351  0.00  0.00    +0.033 A 
ATOM     24  C   UNL     1      -1.958  -6.947  -5.565  0.00  0.00    +0.035 A 
ATOM     25  C   UNL     1      -1.982  -7.670  -6.743  0.00  0.00    +0.126 A 
ATOM     26  C   UNL     1      -1.940  -9.052  -6.707  0.00  0.00    +0.035 A 
ATOM     27  C   UNL     1      -1.871  -9.710  -5.493  0.00  0.00    +0.033 A 
BRANCH  25  28
ATOM     28  N   UNL     1      -2.052  -6.966  -8.043  0.00  0.00    +0.056 N 
ATOM     29  O   UNL     1      -2.089  -5.758  -8.074  0.00  0.00    -0.126 OA
ATOM     30  O   UNL     1      -2.073  -7.598  -9.073  0.00  0.00    -0.126 OA
ENDBRANCH  25  28
ENDBRANCH  19  22
ENDBRANCH  18  19
ENDBRANCH  16  18
ENDBRANCH   2  12
BRANCH   1  31
ATOM     31  N   UNL     1       1.401  -3.752  -2.528  0.00  0.00    -0.318 N 
ATOM     32  H   UNL     1       1.850  -3.011  -2.092  0.00  0.00    +0.148 HD
BRANCH  31  33
ATOM     33  C   UNL     1      -0.003  -4.040  -2.223  0.00  0.00    +0.224 C 
BRANCH  33  34
ATOM     34  C   UNL     1      -0.540  -2.986  -1.289  0.00  0.00    +0.324 C 
ATOM     35  O   UNL     1       0.176  -2.087  -0.917  0.00  0.00    -0.249 OA
BRANCH  34  36
ATOM     36  O   UNL     1      -1.814  -3.046  -0.871  0.00  0.00    -0.464 OA
BRANCH  36  38
ATOM     37  C   UNL     1      -3.724  -2.250   0.378  0.00  0.00    +0.048 C 
ATOM     38  C   UNL     1      -2.257  -2.014   0.013  0.00  0.00    +0.229 C 
ENDBRANCH  36  38
ENDBRANCH  34  36
ENDBRANCH  33  34
ENDBRANCH  31  33
ENDBRANCH   1  31
TORSDOF 10
