REMARK  Name = ZINC02918439
REMARK  3 active torsions:
REMARK  status: ('A' for Active; 'I' for Inactive)
REMARK    1  A    between atoms: C_3  and  C_10
REMARK    2  A    between atoms: C_5  and  N_7
REMARK    3  A    between atoms: C_12  and  C_20
REMARK                            x       y       z     vdW  Elec       q    Type
REMARK                         _______ _______ _______ _____ _____    ______ ____
ROOT
ATOM      1  C   UNL     1       3.653   2.155  -0.022  0.00  0.00    +0.055 C 
ATOM      2  C   UNL     1       3.602   3.657  -0.008  0.00  0.00    +0.088 C 
ATOM      3  C   UNL     1       4.784   4.245   0.771  0.00  0.00    +0.151 C 
ATOM      4  N   UNL     1       5.985   3.491   0.410  0.00  0.00    -0.222 N 
ATOM      5  C   UNL     1       5.946   2.175   0.039  0.00  0.00    +0.249 A 
ATOM      6  N   UNL     1       7.177   1.797  -0.202  0.00  0.00    -0.198 NA
ATOM      7  C   UNL     1       8.007   2.823  -0.007  0.00  0.00    +0.247 A 
ATOM      8  N   UNL     1       7.319   3.878   0.364  0.00  0.00    -0.156 NA
ATOM      9  N   UNL     1       4.775   1.488  -0.036  0.00  0.00    -0.215 NA
ENDROOT
BRANCH   3  10
ATOM     10  C   UNL     1       4.530   4.121   2.252  0.00  0.00    +0.031 A 
ATOM     11  C   UNL     1       4.353   2.872   2.822  0.00  0.00    +0.130 A 
ATOM     12  C   UNL     1       4.120   2.760   4.182  0.00  0.00    +0.039 A 
ATOM     13  C   UNL     1       4.064   3.894   4.970  0.00  0.00    +0.004 A 
ATOM     14  C   UNL     1       4.241   5.141   4.400  0.00  0.00    +0.020 A 
ATOM     15  C   UNL     1       4.480   5.255   3.042  0.00  0.00    +0.049 A 
ATOM     16 CL   UNL     1       4.709   6.821   2.329  0.00  0.00    -0.083 Cl
ATOM     17  F   UNL     1       4.407   1.763   2.052  0.00  0.00    -0.205 F 
ENDBRANCH   3  10
BRANCH   1  20
ATOM     18  C   UNL     1      -0.017   1.380   0.010  0.00  0.00    +0.003 A 
ATOM     19  C   UNL     1       1.166   2.089   0.002  0.00  0.00    +0.010 A 
ATOM     20  C   UNL     1       2.386   1.406  -0.013  0.00  0.00    -0.001 A 
ATOM     21  C   UNL     1       2.397   0.007  -0.021  0.00  0.00    +0.042 A 
ATOM     22  C   UNL     1       1.206  -0.687  -0.013  0.00  0.00    +0.127 A 
ATOM     23  C   UNL     1       0.002  -0.004   0.002  0.00  0.00    +0.033 A 
BRANCH  22  24
ATOM     24  N   UNL     1       1.215  -2.167  -0.021  0.00  0.00    +0.056 N 
ATOM     25  O   UNL     1       2.265  -2.765  -0.035  0.00  0.00    -0.126 OA
ATOM     26  O   UNL     1       0.171  -2.778  -0.015  0.00  0.00    -0.126 OA
ENDBRANCH  22  24
ENDBRANCH   1  20
TORSDOF 3
