REMARK  Name = ZINC00667668
REMARK  9 active torsions:
REMARK  status: ('A' for Active; 'I' for Inactive)
REMARK    1  A    between atoms: C_1  and  C_2
REMARK    2  A    between atoms: C_5  and  N_38
REMARK    3  A    between atoms: C_7  and  N_8
REMARK    4  A    between atoms: C_11  and  C_18
REMARK    5  A    between atoms: C_13  and  C_16
REMARK    6  A    between atoms: C_14  and  N_15
REMARK    7  A    between atoms: C_21  and  O_24
REMARK    8  A    between atoms: O_24  and  C_25
REMARK    9  A    between atoms: C_29  and  C_32
REMARK                            x       y       z     vdW  Elec       q    Type
REMARK                         _______ _______ _______ _____ _____    ______ ____
ROOT
ATOM      1  N   UNL     1      -0.684  -2.721   2.411  0.00  0.00    -0.260 N 
ATOM      2  C   UNL     1      -0.722  -2.043   1.221  0.00  0.00    +0.025 C 
ATOM      3  C   UNL     1      -0.776  -2.712   0.050  0.00  0.00    +0.025 C 
ATOM      4  C   UNL     1      -0.810  -4.219   0.019  0.00  0.00    +0.097 C 
ATOM      5  C   UNL     1      -0.346  -4.799   1.322  0.00  0.00    +0.077 C 
ATOM      6  C   UNL     1      -0.304  -4.044   2.450  0.00  0.00    +0.107 C 
ATOM      7  C   UNL     1      -0.797  -2.025  -1.177  0.00  0.00    +0.162 C 
ATOM      8  O   UNL     1      -0.857  -2.656  -2.213  0.00  0.00    -0.292 OA
ATOM      9  C   UNL     1      -0.746  -0.522  -1.230  0.00  0.00    +0.088 C 
ATOM     10  C   UNL     1       0.002  -0.004   0.002  0.00  0.00    +0.032 C 
ATOM     11  C   UNL     1      -0.700  -0.535   1.254  0.00  0.00    +0.060 C 
ENDROOT
BRANCH   1  18
ATOM     12  C   UNL     1       1.370  -1.396   3.869  0.00  0.00    +0.045 C 
ATOM     13  C   UNL     1      -0.062  -1.404   4.338  0.00  0.00    -0.029 A 
ATOM     14  C   UNL     1      -0.411  -0.756   5.507  0.00  0.00    +0.007 A 
ATOM     15  C   UNL     1      -1.724  -0.763   5.939  0.00  0.00    +0.033 A 
ATOM     16  C   UNL     1      -2.694  -1.419   5.202  0.00  0.00    +0.128 A 
ATOM     17  C   UNL     1      -2.353  -2.065   4.030  0.00  0.00    +0.056 A 
ATOM     18  C   UNL     1      -1.033  -2.064   3.596  0.00  0.00    +0.045 A 
BRANCH  16  19
ATOM     19  N   UNL     1      -4.099  -1.424   5.667  0.00  0.00    +0.056 N 
ATOM     20  O   UNL     1      -4.401  -0.850   6.698  0.00  0.00    -0.126 OA
ATOM     21  O   UNL     1      -4.953  -2.002   5.019  0.00  0.00    -0.126 OA
ENDBRANCH  16  19
ENDBRANCH   1  18
BRANCH   4  22
ATOM     22  C   UNL     1      -2.221  -4.675  -0.250  0.00  0.00    -0.034 A 
ATOM     23  C   UNL     1      -3.229  -4.364   0.644  0.00  0.00    +0.008 A 
ATOM     24  C   UNL     1      -4.524  -4.776   0.397  0.00  0.00    +0.046 A 
ATOM     25  C   UNL     1      -4.811  -5.512  -0.743  0.00  0.00    +0.120 A 
ATOM     26  C   UNL     1      -3.797  -5.828  -1.636  0.00  0.00    +0.046 A 
ATOM     27  C   UNL     1      -2.505  -5.409  -1.387  0.00  0.00    +0.008 A 
BRANCH  25  28
ATOM     28  O   UNL     1      -6.084  -5.924  -0.985  0.00  0.00    -0.495 OA
ATOM     29  C   UNL     1      -7.077  -5.562  -0.024  0.00  0.00    +0.277 C 
ENDBRANCH  25  28
ENDBRANCH   4  22
BRANCH  10  30
ATOM     30  C   UNL     1      -0.018   1.503   0.010  0.00  0.00    -0.044 A 
ATOM     31  C   UNL     1      -1.225   2.178   0.020  0.00  0.00    +0.004 A 
ATOM     32  C   UNL     1      -1.244   3.560   0.032  0.00  0.00    +0.000 A 
ATOM     33  C   UNL     1      -0.056   4.267   0.025  0.00  0.00    +0.000 A 
ATOM     34  C   UNL     1       1.151   3.592   0.010  0.00  0.00    +0.000 A 
ATOM     35  C   UNL     1       1.169   2.210   0.003  0.00  0.00    +0.004 A 
ENDBRANCH  10  30
BRANCH   6  36
ATOM     36  N   UNL     1       0.118  -4.601   3.634  0.00  0.00    -0.345 N 
ATOM     37  H   UNL     1       0.148  -4.063   4.440  0.00  0.00    +0.144 HD
ATOM     38  H   UNL     1       0.386  -5.533   3.662  0.00  0.00    +0.144 HD
ENDBRANCH   6  36
BRANCH   5  39
ATOM     39  C   UNL     1       0.060  -6.171   1.378  0.00  0.00    +0.099 C 
ATOM     40  N   UNL     1       0.383  -7.259   1.421  0.00  0.00    -0.191 NA
ENDBRANCH   5  39
TORSDOF 7
