REMARK  Name = ZINC59170642
REMARK  8 active torsions:
REMARK  status: ('A' for Active; 'I' for Inactive)
REMARK    1  A    between atoms: C_1  and  C_2
REMARK    2  A    between atoms: C_2  and  C_3
REMARK    3  A    between atoms: C_8  and  N_9
REMARK    4  A    between atoms: C_10  and  C_12
REMARK    5  A    between atoms: C_16  and  C_33
REMARK    6  A    between atoms: N_22  and  C_23
REMARK    7  A    between atoms: C_26  and  S_29
REMARK    8  A    between atoms: S_29  and  N_32
REMARK                            x       y       z     vdW  Elec       q    Type
REMARK                         _______ _______ _______ _____ _____    ______ ____
ROOT
ATOM      1  C   UNL     1      -1.448  -0.339  -4.806  0.00  0.00    +0.098 A 
ATOM      2  C   UNL     1      -2.141  -0.459  -6.004  0.00  0.00    +0.030 A 
ATOM      3  C   UNL     1      -1.423  -0.116  -7.234  0.00  0.00    +0.018 A 
ATOM      4  C   UNL     1      -2.110   0.051  -8.442  0.00  0.00    +0.015 A 
ATOM      5  C   UNL     1      -1.418   0.374  -9.576  0.00  0.00    -0.050 A 
ATOM      6  C   UNL     1      -0.041   0.540  -9.539  0.00  0.00    +0.007 A 
ATOM      7  C   UNL     1       0.655   0.379  -8.357  0.00  0.00    +0.047 A 
ATOM      8  C   UNL     1      -0.025   0.049  -7.195  0.00  0.00    +0.137 A 
ATOM      9  O   UNL     1       0.642  -0.119  -6.027  0.00  0.00    -0.439 OA
ATOM     10  C   UNL     1      -0.049   0.128  -4.883  0.00  0.00    +0.212 A 
ATOM     11  N   UNL     1       0.510   0.760  -3.873  0.00  0.00    -0.325 N 
ATOM     12  C   UNL     1      -2.157   0.552 -10.877  0.00  0.00    +0.044 C 
ATOM     13  H   UNL     1      -0.028   1.030  -3.112  0.00  0.00    +0.169 HD
ENDROOT
BRANCH  11  14
ATOM     14  C   UNL     1       1.849   1.037  -3.897  0.00  0.00    +0.042 A 
ATOM     15  C   UNL     1       2.761   0.058  -4.301  0.00  0.00    +0.027 A 
ATOM     16  C   UNL     1       4.110   0.344  -4.323  0.00  0.00    +0.030 A 
ATOM     17  C   UNL     1       4.561   1.597  -3.946  0.00  0.00    +0.105 A 
ATOM     18  C   UNL     1       3.664   2.571  -3.545  0.00  0.00    +0.030 A 
ATOM     19  C   UNL     1       2.311   2.301  -3.523  0.00  0.00    +0.027 A 
BRANCH  17  20
ATOM     20  S   UNL     1       6.286   1.953  -3.976  0.00  0.00    +0.056 S 
ATOM     21  O   UNL     1       6.497   3.018  -3.059  0.00  0.00    -0.153 OA
ATOM     22  O   UNL     1       6.960   0.707  -3.866  0.00  0.00    -0.153 OA
BRANCH  20  23
ATOM     23  N   UNL     1       6.637   2.549  -5.481  0.00  0.00    -0.204 NA
ATOM     24  H   UNL     1       5.934   2.639  -6.143  0.00  0.00    +0.144 HD
ATOM     25  H   UNL     1       7.546   2.808  -5.701  0.00  0.00    +0.144 HD
ENDBRANCH  20  23
ENDBRANCH  17  20
ENDBRANCH  11  14
BRANCH   1  27
ATOM     26  N   UNL     1      -1.352  -0.639  -2.384  0.00  0.00    -0.281 N 
ATOM     27  C   UNL     1      -2.082  -0.659  -3.517  0.00  0.00    +0.253 C 
ATOM     28  O   UNL     1      -3.264  -0.943  -3.474  0.00  0.00    -0.270 OA
ATOM     29  H   UNL     1      -0.421  -0.367  -2.411  0.00  0.00    +0.155 HD
BRANCH  26  35
ATOM     30  C   UNL     1      -1.139  -1.414  -0.107  0.00  0.00    -0.026 A 
ATOM     31  C   UNL     1      -1.719  -1.773   1.094  0.00  0.00    +0.005 A 
ATOM     32  C   UNL     1      -3.094  -1.735   1.238  0.00  0.00    +0.000 A 
ATOM     33  C   UNL     1      -3.892  -1.338   0.180  0.00  0.00    +0.002 A 
ATOM     34  C   UNL     1      -3.318  -0.978  -1.023  0.00  0.00    +0.023 A 
ATOM     35  C   UNL     1      -1.937  -1.009  -1.168  0.00  0.00    +0.037 A 
BRANCH  30  37
ATOM     36  C   UNL     1       0.941  -0.070   0.021  0.00  0.00    +0.009 C 
ATOM     37  C   UNL     1       0.360  -1.456  -0.263  0.00  0.00    +0.033 C 
ENDBRANCH  30  37
ENDBRANCH  26  35
ENDBRANCH   1  27
TORSDOF 6
