REMARK  Name = ZINC41287351
REMARK  5 active torsions:
REMARK  status: ('A' for Active; 'I' for Inactive)
REMARK    1  A    between atoms: C_1  and  O_2
REMARK    2  A    between atoms: O_2  and  C_3
REMARK    3  A    between atoms: C_6  and  C_9
REMARK    4  A    between atoms: C_11  and  O_12
REMARK    5  A    between atoms: C_21  and  C_23
REMARK                            x       y       z     vdW  Elec       q    Type
REMARK                         _______ _______ _______ _____ _____    ______ ____
ROOT
ATOM      1  C   UNL     1       2.699  -1.990  -4.154  0.00  0.00    +0.139 A 
ATOM      2  C   UNL     1       3.013  -3.318  -3.936  0.00  0.00    +0.093 A 
ATOM      3  C   UNL     1       3.762  -4.016  -4.881  0.00  0.00    +0.131 A 
ATOM      4  C   UNL     1       4.181  -3.331  -6.050  0.00  0.00    +0.059 A 
ATOM      5  C   UNL     1       4.937  -3.986  -7.035  0.00  0.00    +0.017 A 
ATOM      6  C   UNL     1       5.329  -3.313  -8.149  0.00  0.00    +0.024 A 
ATOM      7  C   UNL     1       4.982  -1.961  -8.321  0.00  0.00    +0.037 A 
ATOM      8  C   UNL     1       4.231  -1.297  -7.349  0.00  0.00    +0.070 A 
ATOM      9  C   UNL     1       3.827  -1.974  -6.213  0.00  0.00    +0.141 A 
ATOM     10  O   UNL     1       3.096  -1.350  -5.266  0.00  0.00    -0.455 OA
ATOM     11  N   UNL     1       5.380  -1.297  -9.439  0.00  0.00    -0.281 N 
ATOM     12  C   UNL     1       4.808  -0.146  -9.766  0.00  0.00    +0.249 C 
ATOM     13  O   UNL     1       3.841   0.255  -9.138  0.00  0.00    -0.270 OA
ATOM     14  H   UNL     1       6.083  -1.665  -9.997  0.00  0.00    +0.155 HD
ENDROOT
BRANCH  12  15
ATOM     15  C   UNL     1       5.342   0.652 -10.894  0.00  0.00    +0.051 A 
ATOM     16  C   UNL     1       6.443   0.194 -11.617  0.00  0.00    +0.014 A 
ATOM     17  C   UNL     1       6.936   0.942 -12.666  0.00  0.00    +0.001 A 
ATOM     18  C   UNL     1       6.341   2.146 -13.002  0.00  0.00    +0.001 A 
ATOM     19  C   UNL     1       5.249   2.606 -12.289  0.00  0.00    +0.016 A 
ATOM     20  C   UNL     1       4.742   1.863 -11.240  0.00  0.00    +0.030 A 
ATOM     21 BR   UNL     1       3.244   2.490 -10.272  0.00  0.00    -0.050 Br
ENDBRANCH  12  15
BRANCH   1  25
ATOM     22  C   UNL     1       0.415   0.107  -1.256  0.00  0.00    +0.120 A 
ATOM     23  C   UNL     1       0.834   0.757  -2.411  0.00  0.00    +0.046 A 
ATOM     24  C   UNL     1       1.575   0.081  -3.354  0.00  0.00    +0.015 A 
ATOM     25  C   UNL     1       1.907  -1.262  -3.148  0.00  0.00    +0.018 A 
ATOM     26  C   UNL     1       1.485  -1.912  -1.984  0.00  0.00    +0.015 A 
ATOM     27  C   UNL     1       0.748  -1.226  -1.044  0.00  0.00    +0.046 A 
BRANCH  22  29
ATOM     28  C   UNL     1      -0.622   2.144  -0.610  0.00  0.00    +0.277 C 
ATOM     29  O   UNL     1      -0.315   0.777  -0.329  0.00  0.00    -0.495 OA
ENDBRANCH  22  29
ENDBRANCH   1  25
BRANCH   3  30
ATOM     30  O   UNL     1       4.081  -5.315  -4.690  0.00  0.00    -0.506 OA
ATOM     31  H   UNL     1       3.745  -5.684  -3.861  0.00  0.00    +0.292 HD
ENDBRANCH   3  30
TORSDOF 4
