REMARK  Name = ZINC38984084
REMARK  7 active torsions:
REMARK  status: ('A' for Active; 'I' for Inactive)
REMARK    1  A    between atoms: C_1  and  C_2
REMARK    2  A    between atoms: C_2  and  O_3
REMARK    3  A    between atoms: O_3  and  C_4
REMARK    4  A    between atoms: C_9  and  N_10
REMARK    5  A    between atoms: N_10  and  C_11
REMARK    6  A    between atoms: N_14  and  S_15
REMARK    7  A    between atoms: S_15  and  C_18
REMARK                            x       y       z     vdW  Elec       q    Type
REMARK                         _______ _______ _______ _____ _____    ______ ____
ROOT
ATOM      1  C   UNL     1       2.615  -2.064   4.589  0.00  0.00    +0.237 C 
ATOM      2  C   UNL     1       3.920  -1.340   4.836  0.00  0.00    +0.192 C 
ATOM      3  N   UNL     1       4.856  -1.341   3.933  0.00  0.00    -0.110 NA
ATOM      4  N   UNL     1       4.097  -0.697   6.001  0.00  0.00    -0.226 NA
ATOM      5  C   UNL     1       3.164  -0.681   6.930  0.00  0.00    +0.089 A 
ATOM      6  C   UNL     1       3.386   0.009   8.149  0.00  0.00    +0.030 A 
ATOM      7  C   UNL     1       2.433   0.028   9.106  0.00  0.00    +0.002 A 
ATOM      8  C   UNL     1       1.194  -0.619   8.957  0.00  0.00    +0.002 A 
ATOM      9  C   UNL     1       0.881  -1.305   7.836  0.00  0.00    +0.027 A 
ATOM     10  C   UNL     1       1.865  -1.373   6.746  0.00  0.00    +0.063 A 
ATOM     11  N   UNL     1       1.597  -2.024   5.649  0.00  0.00    -0.359 N 
ATOM     12  H   UNL     1       0.745  -2.473   5.536  0.00  0.00    +0.162 HD
ENDROOT
BRANCH   3  13
ATOM     13  S   UNL     1       6.280  -0.544   4.217  0.00  0.00    +0.102 S 
ATOM     14  O   UNL     1       5.965   0.840   4.284  0.00  0.00    -0.146 OA
ATOM     15  O   UNL     1       6.925  -1.231   5.281  0.00  0.00    -0.146 OA
BRANCH  13  16
ATOM     16  C   UNL     1       7.291  -0.761   2.791  0.00  0.00    +0.132 A 
ATOM     17  C   UNL     1       7.640   0.330   2.018  0.00  0.00    +0.050 A 
ATOM     18  C   UNL     1       8.434   0.159   0.898  0.00  0.00    +0.043 A 
ATOM     19  C   UNL     1       8.880  -1.104   0.552  0.00  0.00    +0.021 A 
ATOM     20  C   UNL     1       8.531  -2.195   1.324  0.00  0.00    +0.023 A 
ATOM     21  C   UNL     1       7.741  -2.024   2.448  0.00  0.00    +0.068 A 
ATOM     22 CL   UNL     1       7.309  -3.394   3.423  0.00  0.00    -0.082 Cl
ATOM     23 CL   UNL     1       8.872   1.530  -0.073  0.00  0.00    -0.083 Cl
ENDBRANCH  13  16
ENDBRANCH   3  13
BRANCH   1  24
ATOM     24  N   UNL     1       2.018  -1.505   3.373  0.00  0.00    -0.315 N 
ATOM     25  H   UNL     1       1.911  -0.545   3.282  0.00  0.00    +0.149 HD
BRANCH  24  31
ATOM     26  C   UNL     1       1.151  -1.825   1.137  0.00  0.00    +0.141 A 
ATOM     27  C   UNL     1       0.744  -2.672   0.120  0.00  0.00    +0.047 A 
ATOM     28  C   UNL     1       0.779  -4.042   0.305  0.00  0.00    +0.004 A 
ATOM     29  C   UNL     1       1.219  -4.570   1.504  0.00  0.00    +0.002 A 
ATOM     30  C   UNL     1       1.627  -3.732   2.525  0.00  0.00    +0.026 A 
ATOM     31  C   UNL     1       1.600  -2.356   2.344  0.00  0.00    +0.071 A 
BRANCH  26  32
ATOM     32  O   UNL     1       1.117  -0.477   0.957  0.00  0.00    -0.490 OA
BRANCH  32  34
ATOM     33  C   UNL     1       0.678   1.526  -0.323  0.00  0.00    +0.048 C 
ATOM     34  C   UNL     1       0.644  -0.004  -0.306  0.00  0.00    +0.226 C 
ENDBRANCH  32  34
ENDBRANCH  26  32
ENDBRANCH  24  31
ENDBRANCH   1  24
TORSDOF 6
