REMARK  Name = ZINC20818579
REMARK  6 active torsions:
REMARK  status: ('A' for Active; 'I' for Inactive)
REMARK    1  A    between atoms: C_1  and  C_2
REMARK    2  A    between atoms: C_2  and  C_20
REMARK    3  A    between atoms: N_3  and  N_4
REMARK    4  A    between atoms: C_8  and  S_11
REMARK    5  A    between atoms: S_11  and  N_14
REMARK    6  A    between atoms: C_23  and  N_26
REMARK                            x       y       z     vdW  Elec       q    Type
REMARK                         _______ _______ _______ _____ _____    ______ ____
ROOT
ATOM      1  N   UNL     1       2.707  -1.542  -5.769  0.00  0.00    -0.221 N 
ATOM      2  C   UNL     1       1.876  -1.401  -4.664  0.00  0.00    +0.138 A 
ATOM      3  C   UNL     1       1.879  -2.375  -3.670  0.00  0.00    +0.047 A 
ATOM      4  C   UNL     1       1.046  -2.222  -2.576  0.00  0.00    +0.033 A 
ATOM      5  C   UNL     1       0.236  -1.096  -2.513  0.00  0.00    +0.124 A 
ATOM      6  C   UNL     1       0.280  -0.172  -3.538  0.00  0.00    +0.141 A 
ATOM      7  N   UNL     1       1.088  -0.341  -4.567  0.00  0.00    -0.237 NA
ATOM      8  H   UNL     1       3.363  -2.421  -5.855  0.00  0.00    +0.176 HD
ENDROOT
BRANCH   1  11
ATOM      9  C   UNL     1       4.385  -1.901  -7.923  0.00  0.00    +0.068 C 
ATOM     10  C   UNL     1       3.486  -0.698  -7.806  0.00  0.00    +0.063 C 
ATOM     11  N   UNL     1       2.709  -0.566  -6.774  0.00  0.00    -0.186 NA
BRANCH  10  12
ATOM     12  C   UNL     1       3.488   0.330  -8.862  0.00  0.00    -0.002 A 
ATOM     13  C   UNL     1       4.327   0.193  -9.971  0.00  0.00    +0.012 A 
ATOM     14  C   UNL     1       4.322   1.153 -10.960  0.00  0.00    +0.028 A 
ATOM     15  C   UNL     1       3.492   2.263 -10.849  0.00  0.00    +0.067 A 
ATOM     16  C   UNL     1       2.660   2.406  -9.745  0.00  0.00    +0.028 A 
ATOM     17  C   UNL     1       2.655   1.447  -8.755  0.00  0.00    +0.012 A 
BRANCH  15  18
ATOM     18  N   UNL     1       3.494   3.239 -11.854  0.00  0.00    -0.220 N 
ATOM     19  C   UNL     1       4.242   3.245 -12.974  0.00  0.00    +0.225 A 
ATOM     20  N   UNL     1       3.949   4.324 -13.652  0.00  0.00    -0.222 NA
ATOM     21  C   UNL     1       3.030   5.034 -12.997  0.00  0.00    +0.245 A 
ATOM     22  N   UNL     1       2.720   4.410 -11.891  0.00  0.00    -0.154 NA
ENDBRANCH  15  18
ENDBRANCH  10  12
ENDBRANCH   1  11
BRANCH   5  23
ATOM     23  S   UNL     1      -0.843  -0.853  -1.141  0.00  0.00    +0.062 S 
ATOM     24  O   UNL     1      -1.095  -2.138  -0.589  0.00  0.00    -0.153 OA
ATOM     25  O   UNL     1      -1.887   0.000  -1.592  0.00  0.00    -0.153 OA
BRANCH  23  26
ATOM     26  N   UNL     1       0.002  -0.004   0.002  0.00  0.00    -0.177 NA
ATOM     27  C   UNL     1      -0.018   1.465   0.010  0.00  0.00    +0.109 C 
ATOM     28  C   UNL     1       1.426   1.978  -0.001  0.00  0.00    +0.017 C 
ATOM     29  C   UNL     1       2.194   1.353   1.166  0.00  0.00    +0.003 C 
ATOM     30  C   UNL     1       2.220  -0.169   1.005  0.00  0.00    +0.017 C 
ATOM     31  C   UNL     1       0.786  -0.706   1.028  0.00  0.00    +0.109 C 
ENDBRANCH  23  26
ENDBRANCH   5  23
TORSDOF 5
