REMARK  Name = ZINC33858628
REMARK  6 active torsions:
REMARK  status: ('A' for Active; 'I' for Inactive)
REMARK    1  A    between atoms: C_9  and  O_30
REMARK    2  A    between atoms: C_10  and  C_11
REMARK    3  A    between atoms: C_20  and  C_28
REMARK    4  A    between atoms: C_21  and  N_27
REMARK    5  A    between atoms: C_22  and  C_23
REMARK    6  A    between atoms: C_22  and  C_25
REMARK                            x       y       z     vdW  Elec       q    Type
REMARK                         _______ _______ _______ _____ _____    ______ ____
ROOT
ATOM      1  C   UNL     1       4.960   0.163  -0.046  0.00  0.00    +0.070 C 
ATOM      2  C   UNL     1       5.815  -0.281  -1.234  0.00  0.00    +0.030 C 
ATOM      3  C   UNL     1       5.038  -0.255  -2.529  0.00  0.00    +0.009 C 
ATOM      4  C   UNL     1       5.319   1.010  -3.337  0.00  0.00    +0.005 C 
ATOM      5  C   UNL     1       6.823   1.068  -3.636  0.00  0.00    +0.027 C 
ATOM      6  C   UNL     1       7.552   1.134  -2.319  0.00  0.00    -0.022 C 
ATOM      7  C   UNL     1       7.059   0.557  -1.258  0.00  0.00    -0.029 C 
ATOM      8  C   UNL     1       7.758   0.762   0.038  0.00  0.00    +0.074 C 
ATOM      9  C   UNL     1       7.117   0.456   1.194  0.00  0.00    +0.054 C 
ATOM     10  C   UNL     1       5.728  -0.106   1.249  0.00  0.00    +0.188 C 
ENDROOT
BRANCH   1  20
ATOM     11  C   UNL     1       0.026   1.294   0.711  0.00  0.00    +0.001 A 
ATOM     12  C   UNL     1       1.212   2.027   0.708  0.00  0.00    +0.001 A 
ATOM     13  C   UNL     1       2.408   1.425   0.466  0.00  0.00    +0.009 A 
ATOM     14  C   UNL     1       2.452   0.042   0.216  0.00  0.00    -0.011 A 
ATOM     15  C   UNL     1       1.247  -0.704   0.220  0.00  0.00    -0.017 A 
ATOM     16  C   UNL     1       0.031  -0.046   0.474  0.00  0.00    +0.008 A 
ATOM     17  C   UNL     1       1.289  -2.087  -0.029  0.00  0.00    +0.012 A 
ATOM     18  C   UNL     1       2.483  -2.692  -0.270  0.00  0.00    +0.046 A 
ATOM     19  C   UNL     1       3.673  -1.958  -0.274  0.00  0.00    +0.121 A 
ATOM     20  C   UNL     1       3.668  -0.613  -0.037  0.00  0.00    +0.008 A 
BRANCH  19  21
ATOM     21  O   UNL     1       4.850  -2.592  -0.518  0.00  0.00    -0.506 OA
ATOM     22  H   UNL     1       5.094  -2.623  -1.454  0.00  0.00    +0.292 HD
ENDBRANCH  19  21
ENDBRANCH   1  20
BRANCH   9  23
ATOM     23  N   UNL     1       7.772   0.674   2.373  0.00  0.00    -0.358 N 
ATOM     24  H   UNL     1       8.671   1.038   2.369  0.00  0.00    +0.142 HD
ATOM     25  H   UNL     1       7.338   0.464   3.215  0.00  0.00    +0.142 HD
ENDBRANCH   9  23
BRANCH  10  26
ATOM     26  C   UNL     1       5.808  -1.560   1.466  0.00  0.00    +0.091 C 
ATOM     27  N   UNL     1       5.870  -2.682   1.634  0.00  0.00    -0.194 NA
ENDBRANCH  10  26
BRANCH  10  28
ATOM     28  C   UNL     1       5.003   0.507   2.373  0.00  0.00    +0.091 C 
ATOM     29  N   UNL     1       4.443   0.980   3.241  0.00  0.00    -0.194 NA
ENDBRANCH  10  28
BRANCH   8  30
ATOM     30  C   UNL     1       9.094   1.276   0.066  0.00  0.00    +0.101 C 
ATOM     31  N   UNL     1      10.154   1.683   0.088  0.00  0.00    -0.191 NA
ENDBRANCH   8  30
TORSDOF 6
