REMARK  Name = ZINC28871983
REMARK  11 active torsions:
REMARK  status: ('A' for Active; 'I' for Inactive)
REMARK    1  A    between atoms: C_1  and  C_2
REMARK    2  A    between atoms: C_2  and  C_3
REMARK    3  A    between atoms: C_6  and  N_9
REMARK    4  A    between atoms: C_11  and  C_16
REMARK    5  A    between atoms: C_16  and  O_18
REMARK    6  A    between atoms: O_18  and  C_19
REMARK    7  A    between atoms: C_19  and  C_20
REMARK    8  A    between atoms: C_22  and  O_23
REMARK    9  A    between atoms: C_32  and  O_34
REMARK   10  A    between atoms: O_34  and  C_35
REMARK   11  A    between atoms: C_35  and  C_36
REMARK                            x       y       z     vdW  Elec       q    Type
REMARK                         _______ _______ _______ _____ _____    ______ ____
ROOT
ATOM      1  C   UNL     1      -5.897  -1.199   0.373  0.00  0.00    +0.007 A 
ATOM      2  C   UNL     1      -7.083  -0.536   0.385  0.00  0.00    +0.095 A 
ATOM      3  C   UNL     1      -7.100   0.871   0.299  0.00  0.00    +0.285 A 
ATOM      4  O   UNL     1      -5.968   1.586   0.204  0.00  0.00    -0.425 OA
ATOM      5  C   UNL     1      -4.757   0.989   0.187  0.00  0.00    +0.141 A 
ATOM      6  C   UNL     1      -4.666  -0.414   0.270  0.00  0.00    +0.024 A 
ATOM      7  C   UNL     1      -3.413  -1.038   0.253  0.00  0.00    +0.014 A 
ATOM      8  C   UNL     1      -2.281  -0.282   0.156  0.00  0.00    +0.024 A 
ATOM      9  C   UNL     1      -2.364   1.107   0.074  0.00  0.00    +0.040 A 
ATOM     10  C   UNL     1      -3.597   1.742   0.095  0.00  0.00    +0.070 A 
ATOM     11  N   UNL     1      -1.197   1.866  -0.025  0.00  0.00    -0.251 N 
ATOM     12  C   UNL     1      -1.124   3.071   0.573  0.00  0.00    +0.405 C 
ATOM     13  O   UNL     1      -2.100   3.533   1.131  0.00  0.00    -0.226 OA
ATOM     14  H   UNL     1      -0.336   1.480  -0.592  0.00  0.00    +0.158 HD
ENDROOT
BRANCH   3  15
ATOM     15  O   UNL     1      -8.170   1.453   0.311  0.00  0.00    -0.480 OA
ATOM     16  H   UNL     1      -8.199   2.551   0.245  0.00  0.00    +0.295 HD
ENDBRANCH   3  15
BRANCH   1  17
ATOM     17  C   UNL     1      -5.851  -2.703   0.464  0.00  0.00    +0.268 C 
BRANCH  17  18
ATOM     18  O   UNL     1      -7.203  -3.224   0.556  0.00  0.00    -0.460 OA
BRANCH  18  19
ATOM     19  C   UNL     1      -7.338  -4.557   0.644  0.00  0.00    +0.313 C 
ATOM     20  O   UNL     1      -6.358  -5.264   0.644  0.00  0.00    -0.250 OA
BRANCH  19  23
ATOM     21  N   UNL     1      -9.714  -7.062   1.823  0.00  0.00    -0.271 N 
ATOM     22  C   UNL     1      -8.620  -6.704   0.912  0.00  0.00    +0.128 C 
ATOM     23  C   UNL     1      -8.710  -5.171   0.744  0.00  0.00    +0.124 C 
ATOM     24  C   UNL     1      -9.411  -4.749   2.056  0.00  0.00    +0.112 C 
ATOM     25  C   UNL     1     -10.173  -5.985   2.482  0.00  0.00    +0.221 C 
ATOM     26  O   UNL     1     -11.069  -6.000   3.300  0.00  0.00    -0.275 OA
BRANCH  21  30
ATOM     27  C   UNL     1     -11.202 -10.924   2.303  0.00  0.00    -0.048 A 
ATOM     28  C   UNL     1     -10.094 -10.706   1.506  0.00  0.00    +0.005 A 
ATOM     29  C   UNL     1      -9.598  -9.427   1.345  0.00  0.00    +0.024 A 
ATOM     30  C   UNL     1     -10.213  -8.359   1.984  0.00  0.00    +0.036 A 
ATOM     31  C   UNL     1     -11.323  -8.582   2.789  0.00  0.00    +0.024 A 
ATOM     32  C   UNL     1     -11.817  -9.863   2.942  0.00  0.00    +0.005 A 
BRANCH  27  34
ATOM     33  C   UNL     1     -11.063 -12.982   3.678  0.00  0.00    +0.009 C 
ATOM     34  C   UNL     1     -11.740 -12.320   2.477  0.00  0.00    +0.032 C 
ENDBRANCH  27  34
ENDBRANCH  21  30
ENDBRANCH  19  23
ENDBRANCH  18  19
ENDBRANCH  17  18
ENDBRANCH   1  17
BRANCH  12  35
ATOM     35  O   UNL     1       0.032   3.762   0.558  0.00  0.00    -0.450 OA
BRANCH  35  36
ATOM     36  C   UNL     1       0.039   5.050   1.227  0.00  0.00    +0.230 C 
ATOM     37  C   UNL     1       1.428   5.681   1.105  0.00  0.00    +0.048 C 
ENDBRANCH  35  36
ENDBRANCH  12  35
TORSDOF 9
