REMARK  Name = ZINC45317244
REMARK  7 active torsions:
REMARK  status: ('A' for Active; 'I' for Inactive)
REMARK    1  A    between atoms: C_5  and  C_7
REMARK    2  A    between atoms: C_9  and  C_12
REMARK    3  A    between atoms: C_18  and  C_20
REMARK    4  A    between atoms: C_20  and  C_21
REMARK    5  A    between atoms: C_21  and  C_23
REMARK    6  A    between atoms: C_21  and  N_33
REMARK    7  A    between atoms: C_23  and  C_24
REMARK                            x       y       z     vdW  Elec       q    Type
REMARK                         _______ _______ _______ _____ _____    ______ ____
ROOT
ATOM      1  C   UNL     1       3.026  -5.322  -0.051  0.00  0.00    +0.165 C 
ATOM      2  C   UNL     1       3.035  -5.984  -1.445  0.00  0.00    +0.034 C 
ATOM      3  C   UNL     1       3.158  -7.495  -1.111  0.00  0.00    +0.021 C 
ATOM      4  C   UNL     1       2.318  -7.595   0.186  0.00  0.00    +0.108 C 
ATOM      5  N   UNL     1       2.599  -6.343   0.917  0.00  0.00    -0.290 N 
ATOM      6  C   UNL     1       2.485  -6.164   2.248  0.00  0.00    +0.215 C 
ATOM      7  O   UNL     1       2.745  -5.085   2.740  0.00  0.00    -0.276 OA
ENDROOT
BRANCH   1  10
ATOM      8  C   UNL     1       1.265  -2.148  -0.023  0.00  0.00    +0.220 A 
ATOM      9  N   UNL     1       2.377  -2.905  -0.033  0.00  0.00    -0.188 NA
ATOM     10  C   UNL     1       2.057  -4.168  -0.039  0.00  0.00    +0.248 A 
ATOM     11  O   UNL     1       0.721  -4.267  -0.033  0.00  0.00    -0.336 OA
ATOM     12  N   UNL     1       0.221  -2.938  -0.017  0.00  0.00    -0.054 NA
BRANCH   8  17
ATOM     13  C   UNL     1      -0.017   1.381   0.010  0.00  0.00    +0.004 A 
ATOM     14  C   UNL     1       1.193   2.059   0.002  0.00  0.00    +0.020 A 
ATOM     15  C   UNL     1       2.374   1.339  -0.013  0.00  0.00    +0.111 A 
ATOM     16  N   UNL     1       2.363   0.022  -0.021  0.00  0.00    -0.252 NA
ATOM     17  C   UNL     1       1.228  -0.664  -0.014  0.00  0.00    +0.111 A 
ATOM     18  C   UNL     1       0.002  -0.004   0.002  0.00  0.00    +0.031 A 
ENDBRANCH   8  17
ENDBRANCH   1  10
BRANCH   6  19
ATOM     19  C   UNL     1       2.035  -7.303   3.126  0.00  0.00    +0.080 C 
BRANCH  19  20
ATOM     20  C   UNL     1       1.991  -6.837   4.583  0.00  0.00    -0.062 C 
BRANCH  20  21
ATOM     21  N   UNL     1       3.350  -6.512   5.035  0.00  0.00    +0.381 N 
ATOM     22  H   UNL     1       3.934  -7.332   4.961  0.00  0.00    -0.090 HD
ATOM     23  H   UNL     1       3.729  -5.776   4.458  0.00  0.00    -0.090 HD
ATOM     24  H   UNL     1       3.321  -6.205   5.996  0.00  0.00    -0.090 HD
ENDBRANCH  20  21
BRANCH  20  25
ATOM     25  C   UNL     1       1.416  -7.954   5.458  0.00  0.00    +0.022 C 
BRANCH  25  26
ATOM     26  C   UNL     1       1.258  -7.453   6.870  0.00  0.00    -0.011 A 
ATOM     27  C   UNL     1       2.255  -7.682   7.800  0.00  0.00    +0.047 A 
ATOM     28  C   UNL     1       2.110  -7.223   9.097  0.00  0.00    +0.159 A 
ATOM     29  C   UNL     1       0.964  -6.534   9.465  0.00  0.00    +0.161 A 
ATOM     30  C   UNL     1      -0.033  -6.306   8.534  0.00  0.00    +0.080 A 
ATOM     31  C   UNL     1       0.116  -6.761   7.235  0.00  0.00    +0.129 A 
ATOM     32  F   UNL     1      -0.856  -6.533   6.324  0.00  0.00    -0.205 F 
ATOM     33  F   UNL     1       0.822  -6.086  10.732  0.00  0.00    -0.202 F 
ATOM     34  F   UNL     1       3.085  -7.447  10.006  0.00  0.00    -0.202 F 
ENDBRANCH  25  26
ENDBRANCH  20  25
ENDBRANCH  19  20
ENDBRANCH   6  19
TORSDOF 7
