REMARK  Name = ZINC18406049
REMARK  7 active torsions:
REMARK  status: ('A' for Active; 'I' for Inactive)
REMARK    1  A    between atoms: C_1  and  C_2
REMARK    2  A    between atoms: C_2  and  C_4
REMARK    3  A    between atoms: C_2  and  O_15
REMARK    4  A    between atoms: N_6  and  C_7
REMARK    5  A    between atoms: O_15  and  C_16
REMARK    6  A    between atoms: C_16  and  C_18
REMARK    7  A    between atoms: C_23  and  N_24
REMARK                            x       y       z     vdW  Elec       q    Type
REMARK                         _______ _______ _______ _____ _____    ______ ____
ROOT
ATOM      1  C   UNL     1       7.545  -2.407  -0.480  0.00  0.00    +0.062 C 
ATOM      2  C   UNL     1       7.143  -1.857  -1.850  0.00  0.00    +0.259 C 
ENDROOT
BRANCH   2   3
ATOM      3  C   UNL     1       7.390  -2.905  -2.904  0.00  0.00    +0.258 C 
ATOM      4  O   UNL     1       6.469  -3.315  -3.578  0.00  0.00    -0.271 OA
ATOM      5  N   UNL     1       8.634  -3.386  -3.099  0.00  0.00    -0.280 N 
ATOM      6  H   UNL     1       9.355  -3.118  -2.508  0.00  0.00    +0.155 HD
BRANCH   5   7
ATOM      7  C   UNL     1       8.885  -4.273  -4.153  0.00  0.00    +0.069 A 
ATOM      8  C   UNL     1       7.997  -4.359  -5.216  0.00  0.00    +0.027 A 
ATOM      9  C   UNL     1       8.246  -5.235  -6.255  0.00  0.00    +0.017 A 
ATOM     10  C   UNL     1       9.381  -6.027  -6.237  0.00  0.00    +0.021 A 
ATOM     11  C   UNL     1      10.269  -5.945  -5.179  0.00  0.00    +0.055 A 
ATOM     12  C   UNL     1      10.027  -5.066  -4.139  0.00  0.00    +0.146 A 
ATOM     13  F   UNL     1      10.897  -4.981  -3.109  0.00  0.00    -0.204 F 
ATOM     14 BR   UNL     1       9.717  -7.225  -7.661  0.00  0.00    -0.050 Br
ENDBRANCH   5   7
ENDBRANCH   2   3
BRANCH   2  15
ATOM     15  O   UNL     1       5.734  -1.505  -1.837  0.00  0.00    -0.449 OA
BRANCH  15  16
ATOM     16  C   UNL     1       5.421  -0.248  -1.468  0.00  0.00    +0.342 C 
ATOM     17  O   UNL     1       6.301   0.534  -1.165  0.00  0.00    -0.245 OA
BRANCH  16  18
ATOM     18  C   UNL     1       4.012   0.179  -1.431  0.00  0.00    +0.081 A 
ATOM     19  C   UNL     1       3.007  -0.670  -1.902  0.00  0.00    +0.017 A 
ATOM     20  C   UNL     1       1.691  -0.265  -1.866  0.00  0.00    +0.002 A 
ATOM     21  C   UNL     1       1.355   0.983  -1.364  0.00  0.00    +0.022 A 
ATOM     22  C   UNL     1       2.336   1.834  -0.894  0.00  0.00    +0.062 A 
ATOM     23  C   UNL     1       3.670   1.442  -0.923  0.00  0.00    +0.057 A 
ATOM     24 CL   UNL     1       1.902   3.394  -0.268  0.00  0.00    -0.082 Cl
BRANCH  23  25
ATOM     25  N   UNL     1       4.658   2.297  -0.451  0.00  0.00    -0.356 N 
ATOM     26  H   UNL     1       5.502   1.935  -0.138  0.00  0.00    +0.142 HD
ATOM     27  H   UNL     1       4.504   3.254  -0.435  0.00  0.00    +0.142 HD
ENDBRANCH  23  25
ENDBRANCH  16  18
ENDBRANCH  15  16
ENDBRANCH   2  15
TORSDOF 6
