REMARK  Name = ZINC25253814
REMARK  9 active torsions:
REMARK  status: ('A' for Active; 'I' for Inactive)
REMARK    1  A    between atoms: C_1  and  N_2
REMARK    2  A    between atoms: N_2  and  C_3
REMARK    3  A    between atoms: N_2  and  C_15
REMARK    4  A    between atoms: C_3  and  C_4
REMARK    5  A    between atoms: C_9  and  O_10
REMARK    6  A    between atoms: O_10  and  C_11
REMARK    7  A    between atoms: C_15  and  C_16
REMARK    8  A    between atoms: C_25  and  S_27
REMARK    9  A    between atoms: S_27  and  N_30
REMARK                            x       y       z     vdW  Elec       q    Type
REMARK                         _______ _______ _______ _____ _____    ______ ____
ROOT
ATOM      1  C   UNL     1       2.773   5.000   0.003  0.00  0.00    +0.203 C 
ATOM      2  O   UNL     1       1.888   5.829   0.016  0.00  0.00    -0.277 OA
ATOM      3  N   UNL     1       2.467   3.688  -0.001  0.00  0.00    -0.272 N 
ATOM      4  C   UNL     1       3.446   2.597  -0.016  0.00  0.00    +0.118 C 
ATOM      5  C   UNL     1       2.611   1.306  -0.015  0.00  0.00    +0.056 C 
ATOM      6  C   UNL     1       1.175   1.781   0.000  0.00  0.00    -0.023 A 
ATOM      7  C   UNL     1       1.169   3.167   0.008  0.00  0.00    +0.040 A 
ATOM      8  C   UNL     1      -0.053   3.840   0.023  0.00  0.00    +0.026 A 
ATOM      9  C   UNL     1      -1.236   3.132   0.031  0.00  0.00    +0.030 A 
ATOM     10  C   UNL     1      -1.220   1.749   0.017  0.00  0.00    +0.105 A 
ATOM     11  C   UNL     1      -0.013   1.076   0.008  0.00  0.00    +0.034 A 
ENDROOT
BRANCH  10  12
ATOM     12  S   UNL     1      -2.734   0.848   0.019  0.00  0.00    +0.056 S 
ATOM     13  O   UNL     1      -3.723   1.713  -0.522  0.00  0.00    -0.153 OA
ATOM     14  O   UNL     1      -2.449  -0.427  -0.540  0.00  0.00    -0.153 OA
BRANCH  12  15
ATOM     15  N   UNL     1      -3.148   0.588   1.601  0.00  0.00    -0.204 NA
ATOM     16  H   UNL     1      -4.092   0.026   1.646  0.00  0.00    +0.144 HD
ATOM     17  H   UNL     1      -3.272   1.555   2.111  0.00  0.00    +0.144 HD
ENDBRANCH  12  15
ENDBRANCH  10  12
BRANCH   1  18
ATOM     18  C   UNL     1       4.216   5.437  -0.008  0.00  0.00    +0.019 C 
BRANCH  18  20
ATOM     19  C   UNL     1       3.762   7.449   1.262  0.00  0.00    -0.095 C 
ATOM     20  N   UNL     1       4.282   6.905   0.000  0.00  0.00    +0.386 N 
ATOM     21  H   UNL     1       3.646   7.277  -0.816  0.00  0.00    -0.081 HD
BRANCH  20  22
ATOM     22  C   UNL     1       5.653   7.371  -0.248  0.00  0.00    -0.039 C 
BRANCH  22  23
ATOM     23  C   UNL     1       5.644   8.860  -0.477  0.00  0.00    -0.022 A 
ATOM     24  C   UNL     1       5.703   9.363  -1.763  0.00  0.00    +0.005 A 
ATOM     25  C   UNL     1       5.689  10.729  -1.973  0.00  0.00    +0.000 A 
ATOM     26  C   UNL     1       5.627  11.596  -0.898  0.00  0.00    +0.004 A 
ATOM     27  C   UNL     1       5.574  11.099   0.390  0.00  0.00    +0.046 A 
ATOM     28  C   UNL     1       5.582   9.728   0.604  0.00  0.00    +0.131 A 
BRANCH  28  29
ATOM     29  O   UNL     1       5.529   9.236   1.869  0.00  0.00    -0.406 OA
BRANCH  29  30
ATOM     30  C   UNL     1       5.467  10.189   2.933  0.00  0.00    +0.575 C 
ATOM     31  F   UNL     1       4.319  10.976   2.788  0.00  0.00    -0.133 F 
ATOM     32  F   UNL     1       5.419   9.516   4.159  0.00  0.00    -0.133 F 
ATOM     33  F   UNL     1       6.601  11.007   2.894  0.00  0.00    -0.133 F 
ENDBRANCH  29  30
ENDBRANCH  28  29
ENDBRANCH  22  23
ENDBRANCH  20  22
ENDBRANCH  18  20
ENDBRANCH   1  18
TORSDOF 8
