REMARK  Name = ZINC34792090
REMARK  7 active torsions:
REMARK  status: ('A' for Active; 'I' for Inactive)
REMARK    1  A    between atoms: C_1  and  N_2
REMARK    2  A    between atoms: C_5  and  C_10
REMARK    3  A    between atoms: N_19  and  C_21
REMARK    4  A    between atoms: C_21  and  C_22
REMARK    5  A    between atoms: N_24  and  C_25
REMARK    6  A    between atoms: C_25  and  C_26
REMARK    7  A    between atoms: C_31  and  C_32
REMARK                            x       y       z     vdW  Elec       q    Type
REMARK                         _______ _______ _______ _____ _____    ______ ____
ROOT
ATOM      1  C   UNL     1       0.563  -0.176   0.400  0.00  0.00    +0.139 C 
ATOM      2  N   UNL     1       0.315  -1.616   0.510  0.00  0.00    -0.260 N 
ATOM      3  C   UNL     1      -0.980  -2.052   0.488  0.00  0.00    +0.042 C 
ATOM      4  C   UNL     1      -1.277  -3.364   0.584  0.00  0.00    +0.058 C 
ATOM      5  C   UNL     1      -0.126  -4.339   0.718  0.00  0.00    +0.142 C 
ATOM      6  N   UNL     1       1.232  -3.770   0.732  0.00  0.00    -0.288 N 
ATOM      7  C   UNL     1       1.370  -2.434   0.621  0.00  0.00    +0.307 C 
ATOM      8  O   UNL     1       2.487  -1.955   0.628  0.00  0.00    -0.252 OA
ATOM      9  C   UNL     1      -2.673  -3.554   0.537  0.00  0.00    +0.247 C 
ATOM     10  O   UNL     1      -3.222  -4.639   0.604  0.00  0.00    -0.270 OA
ATOM     11  N   UNL     1      -3.320  -2.381   0.410  0.00  0.00    -0.283 N 
ATOM     12  C   UNL     1      -2.300  -1.324   0.367  0.00  0.00    +0.160 C 
ATOM     13  H   UNL     1       2.010  -4.343   0.816  0.00  0.00    +0.151 HD
ENDROOT
BRANCH   5  14
ATOM     14  C   UNL     1      -0.208  -5.315  -0.427  0.00  0.00    -0.022 A 
ATOM     15  C   UNL     1       0.268  -4.957  -1.675  0.00  0.00    +0.008 A 
ATOM     16  C   UNL     1       0.194  -5.852  -2.726  0.00  0.00    +0.038 A 
ATOM     17  C   UNL     1      -0.358  -7.106  -2.529  0.00  0.00    +0.123 A 
ATOM     18  C   UNL     1      -0.834  -7.464  -1.278  0.00  0.00    +0.038 A 
ATOM     19  C   UNL     1      -0.753  -6.570  -0.228  0.00  0.00    +0.008 A 
ATOM     20  F   UNL     1      -0.431  -7.981  -3.555  0.00  0.00    -0.205 F 
ENDBRANCH   5  14
BRANCH  11  21
ATOM     21  C   UNL     1      -4.771  -2.193   0.328  0.00  0.00    +0.204 C 
BRANCH  21  22
ATOM     22  C   UNL     1      -5.332  -2.010   1.715  0.00  0.00    +0.231 C 
ATOM     23  O   UNL     1      -4.593  -2.034   2.676  0.00  0.00    -0.274 OA
ATOM     24  N   UNL     1      -6.655  -1.819   1.886  0.00  0.00    -0.310 N 
ATOM     25  H   UNL     1      -7.246  -1.800   1.117  0.00  0.00    +0.149 HD
BRANCH  24  26
ATOM     26  C   UNL     1      -7.201  -1.641   3.234  0.00  0.00    +0.140 C 
BRANCH  26  27
ATOM     27  C   UNL     1      -8.705  -1.583   3.163  0.00  0.00    -0.023 A 
ATOM     28  C   UNL     1      -9.358  -0.375   3.306  0.00  0.00    +0.006 A 
ATOM     29  C   UNL     1     -10.738  -0.320   3.241  0.00  0.00    +0.000 A 
ATOM     30  C   UNL     1     -11.473  -1.473   3.032  0.00  0.00    +0.001 A 
ATOM     31  C   UNL     1     -10.831  -2.686   2.887  0.00  0.00    +0.009 A 
ATOM     32  C   UNL     1      -9.440  -2.747   2.946  0.00  0.00    -0.013 A 
BRANCH  32  33
ATOM     33  C   UNL     1      -8.743  -4.047   2.786  0.00  0.00    -0.018 A 
ATOM     34  C   UNL     1      -8.949  -4.814   1.641  0.00  0.00    +0.008 A 
ATOM     35  C   UNL     1      -8.299  -6.023   1.496  0.00  0.00    +0.001 A 
ATOM     36  C   UNL     1      -7.444  -6.473   2.486  0.00  0.00    +0.000 A 
ATOM     37  C   UNL     1      -7.236  -5.716   3.625  0.00  0.00    +0.001 A 
ATOM     38  C   UNL     1      -7.877  -4.503   3.777  0.00  0.00    +0.008 A 
ENDBRANCH  32  33
ENDBRANCH  26  27
ENDBRANCH  24  26
ENDBRANCH  21  22
ENDBRANCH  11  21
TORSDOF 6
