REMARK  Name = ZINC05663709
REMARK  11 active torsions:
REMARK  status: ('A' for Active; 'I' for Inactive)
REMARK    1  A    between atoms: C_1  and  C_2
REMARK    2  A    between atoms: C_2  and  N_63
REMARK    3  A    between atoms: C_3  and  C_4
REMARK    4  A    between atoms: C_3  and  N_63
REMARK    5  A    between atoms: C_5  and  C_6
REMARK    6  A    between atoms: C_5  and  N_63
REMARK    7  A    between atoms: C_6  and  C_7
REMARK    8  A    between atoms: C_7  and  C_8
REMARK    9  A    between atoms: C_8  and  C_10
REMARK   10  A    between atoms: C_8  and  N_65
REMARK   11  A    between atoms: C_11  and  N_65
REMARK                            x       y       z     vdW  Elec       q    Type
REMARK                         _______ _______ _______ _____ _____    ______ ____
ROOT
ATOM      1  C   UNL     1      -1.022  -3.308  -5.406  0.00  0.00    -0.040 C 
ATOM      2  C   UNL     1      -0.589  -1.846  -5.491  0.00  0.00    -0.011 C 
ATOM      3  C   UNL     1      -0.341  -1.500  -6.964  0.00  0.00    +0.003 C 
ATOM      4  C   UNL     1      -1.687  -1.478  -7.685  0.00  0.00    +0.035 C 
ATOM      5  C   UNL     1      -2.457  -2.744  -7.413  0.00  0.00    -0.045 A 
ATOM      6  C   UNL     1      -2.155  -3.582  -6.361  0.00  0.00    -0.057 A 
ATOM      7  C   UNL     1      -2.908  -4.732  -6.149  0.00  0.00    +0.014 A 
ATOM      8  C   UNL     1      -3.964  -5.050  -6.993  0.00  0.00    +0.033 A 
ATOM      9  C   UNL     1      -4.269  -4.197  -8.069  0.00  0.00    +0.033 A 
ATOM     10  C   UNL     1      -3.511  -3.051  -8.268  0.00  0.00    +0.016 A 
ATOM     11  C   UNL     1      -5.390  -4.523  -8.976  0.00  0.00    +0.195 C 
ATOM     12  O   UNL     1      -5.654  -3.786  -9.905  0.00  0.00    -0.287 OA
ATOM     13  C   UNL     1      -6.188  -5.747  -8.752  0.00  0.00    +0.033 A 
ATOM     14  C   UNL     1      -7.245  -6.061  -9.601  0.00  0.00    +0.012 A 
ATOM     15  C   UNL     1      -7.987  -7.209  -9.384  0.00  0.00    +0.001 A 
ATOM     16  C   UNL     1      -7.686  -8.048  -8.327  0.00  0.00    +0.001 A 
ATOM     17  C   UNL     1      -6.638  -7.750  -7.472  0.00  0.00    +0.012 A 
ATOM     18  C   UNL     1      -5.882  -6.600  -7.676  0.00  0.00    +0.033 A 
ATOM     19  C   UNL     1      -4.763  -6.273  -6.768  0.00  0.00    +0.195 C 
ATOM     20  O   UNL     1      -4.499  -7.009  -5.838  0.00  0.00    -0.287 OA
ENDROOT
BRANCH   1  21
ATOM     21  N   UNL     1      -1.470  -3.605  -4.033  0.00  0.00    +0.385 N 
ATOM     22  H   UNL     1      -1.946  -2.781  -3.647  0.00  0.00    -0.085 HD
ATOM     23  H   UNL     1      -2.121  -4.399  -4.053  0.00  0.00    -0.085 HD
BRANCH  21  24
ATOM     24  C   UNL     1      -0.316  -3.944  -3.179  0.00  0.00    -0.074 C 
ATOM     25  C   UNL     1       0.009  -5.432  -3.327  0.00  0.00    -0.014 C 
BRANCH  24  26
ATOM     26  C   UNL     1      -0.664  -3.641  -1.720  0.00  0.00    -0.018 C 
BRANCH  26  27
ATOM     27  C   UNL     1      -0.867  -2.134  -1.547  0.00  0.00    -0.020 C 
BRANCH  27  28
ATOM     28  C   UNL     1      -1.215  -1.831  -0.088  0.00  0.00    -0.079 C 
BRANCH  28  29
ATOM     29  N   UNL     1      -1.429  -0.376   0.058  0.00  0.00    +0.379 N 
ATOM     30  H   UNL     1      -2.102  -0.064  -0.652  0.00  0.00    -0.082 HD
BRANCH  29  32
ATOM     31  C   UNL     1      -0.456   1.829  -0.355  0.00  0.00    -0.017 C 
ATOM     32  C   UNL     1      -0.154   0.345  -0.141  0.00  0.00    -0.082 C 
ENDBRANCH  29  32
BRANCH  29  33
ATOM     33  C   UNL     1      -1.974  -0.078   1.399  0.00  0.00    -0.082 C 
ATOM     34  C   UNL     1      -3.438  -0.520   1.444  0.00  0.00    -0.017 C 
ENDBRANCH  29  33
ENDBRANCH  28  29
ENDBRANCH  27  28
ENDBRANCH  26  27
ENDBRANCH  24  26
ENDBRANCH  21  24
ENDBRANCH   1  21
TORSDOF 8
