REMARK  Name = ZINC36883295
REMARK  3 active torsions:
REMARK  status: ('A' for Active; 'I' for Inactive)
REMARK    1  A    between atoms: C_8  and  C_23
REMARK    2  A    between atoms: N_10  and  S_12
REMARK    3  A    between atoms: S_12  and  C_15
REMARK                            x       y       z     vdW  Elec       q    Type
REMARK                         _______ _______ _______ _____ _____    ______ ____
ROOT
ATOM      1  C   UNL     1      -0.338   0.486   1.966  0.00  0.00    +0.000 A 
ATOM      2  C   UNL     1       0.660   1.419   1.750  0.00  0.00    +0.000 A 
ATOM      3  C   UNL     1       1.826   1.040   1.117  0.00  0.00    +0.005 A 
ATOM      4  C   UNL     1       2.003  -0.270   0.693  0.00  0.00    -0.028 A 
ATOM      5  C   UNL     1       1.007  -1.198   0.898  0.00  0.00    -0.041 A 
ATOM      6  C   UNL     1      -0.163  -0.815   1.542  0.00  0.00    +0.004 A 
ATOM      7  C   UNL     1       1.115  -2.628   0.439  0.00  0.00    +0.065 C 
ATOM      8  C   UNL     1       2.574  -3.016   0.205  0.00  0.00    +0.170 C 
ATOM      9  N   UNL     1       3.204  -1.950  -0.592  0.00  0.00    -0.160 NA
ATOM     10  C   UNL     1       3.307  -0.622   0.021  0.00  0.00    +0.145 C 
ENDROOT
BRANCH   8  11
ATOM     11  C   UNL     1       2.641  -4.322  -0.544  0.00  0.00    +0.230 C 
ATOM     12  O   UNL     1       1.676  -4.714  -1.165  0.00  0.00    -0.274 OA
ATOM     13  N   UNL     1       3.773  -5.053  -0.523  0.00  0.00    -0.328 N 
ATOM     14  H   UNL     1       4.544  -4.739  -0.026  0.00  0.00    +0.145 HD
ATOM     15  H   UNL     1       3.816  -5.894  -1.005  0.00  0.00    +0.145 HD
ENDBRANCH   8  11
BRANCH   9  16
ATOM     16  S   UNL     1       3.774  -2.240  -2.120  0.00  0.00    +0.063 S 
ATOM     17  O   UNL     1       2.943  -3.249  -2.678  0.00  0.00    -0.153 OA
ATOM     18  O   UNL     1       3.950  -0.972  -2.735  0.00  0.00    -0.153 OA
BRANCH  16  19
ATOM     19  C   UNL     1       5.379  -2.946  -1.952  0.00  0.00    +0.125 A 
ATOM     20  C   UNL     1       5.611  -4.244  -2.368  0.00  0.00    +0.050 A 
ATOM     21  C   UNL     1       6.871  -4.798  -2.236  0.00  0.00    +0.043 A 
ATOM     22  C   UNL     1       7.901  -4.054  -1.687  0.00  0.00    +0.021 A 
ATOM     23  C   UNL     1       7.669  -2.757  -1.271  0.00  0.00    +0.023 A 
ATOM     24  C   UNL     1       6.410  -2.200  -1.408  0.00  0.00    +0.067 A 
ATOM     25 CL   UNL     1       6.121  -0.568  -0.892  0.00  0.00    -0.082 Cl
ATOM     26 CL   UNL     1       7.162  -6.428  -2.758  0.00  0.00    -0.083 Cl
ENDBRANCH  16  19
ENDBRANCH   9  16
TORSDOF 3
