REMARK  Name = ZINC12493422
REMARK  6 active torsions:
REMARK  status: ('A' for Active; 'I' for Inactive)
REMARK    1  A    between atoms: C_6  and  C_7
REMARK    2  A    between atoms: C_7  and  N_8
REMARK    3  A    between atoms: C_10  and  N_25
REMARK    4  A    between atoms: C_11  and  N_24
REMARK    5  A    between atoms: N_15  and  C_16
REMARK    6  A    between atoms: C_16  and  C_17
REMARK                            x       y       z     vdW  Elec       q    Type
REMARK                         _______ _______ _______ _____ _____    ______ ____
ROOT
ATOM      1  N   UNL     1       1.222  -2.666  -1.406  0.00  0.00    -0.323 N 
ATOM      2  C   UNL     1       1.237  -4.028  -1.667  0.00  0.00    +0.157 A 
ATOM      3  C   UNL     1       1.231  -4.494  -2.978  0.00  0.00    +0.205 A 
ATOM      4  C   UNL     1       1.248  -5.869  -3.192  0.00  0.00    +0.154 A 
ATOM      5  N   UNL     1       1.268  -6.688  -2.143  0.00  0.00    -0.197 NA
ATOM      6  C   UNL     1       1.274  -6.208  -0.909  0.00  0.00    +0.219 A 
ATOM      7  N   UNL     1       1.263  -4.906  -0.667  0.00  0.00    -0.197 NA
ATOM      8  N   UNL     1       1.296  -7.091   0.157  0.00  0.00    -0.309 N 
ATOM      9  H   UNL     1       1.206  -2.032  -2.139  0.00  0.00    +0.148 HD
ATOM     10  H   UNL     1       1.300  -6.753   1.066  0.00  0.00    +0.149 HD
ENDROOT
BRANCH   4  11
ATOM     11  N   UNL     1       1.243  -6.379  -4.481  0.00  0.00    -0.341 N 
ATOM     12  H   UNL     1       1.228  -5.777  -5.241  0.00  0.00    +0.144 HD
ATOM     13  H   UNL     1       1.254  -7.339  -4.623  0.00  0.00    +0.144 HD
ENDBRANCH   4  11
BRANCH   3  14
ATOM     14  N   UNL     1       1.207  -3.550  -4.118  0.00  0.00    +0.063 N 
ATOM     15  O   UNL     1       2.252  -3.147  -4.598  0.00  0.00    -0.126 OA
ATOM     16  O   UNL     1       0.142  -3.176  -4.577  0.00  0.00    -0.126 OA
ENDBRANCH   3  14
BRANCH   1  17
ATOM     17  C   UNL     1       1.228  -2.186  -0.022  0.00  0.00    +0.138 C 
BRANCH  17  23
ATOM     18  C   UNL     1       0.002  -0.004   0.002  0.00  0.00    +0.006 A 
ATOM     19  C   UNL     1      -0.017   1.378   0.010  0.00  0.00    +0.020 A 
ATOM     20  C   UNL     1       1.172   2.086   0.002  0.00  0.00    +0.041 A 
ATOM     21  C   UNL     1       2.379   1.409  -0.013  0.00  0.00    +0.020 A 
ATOM     22  C   UNL     1       2.397   0.027  -0.021  0.00  0.00    +0.006 A 
ATOM     23  C   UNL     1       1.208  -0.679  -0.013  0.00  0.00    -0.030 A 
ATOM     24 CL   UNL     1       1.149   3.821   0.011  0.00  0.00    -0.084 Cl
ENDBRANCH  17  23
ENDBRANCH   1  17
BRANCH   8  25
ATOM     25  C   UNL     1       1.314  -8.535  -0.088  0.00  0.00    +0.139 C 
BRANCH  25  26
ATOM     26  C   UNL     1       1.337  -9.268   1.228  0.00  0.00    -0.030 A 
ATOM     27  C   UNL     1       2.544  -9.592   1.818  0.00  0.00    +0.006 A 
ATOM     28  C   UNL     1       2.566 -10.259   3.028  0.00  0.00    +0.020 A 
ATOM     29  C   UNL     1       1.378 -10.613   3.644  0.00  0.00    +0.041 A 
ATOM     30  C   UNL     1       0.170 -10.293   3.051  0.00  0.00    +0.020 A 
ATOM     31  C   UNL     1       0.150  -9.620   1.843  0.00  0.00    +0.006 A 
ATOM     32 CL   UNL     1       1.405 -11.456   5.161  0.00  0.00    -0.084 Cl
ENDBRANCH  25  26
ENDBRANCH   8  25
TORSDOF 6
