REMARK  Name = ZINC40399286
REMARK  6 active torsions:
REMARK  status: ('A' for Active; 'I' for Inactive)
REMARK    1  A    between atoms: C_1  and  C_2
REMARK    2  A    between atoms: C_2  and  C_3
REMARK    3  A    between atoms: C_2  and  C_4
REMARK    4  A    between atoms: C_7  and  N_10
REMARK    5  A    between atoms: C_11  and  C_13
REMARK    6  A    between atoms: N_27  and  C_28
REMARK                            x       y       z     vdW  Elec       q    Type
REMARK                         _______ _______ _______ _____ _____    ______ ____
ROOT
ATOM      1  C   UNL     1       2.899  -2.930   6.709  0.00  0.00    +0.122 C 
ATOM      2  C   UNL     1       3.486  -1.808   7.569  0.00  0.00    +0.114 C 
ATOM      3  C   UNL     1       4.113  -2.395   8.806  0.00  0.00    +0.219 C 
ATOM      4  O   UNL     1       5.135  -1.913   9.247  0.00  0.00    -0.275 OA
ATOM      5  N   UNL     1       3.552  -3.447   9.427  0.00  0.00    -0.270 N 
ATOM      6  C   UNL     1       2.447  -4.083   8.890  0.00  0.00    +0.138 A 
ATOM      7  C   UNL     1       2.085  -3.853   7.574  0.00  0.00    +0.069 A 
ATOM      8  C   UNL     1       0.952  -4.491   7.059  0.00  0.00    +0.258 A 
ATOM      9  O   UNL     1       0.600  -4.300   5.906  0.00  0.00    -0.267 OA
ATOM     10  N   UNL     1       0.255  -5.323   7.863  0.00  0.00    -0.295 N 
ATOM     11  H   UNL     1      -0.543  -5.763   7.530  0.00  0.00    +0.172 HD
ATOM     12  C   UNL     1       0.672  -5.543   9.140  0.00  0.00    +0.202 A 
ATOM     13  N   UNL     1       1.737  -4.943   9.629  0.00  0.00    -0.200 NA
ATOM     14  N   UNL     1      -0.033  -6.409   9.935  0.00  0.00    -0.285 N 
ATOM     15  H   UNL     1       3.927  -3.764  10.263  0.00  0.00    +0.156 HD
ATOM     16  H   UNL     1      -0.770  -6.918   9.563  0.00  0.00    +0.155 HD
ENDROOT
BRANCH  14  17
ATOM     17  C   UNL     1       0.311  -6.560  11.283  0.00  0.00    +0.034 A 
ATOM     18  C   UNL     1       0.791  -5.474  12.004  0.00  0.00    +0.025 A 
ATOM     19  C   UNL     1       1.130  -5.625  13.334  0.00  0.00    +0.022 A 
ATOM     20  C   UNL     1       0.992  -6.857  13.948  0.00  0.00    +0.041 A 
ATOM     21  C   UNL     1       0.515  -7.941  13.232  0.00  0.00    +0.022 A 
ATOM     22  C   UNL     1       0.168  -7.794  11.904  0.00  0.00    +0.025 A 
ATOM     23 CL   UNL     1       1.420  -7.044  15.620  0.00  0.00    -0.084 Cl
ENDBRANCH  14  17
BRANCH   1  25
ATOM     24  N   UNL     1       2.234  -2.635   4.345  0.00  0.00    -0.285 N 
ATOM     25  C   UNL     1       2.018  -2.335   5.641  0.00  0.00    +0.225 C 
ATOM     26  O   UNL     1       1.115  -1.586   5.948  0.00  0.00    -0.275 OA
ATOM     27  H   UNL     1       2.907  -3.290   4.105  0.00  0.00    +0.155 HD
BRANCH  24  31
ATOM     28  C   UNL     1       0.009  -0.748   1.371  0.00  0.00    -0.045 A 
ATOM     29  C   UNL     1       0.357  -0.056   2.516  0.00  0.00    +0.006 A 
ATOM     30  C   UNL     1       1.094  -0.678   3.504  0.00  0.00    +0.023 A 
ATOM     31  C   UNL     1       1.486  -2.001   3.346  0.00  0.00    +0.033 A 
ATOM     32  C   UNL     1       1.135  -2.694   2.195  0.00  0.00    +0.023 A 
ATOM     33  C   UNL     1       0.393  -2.067   1.213  0.00  0.00    +0.006 A 
BRANCH  28  35
ATOM     34  C   UNL     1      -2.134   0.398   0.875  0.00  0.00    +0.012 C 
ATOM     35  C   UNL     1      -0.796  -0.065   0.295  0.00  0.00    +0.013 C 
ATOM     36  C   UNL     1      -0.021   1.145  -0.231  0.00  0.00    +0.012 C 
ENDBRANCH  28  35
ENDBRANCH  24  31
ENDBRANCH   1  25
TORSDOF 4
