REMARK  Name = ZINC01407999
REMARK  11 active torsions:
REMARK  status: ('A' for Active; 'I' for Inactive)
REMARK    1  A    between atoms: C_1  and  C_2
REMARK    2  A    between atoms: C_4  and  C_43
REMARK    3  A    between atoms: C_6  and  S_8
REMARK    4  A    between atoms: S_8  and  C_9
REMARK    5  A    between atoms: C_9  and  C_10
REMARK    6  A    between atoms: N_12  and  C_13
REMARK    7  A    between atoms: N_12  and  C_20
REMARK    8  A    between atoms: C_13  and  C_14
REMARK    9  A    between atoms: C_20  and  C_22
REMARK   10  A    between atoms: C_20  and  C_31
REMARK   11  A    between atoms: N_33  and  C_34
REMARK                            x       y       z     vdW  Elec       q    Type
REMARK                         _______ _______ _______ _____ _____    ______ ____
ROOT
ATOM      1  C   UNL     1       5.569   7.537  -0.881  0.00  0.00    +0.193 C 
ENDROOT
BRANCH   1   2
ATOM      2  C   UNL     1       6.132   7.345   0.503  0.00  0.00    -0.014 A 
ATOM      3  C   UNL     1       5.946   6.143   1.162  0.00  0.00    +0.010 A 
ATOM      4  C   UNL     1       6.464   5.960   2.431  0.00  0.00    +0.050 A 
ATOM      5  C   UNL     1       7.163   6.984   3.049  0.00  0.00    +0.166 A 
ATOM      6  C   UNL     1       7.345   8.196   2.388  0.00  0.00    +0.167 A 
ATOM      7  C   UNL     1       6.827   8.371   1.115  0.00  0.00    +0.055 A 
ATOM      8  O   UNL     1       8.056   9.033   3.198  0.00  0.00    -0.453 OA
ATOM      9  C   UNL     1       8.657   8.184   4.194  0.00  0.00    +0.466 C 
ATOM     10  O   UNL     1       7.759   7.062   4.274  0.00  0.00    -0.453 OA
ENDBRANCH   1   2
BRANCH   1  11
ATOM     11  C   UNL     1       6.329   6.676  -1.857  0.00  0.00    +0.242 C 
ATOM     12  O   UNL     1       5.895   5.588  -2.172  0.00  0.00    -0.273 OA
ATOM     13  N   UNL     1       7.491   7.115  -2.379  0.00  0.00    -0.284 N 
ATOM     14  H   UNL     1       7.879   7.948  -2.068  0.00  0.00    +0.155 HD
BRANCH  13  15
ATOM     15  C   UNL     1       8.139   6.368  -3.372  0.00  0.00    +0.037 A 
ATOM     16  C   UNL     1       9.525   6.372  -3.450  0.00  0.00    +0.027 A 
ATOM     17  C   UNL     1      10.166   5.633  -4.426  0.00  0.00    +0.051 A 
ATOM     18  C   UNL     1       9.427   4.893  -5.335  0.00  0.00    +0.166 A 
ATOM     19  C   UNL     1       8.036   4.892  -5.263  0.00  0.00    +0.168 A 
ATOM     20  C   UNL     1       7.395   5.630  -4.282  0.00  0.00    +0.072 A 
ATOM     21  O   UNL     1       7.548   4.096  -6.259  0.00  0.00    -0.453 OA
ATOM     22  C   UNL     1       8.633   3.937  -7.191  0.00  0.00    +0.466 C 
ATOM     23  O   UNL     1       9.810   4.097  -6.377  0.00  0.00    -0.453 OA
ENDBRANCH  13  15
ENDBRANCH   1  11
BRANCH   1  26
ATOM     24  C   UNL     1       3.202   8.101  -1.006  0.00  0.00    +0.227 C 
ATOM     25  O   UNL     1       3.515   9.259  -1.183  0.00  0.00    -0.275 OA
ATOM     26  N   UNL     1       4.155   7.155  -0.891  0.00  0.00    -0.281 N 
BRANCH  24  27
ATOM     27  C   UNL     1       1.747   7.720  -0.912  0.00  0.00    +0.173 C 
BRANCH  27  28
ATOM     28  S   UNL     1       0.720   9.155  -1.317  0.00  0.00    -0.077 S 
BRANCH  28  34
ATOM     29  C   UNL     1      -2.292   5.161  -0.239  0.00  0.00    +0.066 C 
ATOM     30  C   UNL     1      -2.178   6.609  -0.638  0.00  0.00    +0.043 A 
ATOM     31  C   UNL     1      -3.318   7.368  -0.857  0.00  0.00    +0.046 A 
ATOM     32  C   UNL     1      -3.169   8.697  -1.222  0.00  0.00    +0.043 A 
ATOM     33  N   UNL     1      -1.952   9.199  -1.351  0.00  0.00    -0.227 NA
ATOM     34  C   UNL     1      -0.882   8.446  -1.134  0.00  0.00    +0.189 A 
ATOM     35  N   UNL     1      -0.990   7.172  -0.784  0.00  0.00    -0.227 NA
ATOM     36  C   UNL     1      -4.379   9.560  -1.470  0.00  0.00    +0.066 C 
ENDBRANCH  28  34
ENDBRANCH  27  28
ENDBRANCH  24  27
BRANCH  26  37
ATOM     37  C   UNL     1       3.776   5.744  -0.777  0.00  0.00    +0.144 C 
BRANCH  37  38
ATOM     38  C   UNL     1       3.019   5.326  -2.011  0.00  0.00    -0.030 A 
ATOM     39  C   UNL     1       1.868   4.571  -1.892  0.00  0.00    +0.005 A 
ATOM     40  C   UNL     1       1.170   4.191  -3.024  0.00  0.00    +0.000 A 
ATOM     41  C   UNL     1       1.630   4.558  -4.275  0.00  0.00    +0.000 A 
ATOM     42  C   UNL     1       2.784   5.309  -4.394  0.00  0.00    +0.000 A 
ATOM     43  C   UNL     1       3.479   5.693  -3.262  0.00  0.00    +0.005 A 
ENDBRANCH  37  38
ENDBRANCH  26  37
ENDBRANCH   1  26
TORSDOF 9
