REMARK  Name = ZINC09276771
REMARK  8 active torsions:
REMARK  status: ('A' for Active; 'I' for Inactive)
REMARK    1  A    between atoms: C_1  and  C_2
REMARK    2  A    between atoms: C_5  and  N_8
REMARK    3  A    between atoms: C_14  and  S_15
REMARK    4  A    between atoms: S_15  and  C_16
REMARK    5  A    between atoms: C_16  and  C_17
REMARK    6  A    between atoms: N_19  and  C_20
REMARK    7  A    between atoms: C_23  and  N_26
REMARK    8  A    between atoms: C_30  and  C_33
REMARK                            x       y       z     vdW  Elec       q    Type
REMARK                         _______ _______ _______ _____ _____    ______ ____
ROOT
ATOM      1  N   UNL     1       0.102  -4.173  -0.025  0.00  0.00    -0.255 N 
ATOM      2  C   UNL     1       0.240  -4.867   1.128  0.00  0.00    +0.273 A 
ATOM      3  O   UNL     1       0.346  -4.286   2.196  0.00  0.00    -0.266 OA
ATOM      4  C   UNL     1       0.253  -6.267   1.070  0.00  0.00    +0.094 A 
ATOM      5  C   UNL     1       0.152  -6.933  -0.135  0.00  0.00    +0.064 A 
ATOM      6  N   UNL     1       0.015  -6.171  -1.242  0.00  0.00    -0.227 NA
ATOM      7  C   UNL     1      -0.009  -4.862  -1.197  0.00  0.00    +0.177 A 
ATOM      8  C   UNL     1       0.228  -8.438  -0.080  0.00  0.00    +0.071 C 
ATOM      9  C   UNL     1      -0.097  -8.977   1.332  0.00  0.00    +0.054 C 
ATOM     10  S   UNL     1       0.388  -7.510   2.333  0.00  0.00    -0.115 S 
ATOM     11  C   UNL     1       0.759 -10.197   1.677  0.00  0.00    +0.020 C 
ENDROOT
BRANCH   1  16
ATOM     12  C   UNL     1       0.016   1.501   0.011  0.00  0.00    +0.044 C 
ATOM     13  C   UNL     1       0.039  -0.006   0.001  0.00  0.00    -0.050 A 
ATOM     14  C   UNL     1       1.079  -0.676  -0.616  0.00  0.00    +0.005 A 
ATOM     15  C   UNL     1       1.106  -2.057  -0.622  0.00  0.00    +0.026 A 
ATOM     16  C   UNL     1       0.081  -2.772  -0.016  0.00  0.00    +0.052 A 
ATOM     17  C   UNL     1      -0.965  -2.096   0.598  0.00  0.00    +0.026 A 
ATOM     18  C   UNL     1      -0.983  -0.715   0.605  0.00  0.00    +0.005 A 
ENDBRANCH   1  16
BRANCH   7  19
ATOM     19  S   UNL     1      -0.192  -3.962  -2.701  0.00  0.00    -0.078 S 
BRANCH  19  20
ATOM     20  C   UNL     1      -0.289  -5.333  -3.878  0.00  0.00    +0.173 C 
BRANCH  20  21
ATOM     21  C   UNL     1      -0.453  -4.787  -5.273  0.00  0.00    +0.227 C 
ATOM     22  O   UNL     1      -0.499  -3.588  -5.454  0.00  0.00    -0.275 OA
ATOM     23  N   UNL     1      -0.547  -5.630  -6.321  0.00  0.00    -0.285 N 
ATOM     24  H   UNL     1      -0.590  -6.587  -6.170  0.00  0.00    +0.155 HD
BRANCH  23  25
ATOM     25  C   UNL     1      -0.584  -5.125  -7.625  0.00  0.00    +0.034 A 
ATOM     26  C   UNL     1      -1.345  -5.761  -8.597  0.00  0.00    +0.025 A 
ATOM     27  C   UNL     1      -1.382  -5.256  -9.882  0.00  0.00    +0.034 A 
ATOM     28  C   UNL     1      -0.654  -4.125 -10.204  0.00  0.00    +0.126 A 
ATOM     29  C   UNL     1       0.108  -3.493  -9.240  0.00  0.00    +0.034 A 
ATOM     30  C   UNL     1       0.146  -3.989  -7.951  0.00  0.00    +0.025 A 
BRANCH  28  31
ATOM     31  N   UNL     1      -0.693  -3.591 -11.584  0.00  0.00    +0.056 N 
ATOM     32  O   UNL     1      -0.053  -2.594 -11.868  0.00  0.00    -0.126 OA
ATOM     33  O   UNL     1      -1.364  -4.147 -12.434  0.00  0.00    -0.126 OA
ENDBRANCH  28  31
ENDBRANCH  23  25
ENDBRANCH  20  21
ENDBRANCH  19  20
ENDBRANCH   7  19
TORSDOF 6
