REMARK  Name = ZINC43287274
REMARK  13 active torsions:
REMARK  status: ('A' for Active; 'I' for Inactive)
REMARK    1  A    between atoms: C_1  and  C_2
REMARK    2  A    between atoms: C_2  and  C_3
REMARK    3  A    between atoms: C_3  and  C_5
REMARK    4  A    between atoms: C_3  and  N_23
REMARK    5  A    between atoms: C_5  and  C_7
REMARK    6  A    between atoms: C_5  and  N_13
REMARK    7  A    between atoms: N_13  and  C_14
REMARK    8  A    between atoms: N_13  and  C_15
REMARK    9  A    between atoms: C_15  and  C_16
REMARK   10  A    between atoms: N_18  and  C_19
REMARK   11  A    between atoms: C_19  and  C_20
REMARK   12  A    between atoms: C_20  and  O_21
REMARK   13  A    between atoms: O_21  and  C_22
REMARK                            x       y       z     vdW  Elec       q    Type
REMARK                         _______ _______ _______ _____ _____    ______ ____
ROOT
ATOM      1  C   UNL     1       0.872  -2.034   1.171  0.00  0.00    -0.045 C 
ENDROOT
BRANCH   1   2
ATOM      2  C   UNL     1      -0.498  -2.659   1.241  0.00  0.00    -0.024 A 
ATOM      3  C   UNL     1      -1.128  -3.216   2.304  0.00  0.00    +0.024 A 
ATOM      4  C   UNL     1      -2.399  -3.734   2.133  0.00  0.00    +0.025 A 
ATOM      5  C   UNL     1      -2.976  -3.669   0.908  0.00  0.00    +0.060 A 
ATOM      6  S   UNL     1      -1.713  -2.850  -0.052  0.00  0.00    -0.102 S 
ATOM      7 BR   UNL     1      -3.317  -4.521   3.587  0.00  0.00    -0.050 Br
ENDBRANCH   1   2
BRANCH   1   8
ATOM      8  N   UNL     1       1.519  -2.412  -0.093  0.00  0.00    +0.387 N 
ATOM      9  C   UNL     1       1.643  -3.874  -0.161  0.00  0.00    -0.095 C 
ATOM     10  H   UNL     1       0.960  -2.086  -0.867  0.00  0.00    -0.081 HD
BRANCH   8  11
ATOM     11  C   UNL     1       2.854  -1.803  -0.161  0.00  0.00    +0.019 C 
BRANCH  11  12
ATOM     12  C   UNL     1       3.468  -2.089  -1.507  0.00  0.00    +0.197 C 
ATOM     13  O   UNL     1       2.854  -2.736  -2.329  0.00  0.00    -0.278 OA
ATOM     14  N   UNL     1       4.699  -1.625  -1.798  0.00  0.00    -0.315 N 
ATOM     15  H   UNL     1       5.190  -1.107  -1.141  0.00  0.00    +0.149 HD
BRANCH  14  16
ATOM     16  C   UNL     1       5.296  -1.903  -3.107  0.00  0.00    +0.132 C 
BRANCH  16  17
ATOM     17  C   UNL     1       6.687  -1.268  -3.178  0.00  0.00    +0.178 C 
BRANCH  17  18
ATOM     18  O   UNL     1       7.548  -1.900  -2.228  0.00  0.00    -0.381 OA
ATOM     19  C   UNL     1       8.878  -1.379  -2.213  0.00  0.00    +0.194 C 
ENDBRANCH  17  18
ENDBRANCH  16  17
ENDBRANCH  14  16
ENDBRANCH  11  12
ENDBRANCH   8  11
ENDBRANCH   1   8
BRANCH   1  20
ATOM     20  C   UNL     1       0.742  -0.511   1.242  0.00  0.00    -0.085 C 
BRANCH  20  21
ATOM     21  N   UNL     1      -0.010  -0.139   2.447  0.00  0.00    +0.379 N 
ATOM     22  H   UNL     1       0.478  -0.473   3.265  0.00  0.00    -0.090 HD
ATOM     23  H   UNL     1      -0.096   0.865   2.494  0.00  0.00    -0.090 HD
ATOM     24  H   UNL     1      -0.929  -0.554   2.411  0.00  0.00    -0.090 HD
ENDBRANCH  20  21
BRANCH  20  26
ATOM     25  C   UNL     1      -0.019   1.526   0.010  0.00  0.00    +0.002 C 
ATOM     26  C   UNL     1       0.002  -0.004   0.002  0.00  0.00    -0.021 C 
ENDBRANCH  20  26
ENDBRANCH   1  20
TORSDOF 10
