REMARK  Name = ZINC09377100
REMARK  7 active torsions:
REMARK  status: ('A' for Active; 'I' for Inactive)
REMARK    1  A    between atoms: C_1  and  C_2
REMARK    2  A    between atoms: C_2  and  C_3
REMARK    3  A    between atoms: C_3  and  C_4
REMARK    4  A    between atoms: C_4  and  C_5
REMARK    5  A    between atoms: C_5  and  N_6
REMARK    6  A    between atoms: C_15  and  C_17
REMARK    7  A    between atoms: C_22  and  N_25
REMARK                            x       y       z     vdW  Elec       q    Type
REMARK                         _______ _______ _______ _____ _____    ______ ____
ROOT
ATOM      1  C   UNL     1      -5.138   5.619   0.104  0.00  0.00    +0.267 C 
ATOM      2  O   UNL     1      -5.753   5.685  -0.943  0.00  0.00    -0.268 OA
ATOM      3  N   UNL     1      -3.809   5.396   0.091  0.00  0.00    -0.296 N 
ATOM      4  C   UNL     1      -3.025   5.474   1.332  0.00  0.00    +0.110 C 
ATOM      5  C   UNL     1      -1.859   6.445   1.118  0.00  0.00    +0.044 C 
ATOM      6  C   UNL     1      -1.054   6.006  -0.108  0.00  0.00    +0.095 C 
ATOM      7  C   UNL     1      -1.949   6.045  -1.349  0.00  0.00    +0.044 C 
ATOM      8  C   UNL     1      -3.116   5.070  -1.163  0.00  0.00    +0.110 C 
ENDROOT
BRANCH   1  18
ATOM      9  N   UNL     1      -5.776   5.653   3.673  0.00  0.00    -0.228 N 
ATOM     10  C   UNL     1      -7.053   6.045   3.860  0.00  0.00    +0.275 A 
ATOM     11  O   UNL     1      -7.518   6.139   4.981  0.00  0.00    -0.266 OA
ATOM     12  C   UNL     1      -7.869   6.357   2.678  0.00  0.00    +0.050 A 
ATOM     13  C   UNL     1      -9.194   6.770   2.763  0.00  0.00    +0.014 A 
ATOM     14  C   UNL     1      -9.892   7.044   1.605  0.00  0.00    +0.001 A 
ATOM     15  C   UNL     1      -9.286   6.912   0.363  0.00  0.00    +0.001 A 
ATOM     16  C   UNL     1      -7.973   6.504   0.258  0.00  0.00    +0.011 A 
ATOM     17  C   UNL     1      -7.250   6.227   1.413  0.00  0.00    +0.020 A 
ATOM     18  C   UNL     1      -5.847   5.781   1.388  0.00  0.00    +0.154 A 
ATOM     19  N   UNL     1      -5.234   5.536   2.520  0.00  0.00    -0.163 NA
BRANCH   9  20
ATOM     20  C   UNL     1      -4.966   5.344   4.855  0.00  0.00    +0.147 C 
BRANCH  20  21
ATOM     21  C   UNL     1      -5.116   3.861   5.202  0.00  0.00    +0.023 C 
BRANCH  21  22
ATOM     22  C   UNL     1      -4.270   3.539   6.436  0.00  0.00    +0.002 C 
BRANCH  22  24
ATOM     23  C   UNL     1      -3.575   1.734   8.017  0.00  0.00    +0.004 C 
ATOM     24  C   UNL     1      -4.420   2.056   6.783  0.00  0.00    -0.003 C 
ENDBRANCH  22  24
ENDBRANCH  21  22
ENDBRANCH  20  21
ENDBRANCH   9  20
ENDBRANCH   1  18
BRANCH   6  25
ATOM     25  N   UNL     1       0.081   6.913  -0.296  0.00  0.00    -0.289 N 
ATOM     26  C   UNL     1       1.426   6.549  -0.286  0.00  0.00    +0.070 A 
ATOM     27  C   UNL     1       2.083   5.339  -0.119  0.00  0.00    +0.028 A 
ATOM     28  C   UNL     1       3.462   5.294  -0.168  0.00  0.00    +0.002 A 
ATOM     29  C   UNL     1       4.191   6.451  -0.383  0.00  0.00    +0.002 A 
ATOM     30  C   UNL     1       3.546   7.660  -0.550  0.00  0.00    +0.028 A 
ATOM     31  C   UNL     1       2.161   7.716  -0.503  0.00  0.00    +0.067 A 
ATOM     32  N   UNL     1       1.241   8.753  -0.632  0.00  0.00    -0.306 N 
ATOM     33  H   UNL     1       1.456   9.686  -0.790  0.00  0.00    +0.170 HD
ATOM     34  C   UNL     1       0.003   8.241  -0.500  0.00  0.00    +0.328 A 
ATOM     35  O   UNL     1      -1.030   8.881  -0.561  0.00  0.00    -0.247 OA
ENDBRANCH   6  25
TORSDOF 6
