REMARK  Name = ZINC34735057
REMARK  7 active torsions:
REMARK  status: ('A' for Active; 'I' for Inactive)
REMARK    1  A    between atoms: C_1  and  C_2
REMARK    2  A    between atoms: C_2  and  C_36
REMARK    3  A    between atoms: N_11  and  C_26
REMARK    4  A    between atoms: N_17  and  C_20
REMARK    5  A    between atoms: C_20  and  C_21
REMARK    6  A    between atoms: C_26  and  C_27
REMARK    7  A    between atoms: C_27  and  C_28
REMARK                            x       y       z     vdW  Elec       q    Type
REMARK                         _______ _______ _______ _____ _____    ______ ____
ROOT
ATOM      1  C   UNL     1      -0.161   1.508  -0.304  0.00  0.00    +0.041 C 
ATOM      2  C   UNL     1      -0.132  -0.021  -0.264  0.00  0.00    +0.068 C 
ATOM      3  C   UNL     1      -1.564  -0.554  -0.171  0.00  0.00    +0.071 C 
ATOM      4  C   UNL     1      -2.111  -0.207   1.212  0.00  0.00    -0.018 A 
ATOM      5  C   UNL     1      -1.249   0.125   2.203  0.00  0.00    +0.021 A 
ATOM      6  S   UNL     1      -2.269   0.449   3.617  0.00  0.00    -0.071 S 
ATOM      7  C   UNL     1      -3.844   0.139   2.880  0.00  0.00    +0.118 A 
ATOM      8  C   UNL     1      -3.522  -0.209   1.547  0.00  0.00    +0.076 A 
ATOM      9  C   UNL     1      -4.614  -0.524   0.673  0.00  0.00    +0.264 A 
ATOM     10  O   UNL     1      -4.439  -0.836  -0.492  0.00  0.00    -0.267 OA
ATOM     11  N   UNL     1      -5.849  -0.454   1.221  0.00  0.00    -0.280 N 
ATOM     12  C   UNL     1      -6.066  -0.109   2.519  0.00  0.00    +0.202 A 
ATOM     13  N   UNL     1      -5.082   0.189   3.355  0.00  0.00    -0.208 NA
ATOM     14  N   UNL     1      -7.358  -0.066   2.982  0.00  0.00    -0.304 N 
ATOM     15  C   UNL     1      -7.963  -1.232   3.644  0.00  0.00    +0.089 C 
ATOM     16  C   UNL     1      -8.583  -0.771   4.968  0.00  0.00    -0.059 C 
ATOM     17  N   UNL     1      -9.517   0.332   4.711  0.00  0.00    +0.387 N 
ATOM     18  C   UNL     1      -8.787   1.495   4.191  0.00  0.00    -0.059 C 
ATOM     19  C   UNL     1      -8.175   1.148   2.834  0.00  0.00    +0.089 C 
ATOM     20  C   UNL     1       0.242   0.194   2.094  0.00  0.00    +0.203 C 
ATOM     21  O   UNL     1       0.627  -0.451   0.870  0.00  0.00    -0.368 OA
ATOM     22  C   UNL     1       0.521  -0.550  -1.542  0.00  0.00    +0.041 C 
ATOM     23  H   UNL     1     -10.205   0.038   4.034  0.00  0.00    -0.081 HD
ENDROOT
BRANCH  17  24
ATOM     24  C   UNL     1     -10.193   0.701   5.963  0.00  0.00    +0.019 C 
BRANCH  24  25
ATOM     25  C   UNL     1     -11.239   1.748   5.679  0.00  0.00    +0.199 C 
ATOM     26  O   UNL     1     -11.405   2.148   4.547  0.00  0.00    -0.278 OA
ATOM     27  N   UNL     1     -11.989   2.239   6.685  0.00  0.00    -0.300 N 
ATOM     28  C   UNL     1     -12.314   2.247   8.114  0.00  0.00    +0.126 C 
ATOM     29  C   UNL     1     -13.053   3.148   7.122  0.00  0.00    +0.126 C 
ENDBRANCH  24  25
ENDBRANCH  17  24
BRANCH  11  30
ATOM     30  C   UNL     1      -7.006  -0.764   0.378  0.00  0.00    +0.133 C 
BRANCH  30  31
ATOM     31  C   UNL     1      -7.232  -2.277   0.357  0.00  0.00    +0.057 C 
BRANCH  31  32
ATOM     32  C   UNL     1      -8.345  -2.606  -0.604  0.00  0.00    -0.046 A 
ATOM     33  C   UNL     1      -9.641  -2.741  -0.140  0.00  0.00    +0.004 A 
ATOM     34  C   UNL     1     -10.662  -3.043  -1.021  0.00  0.00    +0.000 A 
ATOM     35  C   UNL     1     -10.389  -3.209  -2.366  0.00  0.00    +0.000 A 
ATOM     36  C   UNL     1      -9.094  -3.073  -2.830  0.00  0.00    +0.000 A 
ATOM     37  C   UNL     1      -8.073  -2.767  -1.949  0.00  0.00    +0.004 A 
ENDBRANCH  31  32
ENDBRANCH  30  31
ENDBRANCH  11  30
TORSDOF 5
