REMARK  Name = ZINC64435364
REMARK  6 active torsions:
REMARK  status: ('A' for Active; 'I' for Inactive)
REMARK    1  A    between atoms: C_1  and  C_2
REMARK    2  A    between atoms: C_9  and  N_12
REMARK    3  A    between atoms: C_13  and  C_15
REMARK    4  A    between atoms: C_18  and  O_22
REMARK    5  A    between atoms: O_22  and  C_23
REMARK    6  A    between atoms: C_23  and  C_24
REMARK                            x       y       z     vdW  Elec       q    Type
REMARK                         _______ _______ _______ _____ _____    ______ ____
ROOT
ATOM      1  C   UNL     1       2.646  -7.151   2.942  0.00  0.00    +0.106 A 
ATOM      2  N   UNL     1       2.765  -7.921   4.062  0.00  0.00    -0.354 N 
ATOM      3  C   UNL     1       3.876  -8.660   4.295  0.00  0.00    +0.133 A 
ATOM      4  C   UNL     1       4.911  -8.657   3.415  0.00  0.00    +0.183 A 
ATOM      5  C   UNL     1       4.822  -7.870   2.241  0.00  0.00    +0.224 A 
ATOM      6  O   UNL     1       5.739  -7.850   1.433  0.00  0.00    -0.284 OA
ATOM      7  C   UNL     1       3.647  -7.111   2.019  0.00  0.00    +0.085 A 
ATOM      8  H   UNL     1       2.040  -7.939   4.705  0.00  0.00    +0.166 HD
ENDROOT
BRANCH   1  10
ATOM      9  N   UNL     1       1.291  -5.596   1.619  0.00  0.00    -0.283 N 
ATOM     10  C   UNL     1       1.415  -6.358   2.724  0.00  0.00    +0.262 C 
ATOM     11  O   UNL     1       0.516  -6.394   3.541  0.00  0.00    -0.269 OA
ATOM     12  H   UNL     1       2.008  -5.567   0.967  0.00  0.00    +0.152 HD
BRANCH   9  21
ATOM     13  C   UNL     1      -0.018   1.503   0.010  0.00  0.00    +0.044 C 
ATOM     14  C   UNL     1       0.002  -0.004   0.002  0.00  0.00    -0.049 A 
ATOM     15  C   UNL     1       0.006  -0.700  -1.193  0.00  0.00    +0.005 A 
ATOM     16  C   UNL     1       0.025  -2.075  -1.215  0.00  0.00    +0.024 A 
ATOM     17  C   UNL     1       0.040  -2.822  -0.023  0.00  0.00    +0.043 A 
ATOM     18  C   UNL     1       0.035  -2.090   1.168  0.00  0.00    +0.032 A 
ATOM     19  C   UNL     1       0.023  -0.714   1.191  0.00  0.00    +0.020 A 
ATOM     20  S   UNL     1       0.057  -3.310   2.462  0.00  0.00    -0.082 S 
ATOM     21  C   UNL     1       0.072  -4.811   1.404  0.00  0.00    +0.224 C 
ATOM     22  N   UNL     1       0.059  -4.213   0.062  0.00  0.00    -0.316 N 
ATOM     23  H   UNL     1       0.062  -4.766  -0.735  0.00  0.00    +0.149 HD
ENDBRANCH   9  21
ENDBRANCH   1  10
BRANCH   4  24
ATOM     24  O   UNL     1       6.022  -9.402   3.659  0.00  0.00    -0.482 OA
BRANCH  24  25
ATOM     25  C   UNL     1       6.037 -10.169   4.864  0.00  0.00    +0.264 C 
BRANCH  25  26
ATOM     26  C   UNL     1       7.337 -10.924   4.964  0.00  0.00    -0.009 A 
ATOM     27  C   UNL     1       7.443 -12.192   4.423  0.00  0.00    +0.007 A 
ATOM     28  C   UNL     1       8.636 -12.886   4.513  0.00  0.00    +0.002 A 
ATOM     29  C   UNL     1       9.723 -12.312   5.145  0.00  0.00    +0.020 A 
ATOM     30  C   UNL     1       9.617 -11.043   5.687  0.00  0.00    +0.041 A 
ATOM     31  C   UNL     1       8.425 -10.347   5.590  0.00  0.00    +0.027 A 
ATOM     32 CL   UNL     1      10.982 -10.322   6.481  0.00  0.00    -0.084 Cl
ENDBRANCH  25  26
ENDBRANCH  24  25
ENDBRANCH   4  24
TORSDOF 5
