REMARK  Name = ZINC12378905
REMARK  10 active torsions:
REMARK  status: ('A' for Active; 'I' for Inactive)
REMARK    1  A    between atoms: C_1  and  C_2
REMARK    2  A    between atoms: C_2  and  C_24
REMARK    3  A    between atoms: N_3  and  N_4
REMARK    4  A    between atoms: C_5  and  S_7
REMARK    5  A    between atoms: S_7  and  C_8
REMARK    6  A    between atoms: N_13  and  C_16
REMARK    7  A    between atoms: C_21  and  O_22
REMARK    8  A    between atoms: O_22  and  C_23
REMARK    9  A    between atoms: C_27  and  O_31
REMARK   10  A    between atoms: O_31  and  C_32
REMARK                            x       y       z     vdW  Elec       q    Type
REMARK                         _______ _______ _______ _____ _____    ______ ____
ROOT
ATOM      1  N   UNL     1      -0.346   7.822   0.165  0.00  0.00    -0.259 N 
ATOM      2  C   UNL     1      -1.442   7.156  -0.139  0.00  0.00    +0.146 C 
ATOM      3  N   UNL     1      -1.404   5.788  -0.256  0.00  0.00    -0.338 N 
ATOM      4  H   UNL     1      -2.319   5.232  -0.510  0.00  0.00    +0.144 HD
ATOM      5  H   UNL     1      -0.459   5.248  -0.096  0.00  0.00    +0.144 HD
ATOM      6  H   UNL     1       0.616   7.293   0.239  0.00  0.00    +0.191 HD
ENDROOT
BRANCH   1   9
ATOM      7  C   UNL     1       0.649  11.256   0.781  0.00  0.00    +0.068 C 
ATOM      8  C   UNL     1       0.685   9.753   0.677  0.00  0.00    +0.066 C 
ATOM      9  N   UNL     1      -0.401   9.094   0.376  0.00  0.00    -0.177 NA
BRANCH   8  10
ATOM     10  C   UNL     1       1.943   9.029   0.915  0.00  0.00    +0.001 A 
ATOM     11  C   UNL     1       3.164   9.606   0.552  0.00  0.00    +0.013 A 
ATOM     12  C   UNL     1       4.340   8.922   0.772  0.00  0.00    +0.049 A 
ATOM     13  C   UNL     1       4.316   7.666   1.363  0.00  0.00    +0.155 A 
ATOM     14  C   UNL     1       3.106   7.089   1.731  0.00  0.00    +0.165 A 
ATOM     15  C   UNL     1       1.923   7.763   1.510  0.00  0.00    +0.051 A 
ATOM     16  F   UNL     1       3.089   5.866   2.306  0.00  0.00    -0.202 F 
BRANCH  13  17
ATOM     17  O   UNL     1       5.480   6.999   1.583  0.00  0.00    -0.492 OA
ATOM     18  C   UNL     1       6.687   7.650   1.182  0.00  0.00    +0.277 C 
ENDBRANCH  13  17
ENDBRANCH   8  10
ENDBRANCH   1   9
BRANCH   2  19
ATOM     19  S   UNL     1      -2.955   8.021  -0.395  0.00  0.00    -0.078 S 
BRANCH  19  20
ATOM     20  C   UNL     1      -4.087   6.622  -0.593  0.00  0.00    +0.149 C 
ATOM     21  C   UNL     1      -5.470   7.106  -1.074  0.00  0.00    +0.120 C 
ATOM     22  C   UNL     1      -6.401   6.689   0.043  0.00  0.00    +0.228 C 
ATOM     23  O   UNL     1      -7.598   6.880   0.068  0.00  0.00    -0.275 OA
ATOM     24  N   UNL     1      -5.693   6.075   1.000  0.00  0.00    -0.206 N 
ATOM     25  C   UNL     1      -4.382   5.982   0.746  0.00  0.00    +0.240 C 
ATOM     26  O   UNL     1      -3.561   5.466   1.474  0.00  0.00    -0.274 OA
BRANCH  24  27
ATOM     27  C   UNL     1      -6.278   5.572   2.172  0.00  0.00    +0.085 A 
ATOM     28  C   UNL     1      -6.753   4.269   2.208  0.00  0.00    +0.027 A 
ATOM     29  C   UNL     1      -7.324   3.774   3.364  0.00  0.00    +0.002 A 
ATOM     30  C   UNL     1      -7.432   4.577   4.485  0.00  0.00    +0.004 A 
ATOM     31  C   UNL     1      -6.966   5.877   4.455  0.00  0.00    +0.047 A 
ATOM     32  C   UNL     1      -6.387   6.380   3.301  0.00  0.00    +0.142 A 
BRANCH  32  33
ATOM     33  O   UNL     1      -5.927   7.659   3.270  0.00  0.00    -0.493 OA
ATOM     34  C   UNL     1      -6.073   8.430   4.465  0.00  0.00    +0.277 C 
ENDBRANCH  32  33
ENDBRANCH  24  27
ENDBRANCH  19  20
ENDBRANCH   2  19
TORSDOF 7
