REMARK  Name = ZINC38984103
REMARK  10 active torsions:
REMARK  status: ('A' for Active; 'I' for Inactive)
REMARK    1  A    between atoms: C_1  and  C_2
REMARK    2  A    between atoms: C_2  and  C_3
REMARK    3  A    between atoms: C_3  and  C_5
REMARK    4  A    between atoms: C_3  and  C_6
REMARK    5  A    between atoms: C_9  and  N_12
REMARK    6  A    between atoms: N_12  and  C_13
REMARK    7  A    between atoms: N_16  and  S_17
REMARK    8  A    between atoms: S_17  and  C_20
REMARK    9  A    between atoms: C_22  and  C_27
REMARK   10  A    between atoms: C_25  and  C_26
REMARK                            x       y       z     vdW  Elec       q    Type
REMARK                         _______ _______ _______ _____ _____    ______ ____
ROOT
ATOM      1  C   UNL     1       2.547  -6.773   0.869  0.00  0.00    +0.237 C 
ATOM      2  C   UNL     1       2.591  -7.946   1.823  0.00  0.00    +0.192 C 
ATOM      3  N   UNL     1       2.373  -7.771   3.093  0.00  0.00    -0.110 NA
ATOM      4  N   UNL     1       2.856  -9.169   1.339  0.00  0.00    -0.226 NA
ATOM      5  C   UNL     1       3.079  -9.372   0.057  0.00  0.00    +0.089 A 
ATOM      6  C   UNL     1       3.357 -10.678  -0.419  0.00  0.00    +0.030 A 
ATOM      7  C   UNL     1       3.587 -10.891  -1.733  0.00  0.00    +0.002 A 
ATOM      8  C   UNL     1       3.566  -9.859  -2.686  0.00  0.00    +0.002 A 
ATOM      9  C   UNL     1       3.312  -8.578  -2.339  0.00  0.00    +0.027 A 
ATOM     10  C   UNL     1       3.051  -8.262  -0.927  0.00  0.00    +0.063 A 
ATOM     11  N   UNL     1       2.801  -7.038  -0.556  0.00  0.00    -0.359 N 
ATOM     12  H   UNL     1       2.783  -6.317  -1.205  0.00  0.00    +0.162 HD
ENDROOT
BRANCH   3  13
ATOM     13  S   UNL     1       2.424  -9.064   4.126  0.00  0.00    +0.101 S 
ATOM     14  O   UNL     1       1.335  -9.908   3.775  0.00  0.00    -0.146 OA
ATOM     15  O   UNL     1       3.769  -9.522   4.139  0.00  0.00    -0.146 OA
BRANCH  13  16
ATOM     16  C   UNL     1       2.085  -8.451   5.744  0.00  0.00    +0.116 A 
ATOM     17  C   UNL     1       0.941  -8.852   6.409  0.00  0.00    +0.032 A 
ATOM     18  C   UNL     1       0.675  -8.371   7.677  0.00  0.00    -0.049 A 
ATOM     19  C   UNL     1       1.554  -7.491   8.281  0.00  0.00    +0.004 A 
ATOM     20  C   UNL     1       2.698  -7.091   7.616  0.00  0.00    +0.005 A 
ATOM     21  C   UNL     1       2.966  -7.575   6.349  0.00  0.00    -0.024 A 
ATOM     22  C   UNL     1       4.216  -7.144   5.627  0.00  0.00    +0.046 C 
ATOM     23  C   UNL     1      -0.572  -8.807   8.402  0.00  0.00    +0.044 C 
ENDBRANCH  13  16
ENDBRANCH   3  13
BRANCH   1  24
ATOM     24  N   UNL     1       1.223  -6.155   0.980  0.00  0.00    -0.318 N 
ATOM     25  H   UNL     1       0.425  -6.701   0.905  0.00  0.00    +0.148 HD
BRANCH  24  29
ATOM     26  C   UNL     1       0.887  -2.054   1.618  0.00  0.00    -0.044 A 
ATOM     27  C   UNL     1       2.123  -2.611   1.342  0.00  0.00    +0.006 A 
ATOM     28  C   UNL     1       2.238  -3.970   1.130  0.00  0.00    +0.023 A 
ATOM     29  C   UNL     1       1.111  -4.779   1.194  0.00  0.00    +0.029 A 
ATOM     30  C   UNL     1      -0.129  -4.218   1.472  0.00  0.00    +0.023 A 
ATOM     31  C   UNL     1      -0.236  -2.858   1.688  0.00  0.00    +0.006 A 
BRANCH  26  32
ATOM     32  C   UNL     1       0.765  -0.570   1.849  0.00  0.00    +0.016 C 
ATOM     33  C   UNL     1       1.233   0.180   0.600  0.00  0.00    +0.012 C 
BRANCH  32  35
ATOM     34  C   UNL     1       1.415   1.315   3.354  0.00  0.00    +0.004 C 
ATOM     35  C   UNL     1       1.634  -0.167   3.042  0.00  0.00    +0.004 C 
ENDBRANCH  32  35
ENDBRANCH  26  32
ENDBRANCH  24  29
ENDBRANCH   1  24
TORSDOF 6
