REMARK  Name = ZINC43337658
REMARK  7 active torsions:
REMARK  status: ('A' for Active; 'I' for Inactive)
REMARK    1  A    between atoms: C_1  and  C_2
REMARK    2  A    between atoms: C_2  and  C_3
REMARK    3  A    between atoms: C_3  and  C_5
REMARK    4  A    between atoms: C_3  and  N_20
REMARK    5  A    between atoms: C_5  and  C_7
REMARK    6  A    between atoms: C_5  and  O_12
REMARK    7  A    between atoms: O_12  and  C_13
REMARK                            x       y       z     vdW  Elec       q    Type
REMARK                         _______ _______ _______ _____ _____    ______ ____
ROOT
ATOM      1  C   UNL     1      -1.404  -2.085   0.130  0.00  0.00    +0.224 C 
ENDROOT
BRANCH   1   2
ATOM      2  C   UNL     1      -0.679  -2.614   1.341  0.00  0.00    +0.143 A 
ATOM      3  C   UNL     1       0.617  -2.970   1.388  0.00  0.00    +0.048 A 
ATOM      4  C   UNL     1       0.874  -3.406   2.708  0.00  0.00    +0.041 A 
ATOM      5  C   UNL     1      -0.281  -3.292   3.388  0.00  0.00    +0.195 A 
ATOM      6  O   UNL     1      -1.217  -2.806   2.556  0.00  0.00    -0.464 OA
ENDBRANCH   1   2
BRANCH   1   7
ATOM      7  C   UNL     1      -1.395  -0.555   0.159  0.00  0.00    -0.026 C 
BRANCH   7   8
ATOM      8  N   UNL     1      -2.102  -0.039  -1.021  0.00  0.00    +0.383 N 
ATOM      9  H   UNL     1      -1.640  -0.362  -1.858  0.00  0.00    -0.089 HD
ATOM     10  H   UNL     1      -3.055  -0.370  -1.014  0.00  0.00    -0.089 HD
ATOM     11  H   UNL     1      -2.096   0.970  -1.002  0.00  0.00    -0.089 HD
ENDBRANCH   7   8
BRANCH   7  13
ATOM     12  C   UNL     1       0.062   1.469   0.303  0.00  0.00    +0.002 C 
ATOM     13  C   UNL     1       0.050  -0.053   0.148  0.00  0.00    -0.016 C 
ENDBRANCH   7  13
ENDBRANCH   1   7
BRANCH   1  14
ATOM     14  O   UNL     1      -2.754  -2.554   0.140  0.00  0.00    -0.483 OA
BRANCH  14  15
ATOM     15  C   UNL     1      -3.344  -2.761  -1.066  0.00  0.00    +0.122 A 
ATOM     16  C   UNL     1      -2.614  -2.599  -2.234  0.00  0.00    +0.047 A 
ATOM     17  C   UNL     1      -3.216  -2.810  -3.459  0.00  0.00    +0.018 A 
ATOM     18  C   UNL     1      -4.546  -3.183  -3.522  0.00  0.00    +0.014 A 
ATOM     19  C   UNL     1      -5.277  -3.345  -2.359  0.00  0.00    +0.018 A 
ATOM     20  C   UNL     1      -4.677  -3.140  -1.131  0.00  0.00    +0.047 A 
ATOM     21  I   UNL     1      -5.456  -3.502  -5.382  0.00  0.00    -0.044 I 
ENDBRANCH  14  15
ENDBRANCH   1  14
TORSDOF 6
