REMARK  Name = ZINC14358329
REMARK  5 active torsions:
REMARK  status: ('A' for Active; 'I' for Inactive)
REMARK    1  A    between atoms: C_1  and  C_2
REMARK    2  A    between atoms: C_2  and  C_23
REMARK    3  A    between atoms: N_5  and  C_9
REMARK    4  A    between atoms: C_9  and  C_10
REMARK    5  A    between atoms: N_12  and  C_13
REMARK                            x       y       z     vdW  Elec       q    Type
REMARK                         _______ _______ _______ _____ _____    ______ ____
ROOT
ATOM      1  C   UNL     1      -3.684   5.280  -3.920  0.00  0.00    +0.047 C 
ATOM      2  C   UNL     1      -2.196   5.488  -3.629  0.00  0.00    +0.135 C 
ATOM      3  C   UNL     1      -1.862   6.966  -3.589  0.00  0.00    +0.251 C 
ATOM      4  O   UNL     1      -2.308   7.797  -2.826  0.00  0.00    -0.272 OA
ATOM      5  N   UNL     1      -0.967   7.165  -4.576  0.00  0.00    -0.215 N 
ATOM      6  C   UNL     1      -0.691   6.030  -5.228  0.00  0.00    +0.310 C 
ATOM      7  O   UNL     1       0.088   5.957  -6.158  0.00  0.00    -0.252 OA
ATOM      8  N   UNL     1      -1.372   4.978  -4.739  0.00  0.00    -0.281 N 
ATOM      9  H   UNL     1      -1.329   4.062  -5.055  0.00  0.00    +0.152 HD
ENDROOT
BRANCH   2  10
ATOM     10  C   UNL     1      -1.812   4.822  -2.333  0.00  0.00    -0.012 A 
ATOM     11  C   UNL     1      -1.837   5.542  -1.153  0.00  0.00    +0.010 A 
ATOM     12  C   UNL     1      -1.484   4.935   0.037  0.00  0.00    +0.050 A 
ATOM     13  C   UNL     1      -1.104   3.601   0.051  0.00  0.00    +0.162 A 
ATOM     14  C   UNL     1      -1.081   2.877  -1.135  0.00  0.00    +0.162 A 
ATOM     15  C   UNL     1      -1.435   3.492  -2.326  0.00  0.00    +0.055 A 
ATOM     16  O   UNL     1      -0.716   1.565  -1.143  0.00  0.00    -0.485 OA
ATOM     17  C   UNL     1      -0.013   1.086   0.008  0.00  0.00    +0.270 C 
ATOM     18  C   UNL     1      -0.743   1.587   1.262  0.00  0.00    +0.270 C 
ATOM     19  O   UNL     1      -0.756   3.018   1.230  0.00  0.00    -0.485 OA
ENDBRANCH   2  10
BRANCH   5  20
ATOM     20  C   UNL     1      -0.369   8.464  -4.896  0.00  0.00    +0.213 C 
BRANCH  20  21
ATOM     21  C   UNL     1       0.895   8.646  -4.097  0.00  0.00    +0.231 C 
ATOM     22  O   UNL     1       1.262   7.776  -3.335  0.00  0.00    -0.274 OA
ATOM     23  N   UNL     1       1.619   9.775  -4.229  0.00  0.00    -0.308 N 
ATOM     24  H   UNL     1       1.326  10.470  -4.838  0.00  0.00    +0.149 HD
BRANCH  23  25
ATOM     25  C   UNL     1       2.849   9.952  -3.452  0.00  0.00    +0.035 C 
ATOM     26  C   UNL     1       2.521   9.896  -1.958  0.00  0.00    +0.029 C 
ATOM     27  C   UNL     1       3.805  10.081  -1.147  0.00  0.00    -0.008 C 
ATOM     28  C   UNL     1       4.428  11.437  -1.482  0.00  0.00    +0.007 C 
ATOM     29  C   UNL     1       4.756  11.493  -2.975  0.00  0.00    -0.008 C 
ATOM     30  C   UNL     1       3.472  11.309  -3.786  0.00  0.00    +0.029 C 
ATOM     31  C   UNL     1       5.744  10.378  -3.322  0.00  0.00    +0.007 C 
ATOM     32  C   UNL     1       5.120   9.022  -2.988  0.00  0.00    -0.008 C 
ATOM     33  C   UNL     1       4.793   8.965  -1.495  0.00  0.00    +0.007 C 
ATOM     34  C   UNL     1       3.837   8.837  -3.800  0.00  0.00    +0.029 C 
ENDBRANCH  23  25
ENDBRANCH  20  21
ENDBRANCH   5  20
TORSDOF 4
