REMARK  Name = ZINC00823599
REMARK  9 active torsions:
REMARK  status: ('A' for Active; 'I' for Inactive)
REMARK    1  A    between atoms: C_1  and  C_2
REMARK    2  A    between atoms: C_5  and  O_8
REMARK    3  A    between atoms: O_8  and  C_9
REMARK    4  A    between atoms: C_9  and  C_11
REMARK    5  A    between atoms: C_12  and  C_28
REMARK    6  A    between atoms: C_17  and  C_19
REMARK    7  A    between atoms: C_22  and  O_27
REMARK    8  A    between atoms: C_23  and  O_25
REMARK    9  A    between atoms: O_25  and  C_26
REMARK                            x       y       z     vdW  Elec       q    Type
REMARK                         _______ _______ _______ _____ _____    ______ ____
ROOT
ATOM      1  C   UNL     1      -2.509  -2.995   4.653  0.00  0.00    +0.078 C 
ATOM      2  C   UNL     1      -2.487  -3.797   5.740  0.00  0.00    +0.021 C 
ATOM      3  N   UNL     1      -3.076  -3.413   6.910  0.00  0.00    -0.273 N 
ATOM      4  C   UNL     1      -3.708  -2.245   7.075  0.00  0.00    +0.304 C 
ATOM      5  O   UNL     1      -4.204  -1.991   8.156  0.00  0.00    -0.252 OA
ATOM      6  N   UNL     1      -3.813  -1.340   6.082  0.00  0.00    -0.288 N 
ATOM      7  C   UNL     1      -3.204  -1.655   4.779  0.00  0.00    +0.144 C 
ATOM      8  C   UNL     1      -1.801  -5.136   5.660  0.00  0.00    +0.061 C 
ATOM      9  H   UNL     1      -3.035  -4.022   7.665  0.00  0.00    +0.156 HD
ATOM     10  H   UNL     1      -4.276  -0.499   6.223  0.00  0.00    +0.151 HD
ENDROOT
BRANCH   7  11
ATOM     11  C   UNL     1      -2.200  -0.579   4.457  0.00  0.00    -0.019 A 
ATOM     12  C   UNL     1      -1.211  -0.263   5.370  0.00  0.00    +0.009 A 
ATOM     13  C   UNL     1      -0.287   0.724   5.080  0.00  0.00    +0.049 A 
ATOM     14  C   UNL     1      -0.352   1.399   3.871  0.00  0.00    +0.158 A 
ATOM     15  C   UNL     1      -1.347   1.081   2.952  0.00  0.00    +0.162 A 
ATOM     16  C   UNL     1      -2.267   0.087   3.248  0.00  0.00    +0.055 A 
BRANCH  15  17
ATOM     17  O   UNL     1      -1.415   1.740   1.765  0.00  0.00    -0.491 OA
ATOM     18  C   UNL     1      -2.516   1.427   0.910  0.00  0.00    +0.277 C 
ENDBRANCH  15  17
BRANCH  14  19
ATOM     19  O   UNL     1       0.555   2.370   3.584  0.00  0.00    -0.503 OA
ATOM     20  H   UNL     1       1.349   2.047   3.135  0.00  0.00    +0.292 HD
ENDBRANCH  14  19
ENDBRANCH   7  11
BRANCH   1  21
ATOM     21  C   UNL     1      -1.898  -3.391   3.440  0.00  0.00    +0.339 C 
ATOM     22  O   UNL     1      -2.579  -3.821   2.528  0.00  0.00    -0.245 OA
BRANCH  21  23
ATOM     23  O   UNL     1      -0.560  -3.293   3.295  0.00  0.00    -0.458 OA
BRANCH  23  28
ATOM     24  C   UNL     1       3.539  -5.202   3.863  0.00  0.00    +0.007 C 
ATOM     25  C   UNL     1       2.543  -4.773   2.784  0.00  0.00    -0.014 C 
ATOM     26  C   UNL     1       2.290  -3.268   2.892  0.00  0.00    +0.007 C 
ATOM     27  C   UNL     1       1.294  -2.840   1.812  0.00  0.00    +0.045 C 
ATOM     28  C   UNL     1      -0.023  -3.594   2.006  0.00  0.00    +0.177 C 
ATOM     29  C   UNL     1       0.230  -5.099   1.897  0.00  0.00    +0.045 C 
ATOM     30  C   UNL     1       1.226  -5.527   2.977  0.00  0.00    +0.007 C 
ENDBRANCH  23  28
ENDBRANCH  21  23
ENDBRANCH   1  21
TORSDOF 6
