REMARK  Name = ZINC12507967
REMARK  8 active torsions:
REMARK  status: ('A' for Active; 'I' for Inactive)
REMARK    1  A    between atoms: C_4  and  N_7
REMARK    2  A    between atoms: N_7  and  S_8
REMARK    3  A    between atoms: S_8  and  C_11
REMARK    4  A    between atoms: C_14  and  N_17
REMARK    5  A    between atoms: N_17  and  S_18
REMARK    6  A    between atoms: S_18  and  C_21
REMARK    7  A    between atoms: C_26  and  O_27
REMARK    8  A    between atoms: O_27  and  C_28
REMARK                            x       y       z     vdW  Elec       q    Type
REMARK                         _______ _______ _______ _____ _____    ______ ____
ROOT
ATOM      1  C   UNL     1      -4.531  -0.060   0.429  0.00  0.00    +0.109 A 
ATOM      2  C   UNL     1      -3.799   0.384   1.516  0.00  0.00    +0.030 A 
ATOM      3  C   UNL     1      -2.509   0.843   1.340  0.00  0.00    +0.026 A 
ATOM      4  C   UNL     1      -1.945   0.859   0.071  0.00  0.00    +0.048 A 
ATOM      5  C   UNL     1      -2.684   0.418  -1.019  0.00  0.00    +0.026 A 
ATOM      6  C   UNL     1      -3.973  -0.045  -0.836  0.00  0.00    +0.030 A 
ENDROOT
BRANCH   1   7
ATOM      7  S   UNL     1      -6.177  -0.645   0.657  0.00  0.00    +0.072 S 
ATOM      8  O   UNL     1      -6.416  -1.597  -0.371  0.00  0.00    -0.150 OA
ATOM      9  O   UNL     1      -6.308  -0.963   2.036  0.00  0.00    -0.150 OA
BRANCH   7  10
ATOM     10  N   UNL     1      -7.194   0.630   0.367  0.00  0.00    -0.216 N 
ATOM     11  H   UNL     1      -7.742   0.986   1.084  0.00  0.00    +0.174 HD
BRANCH  10  15
ATOM     12  C   UNL     1      -7.399   2.307  -3.439  0.00  0.00    +0.000 A 
ATOM     13  C   UNL     1      -7.967   1.069  -3.199  0.00  0.00    +0.002 A 
ATOM     14  C   UNL     1      -7.901   0.510  -1.938  0.00  0.00    +0.024 A 
ATOM     15  C   UNL     1      -7.262   1.192  -0.910  0.00  0.00    +0.048 A 
ATOM     16  C   UNL     1      -6.697   2.438  -1.153  0.00  0.00    +0.024 A 
ATOM     17  C   UNL     1      -6.763   2.988  -2.418  0.00  0.00    +0.002 A 
ENDBRANCH  10  15
ENDBRANCH   7  10
ENDBRANCH   1   7
BRANCH   4  18
ATOM     18  N   UNL     1      -0.640   1.323  -0.110  0.00  0.00    -0.216 N 
ATOM     19  H   UNL     1      -0.357   2.149   0.312  0.00  0.00    +0.174 HD
BRANCH  18  20
ATOM     20  S   UNL     1       0.422   0.464  -1.045  0.00  0.00    +0.076 S 
ATOM     21  O   UNL     1       0.316  -0.893  -0.638  0.00  0.00    -0.150 OA
ATOM     22  O   UNL     1       1.653   1.173  -1.018  0.00  0.00    -0.150 OA
BRANCH  20  23
ATOM     23  C   UNL     1      -0.166   0.539  -2.705  0.00  0.00    +0.150 A 
ATOM     24  C   UNL     1      -0.569  -0.615  -3.348  0.00  0.00    +0.032 A 
ATOM     25  C   UNL     1      -1.035  -0.555  -4.649  0.00  0.00    +0.002 A 
ATOM     26  C   UNL     1      -1.088   0.657  -5.312  0.00  0.00    +0.004 A 
ATOM     27  C   UNL     1      -0.681   1.813  -4.675  0.00  0.00    +0.048 A 
ATOM     28  C   UNL     1      -0.218   1.757  -3.368  0.00  0.00    +0.157 A 
BRANCH  28  29
ATOM     29  O   UNL     1       0.183   2.892  -2.739  0.00  0.00    -0.404 OA
BRANCH  29  30
ATOM     30  C   UNL     1      -0.006   4.123  -3.439  0.00  0.00    +0.575 C 
ATOM     31  F   UNL     1      -1.354   4.257  -3.791  0.00  0.00    -0.133 F 
ATOM     32  F   UNL     1       0.368   5.191  -2.615  0.00  0.00    -0.133 F 
ATOM     33  F   UNL     1       0.781   4.128  -4.595  0.00  0.00    -0.133 F 
ENDBRANCH  29  30
ENDBRANCH  28  29
ENDBRANCH  20  23
ENDBRANCH  18  20
ENDBRANCH   4  18
TORSDOF 8
