REMARK  Name = ZINC61882137
REMARK  5 active torsions:
REMARK  status: ('A' for Active; 'I' for Inactive)
REMARK    1  A    between atoms: C_1  and  N_2
REMARK    2  A    between atoms: C_3  and  C_5
REMARK    3  A    between atoms: N_10  and  S_11
REMARK    4  A    between atoms: S_11  and  C_14
REMARK    5  A    between atoms: C_18  and  N_21
REMARK                            x       y       z     vdW  Elec       q    Type
REMARK                         _______ _______ _______ _____ _____    ______ ____
ROOT
ATOM      1  S   UNL     1       0.738  -2.310  -3.881  0.00  0.00    +0.063 S 
ATOM      2  O   UNL     1       0.001  -1.107  -4.052  0.00  0.00    -0.153 OA
ATOM      3  O   UNL     1       2.021  -2.506  -4.460  0.00  0.00    -0.153 OA
ENDROOT
BRANCH   1   4
ATOM      4  C   UNL     1      -0.286  -3.615  -4.474  0.00  0.00    +0.123 A 
ATOM      5  C   UNL     1      -1.565  -3.341  -4.922  0.00  0.00    +0.049 A 
ATOM      6  C   UNL     1      -2.373  -4.363  -5.388  0.00  0.00    +0.045 A 
ATOM      7  C   UNL     1      -1.902  -5.663  -5.407  0.00  0.00    +0.044 A 
ATOM      8  C   UNL     1      -0.618  -5.942  -4.958  0.00  0.00    +0.042 A 
ATOM      9  C   UNL     1       0.192  -4.912  -4.495  0.00  0.00    +0.065 A 
ATOM     10 BR   UNL     1       1.944  -5.285  -3.889  0.00  0.00    -0.046 Br
ATOM     11 CL   UNL     1      -3.978  -4.014  -5.949  0.00  0.00    -0.083 Cl
BRANCH   8  12
ATOM     12  N   UNL     1      -0.140  -7.255  -4.975  0.00  0.00    -0.357 N 
ATOM     13  H   UNL     1      -0.705  -7.973  -5.302  0.00  0.00    +0.142 HD
ATOM     14  H   UNL     1       0.757  -7.448  -4.661  0.00  0.00    +0.142 HD
ENDBRANCH   8  12
ENDBRANCH   1   4
BRANCH   1  19
ATOM     15  C   UNL     1      -0.050  -2.118  -1.220  0.00  0.00    +0.165 C 
ATOM     16  C   UNL     1       0.521  -2.551   0.147  0.00  0.00    +0.031 C 
ATOM     17  C   UNL     1       1.512  -3.682  -0.233  0.00  0.00    +0.019 C 
ATOM     18  C   UNL     1       2.069  -3.168  -1.583  0.00  0.00    +0.110 C 
ATOM     19  N   UNL     1       0.916  -2.529  -2.250  0.00  0.00    -0.165 NA
BRANCH  15  22
ATOM     20  C   UNL     1      -1.581   1.374  -0.902  0.00  0.00    +0.128 C 
ATOM     21  N   UNL     1      -1.360  -0.068  -0.773  0.00  0.00    -0.317 N 
ATOM     22  C   UNL     1      -0.228  -0.622  -1.251  0.00  0.00    +0.232 C 
ATOM     23  O   UNL     1       0.647   0.083  -1.706  0.00  0.00    -0.274 OA
ATOM     24  H   UNL     1      -2.029  -0.625  -0.344  0.00  0.00    +0.148 HD
ENDBRANCH  15  22
ENDBRANCH   1  19
TORSDOF 4
