REMARK  Name = ZINC05325147
REMARK  5 active torsions:
REMARK  status: ('A' for Active; 'I' for Inactive)
REMARK    1  A    between atoms: C_1  and  C_2
REMARK    2  A    between atoms: C_8  and  N_10
REMARK    3  A    between atoms: C_14  and  C_16
REMARK    4  A    between atoms: C_16  and  N_17
REMARK    5  A    between atoms: C_19  and  C_24
REMARK                            x       y       z     vdW  Elec       q    Type
REMARK                         _______ _______ _______ _____ _____    ______ ____
ROOT
ATOM      1  N   UNL     1       0.762  -1.976   1.234  0.00  0.00    -0.296 N 
ATOM      2  C   UNL     1       0.884  -2.654   2.392  0.00  0.00    +0.306 C 
ATOM      3  O   UNL     1       0.977  -2.051   3.442  0.00  0.00    -0.252 OA
ATOM      4  N   UNL     1       0.902  -4.002   2.384  0.00  0.00    -0.239 N 
ATOM      5  C   UNL     1       1.024  -4.681   3.542  0.00  0.00    +0.240 C 
ATOM      6  O   UNL     1       1.117  -4.079   4.590  0.00  0.00    -0.273 OA
ATOM      7  H   UNL     1       0.687  -2.457   0.395  0.00  0.00    +0.151 HD
ATOM      8  H   UNL     1       0.828  -4.484   1.545  0.00  0.00    +0.159 HD
ENDROOT
BRANCH   1  15
ATOM      9  C   UNL     1      -1.433  -0.534   0.013  0.00  0.00    +0.009 C 
ATOM     10  C   UNL     1       0.002  -0.004   0.002  0.00  0.00    +0.006 C 
ATOM     11  C   UNL     1      -0.019   1.526   0.010  0.00  0.00    +0.005 C 
ATOM     12  C   UNL     1       1.417   2.055  -0.000  0.00  0.00    +0.000 C 
ATOM     13  C   UNL     1       2.157   1.548   1.239  0.00  0.00    +0.002 C 
ATOM     14  C   UNL     1       2.178   0.019   1.231  0.00  0.00    +0.022 C 
ATOM     15  C   UNL     1       0.742  -0.511   1.242  0.00  0.00    +0.077 C 
ENDBRANCH   1  15
BRANCH   5  16
ATOM     16  C   UNL     1       1.045  -6.188   3.534  0.00  0.00    +0.220 C 
BRANCH  16  17
ATOM     17  N   UNL     1       1.185  -6.682   4.906  0.00  0.00    -0.306 N 
ATOM     18  C   UNL     1       0.074  -6.924   5.648  0.00  0.00    +0.102 A 
ATOM     19  C   UNL     1       0.178  -7.382   6.918  0.00  0.00    +0.071 A 
ATOM     20  C   UNL     1       1.443  -7.608   7.479  0.00  0.00    +0.019 A 
ATOM     21  C   UNL     1       2.558  -7.363   6.731  0.00  0.00    +0.071 A 
ATOM     22  C   UNL     1       2.413  -6.895   5.414  0.00  0.00    +0.252 A 
ATOM     23  O   UNL     1       3.402  -6.677   4.732  0.00  0.00    -0.268 OA
BRANCH  19  24
ATOM     24  C   UNL     1      -1.064  -7.646   7.729  0.00  0.00    +0.419 C 
ATOM     25  F   UNL     1      -1.410  -8.998   7.625  0.00  0.00    -0.166 F 
ATOM     26  F   UNL     1      -0.823  -7.328   9.069  0.00  0.00    -0.166 F 
ATOM     27  F   UNL     1      -2.114  -6.858   7.244  0.00  0.00    -0.166 F 
ENDBRANCH  19  24
ENDBRANCH  16  17
ENDBRANCH   5  16
TORSDOF 4
