REMARK  Name = ZINC57929274
REMARK  7 active torsions:
REMARK  status: ('A' for Active; 'I' for Inactive)
REMARK    1  A    between atoms: C_1  and  C_2
REMARK    2  A    between atoms: C_2  and  C_3
REMARK    3  A    between atoms: C_2  and  C_4
REMARK    4  A    between atoms: C_7  and  C_10
REMARK    5  A    between atoms: C_10  and  N_11
REMARK    6  A    between atoms: C_19  and  C_22
REMARK    7  A    between atoms: C_19  and  C_23
REMARK                            x       y       z     vdW  Elec       q    Type
REMARK                         _______ _______ _______ _____ _____    ______ ____
ROOT
ATOM      1  N   UNL     1      -6.273  -1.109  -0.741  0.00  0.00    -0.264 N 
ATOM      2  C   UNL     1      -6.877  -0.010  -0.119  0.00  0.00    +0.058 A 
ATOM      3  C   UNL     1      -6.519   0.356   1.169  0.00  0.00    +0.025 A 
ATOM      4  C   UNL     1      -7.118   1.450   1.766  0.00  0.00    +0.002 A 
ATOM      5  C   UNL     1      -8.073   2.182   1.084  0.00  0.00    +0.002 A 
ATOM      6  C   UNL     1      -8.439   1.822  -0.201  0.00  0.00    +0.025 A 
ATOM      7  C   UNL     1      -7.846   0.726  -0.802  0.00  0.00    +0.050 A 
ATOM      8  N   UNL     1      -8.214   0.327  -2.095  0.00  0.00    -0.329 N 
ATOM      9  C   UNL     1      -7.213  -0.371  -2.915  0.00  0.00    +0.103 C 
ATOM     10  C   UNL     1      -6.463  -1.351  -2.051  0.00  0.00    +0.243 C 
ATOM     11  O   UNL     1      -6.029  -2.372  -2.541  0.00  0.00    -0.273 OA
ATOM     12  C   UNL     1      -6.230   0.647  -3.498  0.00  0.00    +0.041 C 
ATOM     13  C   UNL     1      -7.913  -1.118  -4.052  0.00  0.00    +0.041 C 
ATOM     14  H   UNL     1      -9.104   0.505  -2.438  0.00  0.00    +0.147 HD
ENDROOT
BRANCH   1  15
ATOM     15  C   UNL     1      -5.419  -2.005   0.043  0.00  0.00    +0.149 C 
BRANCH  15  19
ATOM     16  C   UNL     1      -7.837  -4.935   1.996  0.00  0.00    -0.045 A 
ATOM     17  C   UNL     1      -7.427  -5.135   0.691  0.00  0.00    +0.004 A 
ATOM     18  C   UNL     1      -6.645  -4.187   0.059  0.00  0.00    +0.005 A 
ATOM     19  C   UNL     1      -6.273  -3.038   0.732  0.00  0.00    -0.030 A 
ATOM     20  C   UNL     1      -6.683  -2.838   2.037  0.00  0.00    +0.005 A 
ATOM     21  C   UNL     1      -7.469  -3.784   2.667  0.00  0.00    +0.004 A 
BRANCH  16  23
ATOM     22  C   UNL     1      -9.994  -6.155   1.907  0.00  0.00    +0.012 C 
ATOM     23  C   UNL     1      -8.690  -5.969   2.685  0.00  0.00    +0.013 C 
ATOM     24  C   UNL     1      -7.935  -7.299   2.740  0.00  0.00    +0.012 C 
ENDBRANCH  16  23
ENDBRANCH  15  19
ENDBRANCH   1  15
TORSDOF 3
