REMARK  Name = ZINC09043095
REMARK  8 active torsions:
REMARK  status: ('A' for Active; 'I' for Inactive)
REMARK    1  A    between atoms: C_1  and  C_2
REMARK    2  A    between atoms: C_2  and  C_3
REMARK    3  A    between atoms: C_2  and  C_4
REMARK    4  A    between atoms: C_7  and  C_10
REMARK    5  A    between atoms: C_19  and  S_21
REMARK    6  A    between atoms: S_21  and  C_22
REMARK    7  A    between atoms: C_22  and  C_23
REMARK    8  A    between atoms: N_25  and  C_26
REMARK                            x       y       z     vdW  Elec       q    Type
REMARK                         _______ _______ _______ _____ _____    ______ ____
ROOT
ATOM      1  C   UNL     1      -2.736   2.994   4.707  0.00  0.00    +0.004 A 
ATOM      2  C   UNL     1      -3.953   2.504   5.044  0.00  0.00    +0.056 A 
ATOM      3  S   UNL     1      -4.341   3.364   6.556  0.00  0.00    -0.076 S 
ATOM      4  C   UNL     1      -2.879   4.359   6.696  0.00  0.00    +0.117 A 
ATOM      5  C   UNL     1      -2.121   3.999   5.568  0.00  0.00    +0.080 A 
ATOM      6  C   UNL     1      -0.864   4.662   5.424  0.00  0.00    +0.261 A 
ATOM      7  O   UNL     1      -0.139   4.412   4.476  0.00  0.00    -0.267 OA
ATOM      8  N   UNL     1      -0.488   5.565   6.349  0.00  0.00    -0.301 N 
ATOM      9  H   UNL     1       0.364   6.017   6.254  0.00  0.00    +0.171 HD
ATOM     10  C   UNL     1      -1.287   5.857   7.416  0.00  0.00    +0.170 A 
ATOM     11  N   UNL     1      -2.451   5.260   7.573  0.00  0.00    -0.216 NA
ENDROOT
BRANCH   1  15
ATOM     12  C   UNL     1      -0.756   1.644   1.196  0.00  0.00    -0.045 A 
ATOM     13  C   UNL     1      -0.889   3.000   1.434  0.00  0.00    +0.004 A 
ATOM     14  C   UNL     1      -1.536   3.444   2.569  0.00  0.00    +0.009 A 
ATOM     15  C   UNL     1      -2.046   2.523   3.483  0.00  0.00    -0.017 A 
ATOM     16  C   UNL     1      -1.904   1.157   3.241  0.00  0.00    +0.009 A 
ATOM     17  C   UNL     1      -1.260   0.725   2.099  0.00  0.00    +0.004 A 
BRANCH  12  19
ATOM     18  C   UNL     1       1.382   1.692  -0.059  0.00  0.00    +0.012 C 
ATOM     19  C   UNL     1      -0.055   1.165  -0.049  0.00  0.00    +0.013 C 
ATOM     20  C   UNL     1      -0.797   1.683  -1.283  0.00  0.00    +0.012 C 
ENDBRANCH  12  19
ENDBRANCH   1  15
BRANCH  10  21
ATOM     21  S   UNL     1      -0.753   7.048   8.601  0.00  0.00    -0.078 S 
BRANCH  21  22
ATOM     22  C   UNL     1      -2.163   7.015   9.736  0.00  0.00    +0.173 C 
BRANCH  22  23
ATOM     23  C   UNL     1      -1.923   7.985  10.864  0.00  0.00    +0.228 C 
ATOM     24  O   UNL     1      -0.899   8.634  10.897  0.00  0.00    -0.275 OA
ATOM     25  N   UNL     1      -2.845   8.131  11.836  0.00  0.00    -0.284 N 
ATOM     26  H   UNL     1      -3.691   7.660  11.775  0.00  0.00    +0.155 HD
BRANCH  25  27
ATOM     27  C   UNL     1      -2.582   8.961  12.932  0.00  0.00    +0.053 A 
ATOM     28  C   UNL     1      -1.834  10.118  12.764  0.00  0.00    +0.044 A 
ATOM     29  C   UNL     1      -1.580  10.938  13.847  0.00  0.00    +0.043 A 
ATOM     30  C   UNL     1      -2.062  10.601  15.100  0.00  0.00    +0.021 A 
ATOM     31  C   UNL     1      -2.803   9.446  15.271  0.00  0.00    +0.023 A 
ATOM     32  C   UNL     1      -3.064   8.625  14.191  0.00  0.00    +0.062 A 
ATOM     33 CL   UNL     1      -3.995   7.175  14.407  0.00  0.00    -0.082 Cl
ATOM     34 CL   UNL     1      -0.650  12.389  13.638  0.00  0.00    -0.083 Cl
ENDBRANCH  25  27
ENDBRANCH  22  23
ENDBRANCH  21  22
ENDBRANCH  10  21
TORSDOF 6
