REMARK  Name = ZINC40529964
REMARK  16 active torsions:
REMARK  status: ('A' for Active; 'I' for Inactive)
REMARK    1  A    between atoms: C_1  and  C_2
REMARK    2  A    between atoms: C_2  and  C_3
REMARK    3  A    between atoms: C_2  and  C_4
REMARK    4  A    between atoms: C_4  and  C_5
REMARK    5  A    between atoms: C_5  and  O_6
REMARK    6  A    between atoms: O_6  and  C_7
REMARK    7  A    between atoms: C_11  and  C_13
REMARK    8  A    between atoms: C_18  and  O_27
REMARK    9  A    between atoms: C_22  and  N_26
REMARK   10  A    between atoms: C_23  and  C_24
REMARK   11  A    between atoms: O_27  and  C_28
REMARK   12  A    between atoms: C_28  and  C_30
REMARK   13  A    between atoms: C_33  and  C_36
REMARK   14  A    between atoms: C_36  and  C_37
REMARK   15  A    between atoms: C_36  and  C_38
REMARK   16  A    between atoms: C_36  and  C_39
REMARK                            x       y       z     vdW  Elec       q    Type
REMARK                         _______ _______ _______ _____ _____    ______ ____
ROOT
ATOM      1  C   UNL     1       6.961  -0.831  -4.907  0.00  0.00    +0.098 C 
ATOM      2  C   UNL     1       8.095  -1.729  -4.489  0.00  0.00    +0.008 A 
ATOM      3  C   UNL     1       7.820  -3.011  -4.045  0.00  0.00    +0.012 A 
ATOM      4  C   UNL     1       8.847  -3.848  -3.658  0.00  0.00    +0.047 A 
ATOM      5  C   UNL     1      10.162  -3.406  -3.713  0.00  0.00    +0.135 A 
ATOM      6  C   UNL     1      10.440  -2.123  -4.157  0.00  0.00    +0.093 A 
ATOM      7  C   UNL     1       9.406  -1.282  -4.546  0.00  0.00    +0.138 A 
ATOM      8  O   UNL     1       9.695  -0.030  -4.978  0.00  0.00    -0.441 OA
ATOM      9  C   UNL     1       8.797   0.651  -5.708  0.00  0.00    +0.199 C 
ATOM     10  C   UNL     1       7.487   0.322  -5.716  0.00  0.00    +0.098 C 
ENDROOT
BRANCH   1  15
ATOM     11  C   UNL     1       4.285  -0.090  -2.345  0.00  0.00    +0.121 A 
ATOM     12  C   UNL     1       4.990   0.670  -1.423  0.00  0.00    +0.045 A 
ATOM     13  C   UNL     1       6.328   0.941  -1.633  0.00  0.00    +0.004 A 
ATOM     14  C   UNL     1       6.965   0.455  -2.760  0.00  0.00    +0.005 A 
ATOM     15  C   UNL     1       6.264  -0.303  -3.680  0.00  0.00    -0.031 A 
ATOM     16  C   UNL     1       4.927  -0.581  -3.472  0.00  0.00    +0.050 A 
BRANCH  11  17
ATOM     17  O   UNL     1       2.968  -0.358  -2.141  0.00  0.00    -0.492 OA
BRANCH  17  18
ATOM     18  C   UNL     1       2.372   0.180  -0.959  0.00  0.00    +0.229 C 
BRANCH  18  19
ATOM     19  C   UNL     1       0.897  -0.224  -0.902  0.00  0.00    +0.044 C 
BRANCH  19  21
ATOM     20  C   UNL     1       0.257   1.880   0.284  0.00  0.00    +0.007 C 
ATOM     21  C   UNL     1       0.259   0.352   0.363  0.00  0.00    -0.014 C 
ATOM     22  C   UNL     1      -1.180  -0.154   0.485  0.00  0.00    +0.007 C 
ENDBRANCH  19  21
ENDBRANCH  18  19
ENDBRANCH  17  18
ENDBRANCH  11  17
ENDBRANCH   1  15
BRANCH   9  23
ATOM     23  N   UNL     1       9.222   1.714  -6.466  0.00  0.00    -0.328 N 
ATOM     24  H   UNL     1      10.160   1.962  -6.470  0.00  0.00    +0.145 HD
ATOM     25  H   UNL     1       8.585   2.216  -6.999  0.00  0.00    +0.145 HD
ENDBRANCH   9  23
BRANCH  10  26
ATOM     26  C   UNL     1       6.580   1.089  -6.515  0.00  0.00    +0.101 C 
ATOM     27  N   UNL     1       5.860   1.698  -7.149  0.00  0.00    -0.191 NA
ENDBRANCH  10  26
BRANCH   5  28
ATOM     28  O   UNL     1      11.173  -4.229  -3.332  0.00  0.00    -0.422 OA
BRANCH  28  29
ATOM     29  C   UNL     1      11.449  -5.294  -4.109  0.00  0.00    +0.344 C 
ATOM     30  O   UNL     1      10.873  -5.438  -5.169  0.00  0.00    -0.245 OA
BRANCH  29  31
ATOM     31  C   UNL     1      12.452  -6.287  -3.673  0.00  0.00    +0.059 A 
ATOM     32  C   UNL     1      13.112  -6.128  -2.453  0.00  0.00    +0.015 A 
ATOM     33  C   UNL     1      14.048  -7.059  -2.052  0.00  0.00    +0.005 A 
ATOM     34  C   UNL     1      14.332  -8.149  -2.855  0.00  0.00    -0.042 A 
ATOM     35  C   UNL     1      13.682  -8.313  -4.065  0.00  0.00    +0.005 A 
ATOM     36  C   UNL     1      12.741  -7.392  -4.476  0.00  0.00    +0.015 A 
BRANCH  34  37
ATOM     37  C   UNL     1      15.356  -9.162  -2.410  0.00  0.00    -0.013 C 
ATOM     38  C   UNL     1      14.915  -9.783  -1.083  0.00  0.00    +0.015 C 
ATOM     39  C   UNL     1      15.482 -10.258  -3.470  0.00  0.00    +0.015 C 
ATOM     40  C   UNL     1      16.709  -8.472  -2.226  0.00  0.00    +0.015 C 
ENDBRANCH  34  37
ENDBRANCH  29  31
ENDBRANCH  28  29
ENDBRANCH   5  28
TORSDOF 11
