REMARK  Name = ZINC22201674
REMARK  10 active torsions:
REMARK  status: ('A' for Active; 'I' for Inactive)
REMARK    1  A    between atoms: C_1  and  O_2
REMARK    2  A    between atoms: O_2  and  C_3
REMARK    3  A    between atoms: C_5  and  C_13
REMARK    4  A    between atoms: C_7  and  O_11
REMARK    5  A    between atoms: C_8  and  O_9
REMARK    6  A    between atoms: O_9  and  C_10
REMARK    7  A    between atoms: O_11  and  C_12
REMARK    8  A    between atoms: C_16  and  S_24
REMARK    9  A    between atoms: N_17  and  C_18
REMARK   10  A    between atoms: S_24  and  C_25
REMARK                            x       y       z     vdW  Elec       q    Type
REMARK                         _______ _______ _______ _____ _____    ______ ____
ROOT
ATOM      1  C   UNL     1       1.360   2.970  -4.771  0.00  0.00    +0.165 A 
ATOM      2  N   UNL     1       2.341   2.574  -3.992  0.00  0.00    -0.128 NA
ATOM      3  N   UNL     1       1.943   2.539  -2.770  0.00  0.00    -0.122 NA
ATOM      4  C   UNL     1       0.682   2.900  -2.695  0.00  0.00    +0.193 A 
ATOM      5  N   UNL     1       0.268   3.191  -3.964  0.00  0.00    -0.299 N 
ENDROOT
BRANCH   1   8
ATOM      6  C   UNL     1       0.697   4.284  -8.230  0.00  0.00    +0.166 A 
ATOM      7  C   UNL     1       0.640   4.122  -6.857  0.00  0.00    +0.061 A 
ATOM      8  C   UNL     1       1.419   3.144  -6.237  0.00  0.00    +0.026 A 
ATOM      9  C   UNL     1       2.259   2.336  -7.005  0.00  0.00    +0.061 A 
ATOM     10  C   UNL     1       2.309   2.498  -8.378  0.00  0.00    +0.166 A 
ATOM     11  C   UNL     1       1.531   3.474  -8.993  0.00  0.00    +0.204 A 
BRANCH   6  13
ATOM     12  C   UNL     1      -0.895   6.035  -7.990  0.00  0.00    +0.277 C 
ATOM     13  O   UNL     1      -0.062   5.237  -8.834  0.00  0.00    -0.491 OA
ENDBRANCH   6  13
BRANCH  11  14
ATOM     14  O   UNL     1       1.586   3.635 -10.342  0.00  0.00    -0.488 OA
ATOM     15  C   UNL     1       2.558   4.554 -10.847  0.00  0.00    +0.277 C 
ENDBRANCH  11  14
BRANCH  10  16
ATOM     16  O   UNL     1       3.124   1.707  -9.126  0.00  0.00    -0.491 OA
ATOM     17  C   UNL     1       3.895   0.726  -8.430  0.00  0.00    +0.277 C 
ENDBRANCH  10  16
ENDBRANCH   1   8
BRANCH   5  18
ATOM     18  C   UNL     1      -1.062   3.642  -4.380  0.00  0.00    +0.091 C 
ATOM     19  C   UNL     1      -1.337   5.028  -3.793  0.00  0.00    +0.025 C 
ATOM     20  C   UNL     1      -2.726   5.500  -4.227  0.00  0.00    +0.002 C 
ATOM     21  C   UNL     1      -3.781   4.513  -3.720  0.00  0.00    +0.000 C 
ATOM     22  C   UNL     1      -3.506   3.127  -4.307  0.00  0.00    +0.002 C 
ATOM     23  C   UNL     1      -2.117   2.656  -3.873  0.00  0.00    +0.025 C 
ENDBRANCH   5  18
BRANCH   4  24
ATOM     24  S   UNL     1      -0.291   2.999  -1.230  0.00  0.00    -0.073 S 
BRANCH  24  25
ATOM     25  C   UNL     1       0.932   2.473  -0.004  0.00  0.00    +0.140 C 
ATOM     26  C   UNL     1       0.331   2.575   1.400  0.00  0.00    +0.024 C 
ATOM     27  C   UNL     1      -1.149   2.236   1.377  0.00  0.00    +0.003 C 
ATOM     28  C   UNL     1      -1.441   0.786   1.036  0.00  0.00    +0.019 C 
ATOM     29  C   UNL     1      -1.048   0.477  -0.416  0.00  0.00    +0.104 C 
ATOM     30  N   UNL     1       0.376   0.106  -0.443  0.00  0.00    -0.314 N 
ATOM     31  C   UNL     1       1.319   1.031  -0.257  0.00  0.00    +0.226 C 
ATOM     32  O   UNL     1       2.489   0.716  -0.291  0.00  0.00    -0.275 OA
ATOM     33  H   UNL     1       0.668  -0.940  -0.616  0.00  0.00    +0.149 HD
ENDBRANCH  24  25
ENDBRANCH   4  24
TORSDOF 7
