REMARK  Name = ZINC49625261
REMARK  6 active torsions:
REMARK  status: ('A' for Active; 'I' for Inactive)
REMARK    1  A    between atoms: C_1  and  C_2
REMARK    2  A    between atoms: C_2  and  C_30
REMARK    3  A    between atoms: C_6  and  N_22
REMARK    4  A    between atoms: C_10  and  N_21
REMARK    5  A    between atoms: C_11  and  C_13
REMARK    6  A    between atoms: C_13  and  N_15
REMARK                            x       y       z     vdW  Elec       q    Type
REMARK                         _______ _______ _______ _____ _____    ______ ____
ROOT
ATOM      1  C   UNL     1       0.356   0.594   0.247  0.00  0.00    +0.041 C 
ATOM      2  C   UNL     1       0.066  -0.907   0.196  0.00  0.00    +0.068 C 
ATOM      3  C   UNL     1      -1.447  -1.138   0.162  0.00  0.00    +0.070 C 
ATOM      4  C   UNL     1      -2.042  -0.804   1.504  0.00  0.00    -0.025 A 
ATOM      5  C   UNL     1      -1.280  -0.693   2.622  0.00  0.00    +0.020 A 
ATOM      6  C   UNL     1      -1.881  -0.387   3.850  0.00  0.00    +0.105 A 
ATOM      7  N   UNL     1      -3.188  -0.200   3.931  0.00  0.00    -0.337 N 
ATOM      8  C   UNL     1      -3.958  -0.295   2.869  0.00  0.00    +0.089 A 
ATOM      9  C   UNL     1      -3.446  -0.602   1.589  0.00  0.00    +0.031 A 
ATOM     10  C   UNL     1      -4.437  -0.670   0.527  0.00  0.00    +0.054 A 
ATOM     11  C   UNL     1      -5.754  -0.436   0.846  0.00  0.00    +0.099 A 
ATOM     12  S   UNL     1      -5.704  -0.115   2.598  0.00  0.00    -0.064 S 
ATOM     13  C   UNL     1       0.214  -0.886   2.578  0.00  0.00    +0.199 C 
ATOM     14  O   UNL     1       0.593  -1.540   1.368  0.00  0.00    -0.369 OA
ATOM     15  C   UNL     1       0.709  -1.515  -1.052  0.00  0.00    +0.041 C 
ATOM     16  H   UNL     1      -3.586   0.011   4.790  0.00  0.00    +0.168 HD
ENDROOT
BRANCH   6  17
ATOM     17  N   UNL     1      -1.098  -0.280   4.991  0.00  0.00    -0.312 N 
ATOM     18  C   UNL     1      -0.468   0.998   5.360  0.00  0.00    +0.134 C 
ATOM     19  C   UNL     1      -0.801   1.295   6.827  0.00  0.00    +0.178 C 
ATOM     20  O   UNL     1      -0.454   0.162   7.626  0.00  0.00    -0.377 OA
ATOM     21  C   UNL     1      -1.186  -1.024   7.309  0.00  0.00    +0.178 C 
ATOM     22  C   UNL     1      -0.878  -1.439   5.870  0.00  0.00    +0.134 C 
ENDBRANCH   6  17
BRANCH  10  23
ATOM     23  N   UNL     1      -4.062  -0.965  -0.779  0.00  0.00    -0.356 N 
ATOM     24  H   UNL     1      -3.247  -1.463  -0.950  0.00  0.00    +0.142 HD
ATOM     25  H   UNL     1      -4.615  -0.671  -1.520  0.00  0.00    +0.142 HD
ENDBRANCH  10  23
BRANCH  11  26
ATOM     26  C   UNL     1      -6.920  -0.449  -0.042  0.00  0.00    +0.278 C 
ATOM     27  O   UNL     1      -6.779  -0.690  -1.230  0.00  0.00    -0.267 OA
BRANCH  26  28
ATOM     28  N   UNL     1      -8.140  -0.195   0.451  0.00  0.00    -0.152 NA
ATOM     29  C   UNL     1      -9.197  -0.206  -0.355  0.00  0.00    +0.163 A 
ATOM     30  N   UNL     1      -9.239  -0.457  -1.694  0.00  0.00    -0.342 N 
ATOM     31  C   UNL     1     -10.442  -0.417  -2.330  0.00  0.00    +0.092 A 
ATOM     32  C   UNL     1     -11.518  -0.129  -1.590  0.00  0.00    +0.066 A 
ATOM     33  S   UNL     1     -10.809   0.080   0.032  0.00  0.00    -0.061 S 
ATOM     34  H   UNL     1      -8.428  -0.661  -2.184  0.00  0.00    +0.167 HD
ENDBRANCH  26  28
ENDBRANCH  11  26
TORSDOF 4
