REMARK  Name = ZINC39595579
REMARK  8 active torsions:
REMARK  status: ('A' for Active; 'I' for Inactive)
REMARK    1  A    between atoms: C_1  and  C_2
REMARK    2  A    between atoms: C_2  and  C_4
REMARK    3  A    between atoms: C_2  and  O_31
REMARK    4  A    between atoms: C_4  and  N_5
REMARK    5  A    between atoms: C_6  and  C_8
REMARK    6  A    between atoms: C_19  and  C_21
REMARK    7  A    between atoms: C_24  and  C_27
REMARK    8  A    between atoms: O_31  and  C_32
REMARK                            x       y       z     vdW  Elec       q    Type
REMARK                         _______ _______ _______ _____ _____    ______ ____
ROOT
ATOM      1  C   UNL     1       1.387  -2.171  -4.017  0.00  0.00    +0.100 C 
ATOM      2  C   UNL     1       2.275  -2.873  -2.966  0.00  0.00    +0.121 C 
ATOM      3  N   UNL     1       3.101  -3.823  -3.750  0.00  0.00    -0.296 N 
ATOM      4  C   UNL     1       3.442  -3.081  -4.987  0.00  0.00    +0.115 C 
ATOM      5  C   UNL     1       2.156  -2.308  -5.341  0.00  0.00    -0.004 C 
ATOM      6  C   UNL     1       2.505  -0.931  -5.896  0.00  0.00    -0.010 C 
ATOM      7  C   UNL     1       3.218  -1.092  -7.241  0.00  0.00    -0.082 C 
ATOM      8  N   UNL     1       2.344  -1.811  -8.177  0.00  0.00    +0.379 N 
ATOM      9  C   UNL     1       2.089  -3.169  -7.681  0.00  0.00    -0.082 C 
ATOM     10  C   UNL     1       1.329  -3.095  -6.354  0.00  0.00    -0.010 C 
ATOM     11  C   UNL     1       3.459  -5.078  -3.413  0.00  0.00    +0.247 C 
ATOM     12  O   UNL     1       3.009  -5.590  -2.407  0.00  0.00    -0.270 OA
ATOM     13  H   UNL     1       1.469  -1.317  -8.265  0.00  0.00    -0.086 HD
ATOM     14  H   UNL     1       2.791  -1.863  -9.080  0.00  0.00    -0.086 HD
ENDROOT
BRANCH  11  15
ATOM     15  C   UNL     1       4.401  -5.832  -4.268  0.00  0.00    +0.037 A 
ATOM     16  C   UNL     1       5.255  -5.153  -5.138  0.00  0.00    +0.013 A 
ATOM     17  C   UNL     1       6.132  -5.862  -5.933  0.00  0.00    +0.013 A 
ATOM     18  C   UNL     1       6.165  -7.244  -5.869  0.00  0.00    +0.055 A 
ATOM     19  C   UNL     1       5.321  -7.923  -5.008  0.00  0.00    +0.013 A 
ATOM     20  C   UNL     1       4.444  -7.225  -4.204  0.00  0.00    +0.013 A 
BRANCH  18  21
ATOM     21  C   UNL     1       7.125  -8.012  -6.740  0.00  0.00    +0.417 C 
ATOM     22  F   UNL     1       8.336  -8.184  -6.061  0.00  0.00    -0.166 F 
ATOM     23  F   UNL     1       6.580  -9.264  -7.044  0.00  0.00    -0.166 F 
ATOM     24  F   UNL     1       7.351  -7.302  -7.924  0.00  0.00    -0.166 F 
ENDBRANCH  18  21
ENDBRANCH  11  15
BRANCH   1  26
ATOM     25  N   UNL     1       0.084  -0.068  -4.031  0.00  0.00    -0.312 N 
ATOM     26  C   UNL     1       1.206  -0.717  -3.663  0.00  0.00    +0.218 C 
ATOM     27  O   UNL     1       2.072  -0.131  -3.049  0.00  0.00    -0.275 OA
ATOM     28  H   UNL     1      -0.609  -0.537  -4.523  0.00  0.00    +0.149 HD
BRANCH  25  29
ATOM     29  C   UNL     1      -0.091   1.345  -3.687  0.00  0.00    +0.148 C 
BRANCH  29  31
ATOM     30  C   UNL     1      -1.623   3.312  -3.858  0.00  0.00    +0.053 C 
ATOM     31  C   UNL     1      -1.440   1.835  -4.217  0.00  0.00    +0.187 C 
BRANCH  31  32
ATOM     32  O   UNL     1      -1.479   1.682  -5.637  0.00  0.00    -0.488 OA
BRANCH  32  33
ATOM     33  C   UNL     1      -2.705   1.561  -6.212  0.00  0.00    +0.121 A 
ATOM     34  C   UNL     1      -2.812   1.288  -7.568  0.00  0.00    +0.048 A 
ATOM     35  C   UNL     1      -4.058   1.166  -8.151  0.00  0.00    +0.042 A 
ATOM     36  C   UNL     1      -5.200   1.316  -7.383  0.00  0.00    +0.124 A 
ATOM     37  C   UNL     1      -5.095   1.589  -6.029  0.00  0.00    +0.042 A 
ATOM     38  C   UNL     1      -3.850   1.705  -5.442  0.00  0.00    +0.048 A 
ATOM     39  F   UNL     1      -6.419   1.196  -7.954  0.00  0.00    -0.205 F 
ENDBRANCH  32  33
ENDBRANCH  31  32
ENDBRANCH  29  31
ENDBRANCH  25  29
ENDBRANCH   1  26
TORSDOF 7
