REMARK  Name = ZINC20292459
REMARK  10 active torsions:
REMARK  status: ('A' for Active; 'I' for Inactive)
REMARK    1  A    between atoms: C_4  and  O_7
REMARK    2  A    between atoms: O_7  and  C_8
REMARK    3  A    between atoms: C_12  and  C_14
REMARK    4  A    between atoms: N_15  and  N_16
REMARK    5  A    between atoms: C_20  and  S_23
REMARK    6  A    between atoms: N_21  and  N_22
REMARK    7  A    between atoms: S_23  and  C_24
REMARK    8  A    between atoms: C_24  and  C_25
REMARK    9  A    between atoms: N_27  and  C_28
REMARK   10  A    between atoms: C_33  and  N_34
REMARK                            x       y       z     vdW  Elec       q    Type
REMARK                         _______ _______ _______ _____ _____    ______ ____
ROOT
ATOM      1  N   UNL     1       6.629  -7.150   0.014  0.00  0.00    -0.204 N 
ATOM      2  C   UNL     1       6.495  -8.530  -0.037  0.00  0.00    +0.254 A 
ATOM      3  N   UNL     1       5.365  -9.193  -0.100  0.00  0.00    -0.109 NA
ATOM      4  N   UNL     1       5.667 -10.560  -0.136  0.00  0.00    -0.119 NA
ATOM      5  C   UNL     1       6.972 -10.689  -0.095  0.00  0.00    +0.210 A 
ATOM      6  N   UNL     1       7.518  -9.438  -0.038  0.00  0.00    -0.211 N 
ATOM      7  H   UNL     1       7.512  -6.750   0.055  0.00  0.00    +0.177 HD
ENDROOT
BRANCH   6   8
ATOM      8  N   UNL     1       8.851  -9.145   0.012  0.00  0.00    -0.294 N 
ATOM      9  H   UNL     1       9.175  -9.100   0.967  0.00  0.00    +0.163 HD
ATOM     10  H   UNL     1       9.388  -9.812  -0.522  0.00  0.00    +0.163 HD
ENDBRANCH   6   8
BRANCH   1  12
ATOM     11  C   UNL     1       5.616  -5.043   0.057  0.00  0.00    +0.138 C 
ATOM     12  N   UNL     1       5.490  -6.335   0.009  0.00  0.00    -0.188 NA
BRANCH  11  17
ATOM     13  C   UNL     1       3.418  -1.997   0.097  0.00  0.00    +0.129 A 
ATOM     14  C   UNL     1       2.157  -2.577   0.040  0.00  0.00    +0.046 A 
ATOM     15  C   UNL     1       2.025  -3.952  -0.012  0.00  0.00    +0.004 A 
ATOM     16  C   UNL     1       3.144  -4.759  -0.006  0.00  0.00    +0.010 A 
ATOM     17  C   UNL     1       4.417  -4.185   0.051  0.00  0.00    -0.002 A 
ATOM     18  C   UNL     1       4.549  -2.796   0.098  0.00  0.00    +0.055 A 
BRANCH  13  19
ATOM     19  O   UNL     1       3.542  -0.645   0.148  0.00  0.00    -0.456 OA
BRANCH  19  23
ATOM     20  C   UNL     1       4.730   1.321  -3.279  0.00  0.00    +0.000 A 
ATOM     21  C   UNL     1       4.690  -0.061  -3.255  0.00  0.00    +0.004 A 
ATOM     22  C   UNL     1       4.293  -0.722  -2.109  0.00  0.00    +0.046 A 
ATOM     23  C   UNL     1       3.934   0.003  -0.981  0.00  0.00    +0.128 A 
ATOM     24  C   UNL     1       3.975   1.389  -1.008  0.00  0.00    +0.046 A 
ATOM     25  C   UNL     1       4.373   2.045  -2.157  0.00  0.00    +0.004 A 
ENDBRANCH  19  23
ENDBRANCH  13  19
ENDBRANCH  11  17
ENDBRANCH   1  12
BRANCH   5  26
ATOM     26  S   UNL     1       7.865 -12.208  -0.117  0.00  0.00    -0.075 S 
BRANCH  26  27
ATOM     27  C   UNL     1       6.571 -13.476  -0.207  0.00  0.00    +0.173 C 
BRANCH  27  28
ATOM     28  C   UNL     1       7.207 -14.842  -0.232  0.00  0.00    +0.228 C 
ATOM     29  O   UNL     1       8.414 -14.949  -0.193  0.00  0.00    -0.275 OA
ATOM     30  N   UNL     1       6.434 -15.944  -0.297  0.00  0.00    -0.283 N 
ATOM     31  H   UNL     1       5.474 -15.857  -0.411  0.00  0.00    +0.155 HD
BRANCH  30  32
ATOM     32  C   UNL     1       7.015 -17.213  -0.202  0.00  0.00    +0.064 A 
ATOM     33  C   UNL     1       8.226 -17.376   0.458  0.00  0.00    +0.025 A 
ATOM     34  C   UNL     1       8.798 -18.630   0.550  0.00  0.00    +0.002 A 
ATOM     35  C   UNL     1       8.165 -19.722  -0.015  0.00  0.00    +0.002 A 
ATOM     36  C   UNL     1       6.960 -19.564  -0.673  0.00  0.00    +0.034 A 
ATOM     37  C   UNL     1       6.380 -18.313  -0.763  0.00  0.00    +0.147 A 
BRANCH  37  38
ATOM     38  N   UNL     1       5.086 -18.145  -1.462  0.00  0.00    +0.058 N 
ATOM     39  O   UNL     1       4.487 -19.114  -1.865  0.00  0.00    -0.126 OA
ATOM     40  O   UNL     1       4.628 -17.039  -1.629  0.00  0.00    -0.126 OA
ENDBRANCH  37  38
ENDBRANCH  30  32
ENDBRANCH  27  28
ENDBRANCH  26  27
ENDBRANCH   5  26
TORSDOF 10
