REMARK  Name = ZINC22527327
REMARK  4 active torsions:
REMARK  status: ('A' for Active; 'I' for Inactive)
REMARK    1  A    between atoms: C_7  and  C_11
REMARK    2  A    between atoms: C_11  and  C_12
REMARK    3  A    between atoms: N_14  and  C_15
REMARK    4  A    between atoms: C_15  and  C_16
REMARK                            x       y       z     vdW  Elec       q    Type
REMARK                         _______ _______ _______ _____ _____    ______ ____
ROOT
ATOM      1  C   UNL     1      -0.077  -4.038  -1.304  0.00  0.00    +0.108 C 
ENDROOT
BRANCH   1   2
ATOM      2  C   UNL     1       0.211  -2.536  -1.269  0.00  0.00    +0.019 C 
ATOM      3  C   UNL     1      -1.112  -1.774  -1.251  0.00  0.00    +0.018 C 
ATOM      4  C   UNL     1      -1.233  -0.891   0.011  0.00  0.00    +0.050 C 
ATOM      5  C   UNL     1       0.002  -0.004   0.002  0.00  0.00    -0.036 A 
ATOM      6  C   UNL     1      -0.016   1.361   0.009  0.00  0.00    +0.004 A 
ATOM      7  C   UNL     1       1.191   2.047   0.002  0.00  0.00    +0.000 A 
ATOM      8  C   UNL     1       2.389   1.357  -0.014  0.00  0.00    +0.000 A 
ATOM      9  C   UNL     1       2.401  -0.032  -0.022  0.00  0.00    +0.004 A 
ATOM     10  C   UNL     1       1.210  -0.700  -0.014  0.00  0.00    -0.036 A 
ATOM     11  C   UNL     1       1.062  -2.214  -0.019  0.00  0.00    +0.054 C 
ATOM     12  C   UNL     1       0.169  -2.532   1.169  0.00  0.00    -0.036 A 
ATOM     13  C   UNL     1      -1.038  -1.836   1.186  0.00  0.00    -0.036 A 
ATOM     14  C   UNL     1      -1.938  -2.023   2.196  0.00  0.00    +0.004 A 
ATOM     15  C   UNL     1      -1.629  -2.921   3.210  0.00  0.00    +0.000 A 
ATOM     16  C   UNL     1      -0.432  -3.611   3.193  0.00  0.00    +0.000 A 
ATOM     17  C   UNL     1       0.479  -3.417   2.163  0.00  0.00    +0.004 A 
ENDBRANCH   1   2
BRANCH   1  20
ATOM     18  C   UNL     1      -1.139  -5.646  -2.796  0.00  0.00    +0.217 C 
ATOM     19  O   UNL     1      -0.879  -6.518  -1.993  0.00  0.00    -0.275 OA
ATOM     20  N   UNL     1      -0.780  -4.372  -2.546  0.00  0.00    -0.315 N 
ATOM     21  H   UNL     1      -1.016  -3.581  -3.273  0.00  0.00    +0.149 HD
BRANCH  18  22
ATOM     22  C   UNL     1      -1.862  -5.989  -4.073  0.00  0.00    +0.133 C 
BRANCH  22  29
ATOM     23  C   UNL     1      -5.320  -8.633  -2.335  0.00  0.00    +0.001 A 
ATOM     24  C   UNL     1      -5.164  -9.983  -2.620  0.00  0.00    +0.002 A 
ATOM     25  C   UNL     1      -4.080 -10.428  -3.344  0.00  0.00    +0.026 A 
ATOM     26  C   UNL     1      -3.130  -9.517  -3.795  0.00  0.00    +0.047 A 
ATOM     27  C   UNL     1      -3.293  -8.150  -3.504  0.00  0.00    +0.003 A 
ATOM     28  C   UNL     1      -4.399  -7.722  -2.768  0.00  0.00    +0.010 A 
ATOM     29  C   UNL     1      -2.146  -7.469  -4.108  0.00  0.00    -0.014 A 
ATOM     30  C   UNL     1      -1.398  -8.411  -4.704  0.00  0.00    +0.087 A 
ATOM     31  N   UNL     1      -1.968  -9.642  -4.522  0.00  0.00    -0.360 N 
ATOM     32  H   UNL     1      -1.634 -10.634  -4.861  0.00  0.00    +0.165 HD
ENDBRANCH  22  29
ENDBRANCH  18  22
ENDBRANCH   1  20
TORSDOF 4
