REMARK  Name = ZINC39324422
REMARK  16 active torsions:
REMARK  status: ('A' for Active; 'I' for Inactive)
REMARK    1  A    between atoms: C_1  and  C_2
REMARK    2  A    between atoms: C_2  and  C_3
REMARK    3  A    between atoms: C_2  and  C_4
REMARK    4  A    between atoms: C_2  and  C_5
REMARK    5  A    between atoms: C_9  and  C_10
REMARK    6  A    between atoms: C_13  and  O_18
REMARK    7  A    between atoms: C_14  and  O_16
REMARK    8  A    between atoms: O_16  and  C_17
REMARK    9  A    between atoms: O_18  and  C_19
REMARK   10  A    between atoms: C_23  and  C_31
REMARK   11  A    between atoms: C_25  and  C_29
REMARK   12  A    between atoms: C_26  and  N_28
REMARK   13  A    between atoms: C_34  and  O_39
REMARK   14  A    between atoms: C_35  and  O_37
REMARK   15  A    between atoms: O_37  and  C_38
REMARK   16  A    between atoms: O_39  and  C_40
REMARK                            x       y       z     vdW  Elec       q    Type
REMARK                         _______ _______ _______ _____ _____    ______ ____
ROOT
ATOM      1  C   UNL     1       0.915  -0.610  -1.286  0.00  0.00    +0.003 C 
ATOM      2  C   UNL     1      -0.002  -0.155  -2.432  0.00  0.00    +0.043 C 
ATOM      3  C   UNL     1       0.703  -0.505  -3.724  0.00  0.00    -0.004 C 
ATOM      4  C   UNL     1       0.022  -1.021  -4.764  0.00  0.00    +0.015 C 
ATOM      5  C   UNL     1       2.157  -0.265  -3.814  0.00  0.00    +0.133 C 
ATOM      6  C   UNL     1       2.863   0.040  -2.726  0.00  0.00    -0.014 C 
ATOM      7  C   UNL     1       2.226   0.165  -1.365  0.00  0.00    +0.039 C 
ATOM      8  C   UNL     1       4.353   0.273  -2.826  0.00  0.00    +0.094 C 
ATOM      9  C   UNL     1       4.892  -0.307  -4.102  0.00  0.00    +0.098 C 
ATOM     10  C   UNL     1       4.060  -0.594  -5.136  0.00  0.00    +0.199 C 
ATOM     11  O   UNL     1       2.740  -0.367  -5.036  0.00  0.00    -0.441 OA
ENDROOT
BRANCH   4  12
ATOM     12  C   UNL     1      -1.448  -1.095  -4.718  0.00  0.00    -0.021 A 
ATOM     13  C   UNL     1      -2.178  -0.112  -4.043  0.00  0.00    +0.012 A 
ATOM     14  C   UNL     1      -3.554  -0.183  -4.002  0.00  0.00    +0.050 A 
ATOM     15  C   UNL     1      -4.218  -1.229  -4.628  0.00  0.00    +0.162 A 
ATOM     16  C   UNL     1      -3.497  -2.212  -5.302  0.00  0.00    +0.162 A 
ATOM     17  C   UNL     1      -2.117  -2.145  -5.353  0.00  0.00    +0.057 A 
BRANCH  16  18
ATOM     18  O   UNL     1      -4.151  -3.236  -5.914  0.00  0.00    -0.491 OA
ATOM     19  C   UNL     1      -3.348  -4.208  -6.586  0.00  0.00    +0.277 C 
ENDBRANCH  16  18
BRANCH  15  20
ATOM     20  O   UNL     1      -5.575  -1.294  -4.584  0.00  0.00    -0.491 OA
ATOM     21  C   UNL     1      -6.252  -0.253  -3.875  0.00  0.00    +0.277 C 
ENDBRANCH  15  20
ENDBRANCH   4  12
BRANCH   8  22
ATOM     22  C   UNL     1       4.628   1.755  -2.800  0.00  0.00    -0.031 A 
ATOM     23  C   UNL     1       4.086   2.574  -3.773  0.00  0.00    +0.008 A 
ATOM     24  C   UNL     1       4.335   3.934  -3.753  0.00  0.00    +0.050 A 
ATOM     25  C   UNL     1       5.128   4.478  -2.755  0.00  0.00    +0.162 A 
ATOM     26  C   UNL     1       5.672   3.654  -1.776  0.00  0.00    +0.162 A 
ATOM     27  C   UNL     1       5.415   2.292  -1.799  0.00  0.00    +0.054 A 
BRANCH  26  28
ATOM     28  O   UNL     1       6.451   4.183  -0.795  0.00  0.00    -0.491 OA
ATOM     29  C   UNL     1       6.976   3.277   0.178  0.00  0.00    +0.277 C 
ENDBRANCH  26  28
BRANCH  25  30
ATOM     30  O   UNL     1       5.374   5.816  -2.735  0.00  0.00    -0.491 OA
ATOM     31  C   UNL     1       4.783   6.600  -3.772  0.00  0.00    +0.277 C 
ENDBRANCH  25  30
ENDBRANCH   8  22
BRANCH   1  33
ATOM     32  C   UNL     1      -0.045   1.166   0.185  0.00  0.00    +0.011 C 
ATOM     33  C   UNL     1       0.235  -0.332   0.056  0.00  0.00    -0.034 C 
ATOM     34  C   UNL     1       1.153  -0.780   1.195  0.00  0.00    +0.011 C 
ATOM     35  C   UNL     1      -1.084  -1.105   0.129  0.00  0.00    +0.011 C 
ENDBRANCH   1  33
BRANCH  10  36
ATOM     36  N   UNL     1       4.573  -1.122  -6.294  0.00  0.00    -0.328 N 
ATOM     37  H   UNL     1       5.526  -1.289  -6.371  0.00  0.00    +0.145 HD
ATOM     38  H   UNL     1       3.983  -1.329  -7.036  0.00  0.00    +0.145 HD
ENDBRANCH  10  36
BRANCH   9  39
ATOM     39  C   UNL     1       6.295  -0.560  -4.230  0.00  0.00    +0.101 C 
ATOM     40  N   UNL     1       7.409  -0.760  -4.331  0.00  0.00    -0.191 NA
ENDBRANCH   9  39
TORSDOF 9
