REMARK  Name = ZINC15108089
REMARK  4 active torsions:
REMARK  status: ('A' for Active; 'I' for Inactive)
REMARK    1  A    between atoms: C_1  and  C_2
REMARK    2  A    between atoms: C_3  and  C_21
REMARK    3  A    between atoms: C_4  and  C_16
REMARK    4  A    between atoms: C_21  and  C_23
REMARK                            x       y       z     vdW  Elec       q    Type
REMARK                         _______ _______ _______ _____ _____    ______ ____
ROOT
ATOM      1  C   UNL     1      -0.198   1.498  -0.019  0.00  0.00    +0.061 C 
ATOM      2  C   UNL     1      -0.090  -0.005  -0.030  0.00  0.00    +0.016 C 
ATOM      3  C   UNL     1      -1.218  -0.738   0.027  0.00  0.00    +0.042 C 
ATOM      4  C   UNL     1      -1.224  -2.242   0.011  0.00  0.00    +0.191 C 
ATOM      5  N   UNL     1       0.134  -2.740   0.232  0.00  0.00    -0.298 N 
ATOM      6  C   UNL     1       0.563  -4.003   0.521  0.00  0.00    +0.069 A 
ATOM      7  C   UNL     1      -0.103  -5.208   0.710  0.00  0.00    +0.028 A 
ATOM      8  C   UNL     1       0.672  -6.320   0.997  0.00  0.00    +0.002 A 
ATOM      9  C   UNL     1       2.051  -6.248   1.095  0.00  0.00    +0.002 A 
ATOM     10  C   UNL     1       2.738  -5.061   0.912  0.00  0.00    +0.028 A 
ATOM     11  C   UNL     1       1.975  -3.924   0.622  0.00  0.00    +0.066 A 
ATOM     12  N   UNL     1       2.323  -2.642   0.396  0.00  0.00    -0.327 N 
ATOM     13  C   UNL     1       1.249  -1.935   0.168  0.00  0.00    +0.179 A 
ATOM     14  N   UNL     1       1.151  -0.577  -0.104  0.00  0.00    -0.290 N 
ATOM     15  H   UNL     1       1.933  -0.052  -0.334  0.00  0.00    +0.155 HD
ATOM     16  H   UNL     1       3.230  -2.298   0.401  0.00  0.00    +0.169 HD
ENDROOT
BRANCH   4  17
ATOM     17  C   UNL     1      -2.129  -2.752   1.103  0.00  0.00    +0.132 A 
ATOM     18  C   UNL     1      -3.165  -3.593   0.937  0.00  0.00    +0.047 A 
ATOM     19  C   UNL     1      -3.731  -3.804   2.216  0.00  0.00    +0.041 A 
ATOM     20  C   UNL     1      -3.006  -3.078   3.087  0.00  0.00    +0.195 A 
ATOM     21  O   UNL     1      -2.034  -2.447   2.408  0.00  0.00    -0.465 OA
ENDBRANCH   4  17
BRANCH   3  22
ATOM     22  C   UNL     1      -2.448  -0.066   0.106  0.00  0.00    +0.160 C 
ATOM     23  O   UNL     1      -2.722   0.585   1.095  0.00  0.00    -0.293 OA
ATOM     24  C   UNL     1      -3.427  -0.150  -1.036  0.00  0.00    +0.091 C 
ENDBRANCH   3  22
TORSDOF 2
