REMARK  Name = ZINC14464080
REMARK  5 active torsions:
REMARK  status: ('A' for Active; 'I' for Inactive)
REMARK    1  A    between atoms: C_4  and  C_7
REMARK    2  A    between atoms: C_7  and  N_8
REMARK    3  A    between atoms: N_8  and  S_9
REMARK    4  A    between atoms: S_9  and  C_12
REMARK    5  A    between atoms: C_25  and  C_28
REMARK                            x       y       z     vdW  Elec       q    Type
REMARK                         _______ _______ _______ _____ _____    ______ ____
ROOT
ATOM      1  C   UNL     1       0.928   9.969   2.023  0.00  0.00    +0.106 A 
ATOM      2  C   UNL     1       0.827  10.223   0.668  0.00  0.00    +0.030 A 
ATOM      3  C   UNL     1       0.112   9.360  -0.139  0.00  0.00    +0.025 A 
ATOM      4  C   UNL     1      -0.501   8.241   0.414  0.00  0.00    +0.031 A 
ATOM      5  C   UNL     1      -0.407   7.987   1.770  0.00  0.00    -0.018 A 
ATOM      6  C   UNL     1       0.316   8.860   2.572  0.00  0.00    +0.034 A 
ATOM      7  C   UNL     1      -1.056   6.797   2.426  0.00  0.00    +0.049 C 
ATOM      8  C   UNL     1      -2.031   7.327   3.469  0.00  0.00    -0.023 C 
ATOM      9  C   UNL     1      -3.244   7.373   2.978  0.00  0.00    -0.030 C 
ATOM     10  C   UNL     1      -3.256   6.880   1.542  0.00  0.00    +0.033 C 
ATOM     11  C   UNL     1      -1.971   6.022   1.462  0.00  0.00    +0.029 C 
ATOM     12  C   UNL     1      -1.422   5.996   0.047  0.00  0.00    +0.105 C 
ATOM     13  N   UNL     1      -1.212   7.371  -0.421  0.00  0.00    -0.336 N 
ATOM     14  H   UNL     1      -1.552   7.666  -1.280  0.00  0.00    +0.147 HD
ENDROOT
BRANCH  12  15
ATOM     15  C   UNL     1      -0.111   5.253   0.031  0.00  0.00    -0.019 A 
ATOM     16  C   UNL     1       1.063   5.940  -0.020  0.00  0.00    +0.006 A 
ATOM     17  C   UNL     1       2.285   5.270  -0.036  0.00  0.00    +0.001 A 
ATOM     18  C   UNL     1       2.340   3.910  -0.001  0.00  0.00    +0.008 A 
ATOM     19  C   UNL     1       1.148   3.168   0.052  0.00  0.00    -0.018 A 
ATOM     20  C   UNL     1      -0.095   3.849   0.068  0.00  0.00    -0.013 A 
ATOM     21  C   UNL     1      -1.287   3.106   0.121  0.00  0.00    +0.009 A 
ATOM     22  C   UNL     1      -1.232   1.747   0.149  0.00  0.00    +0.001 A 
ATOM     23  C   UNL     1      -0.010   1.077   0.139  0.00  0.00    +0.001 A 
ATOM     24  C   UNL     1       1.164   1.763   0.089  0.00  0.00    +0.008 A 
ENDBRANCH  12  15
BRANCH   1  25
ATOM     25  S   UNL     1       1.842  11.067   3.055  0.00  0.00    +0.059 S 
ATOM     26  O   UNL     1       1.863  12.324   2.394  0.00  0.00    -0.153 OA
ATOM     27  O   UNL     1       1.331  10.907   4.372  0.00  0.00    -0.153 OA
BRANCH  25  28
ATOM     28  N   UNL     1       3.405  10.522   3.086  0.00  0.00    -0.186 NA
ATOM     29  H   UNL     1       3.790  10.197   3.915  0.00  0.00    +0.148 HD
BRANCH  28  30
ATOM     30  C   UNL     1       4.208  10.531   1.860  0.00  0.00    +0.141 C 
BRANCH  30  34
ATOM     31  C   UNL     1       8.330  10.011   2.854  0.00  0.00    +0.000 A 
ATOM     32  C   UNL     1       7.536   8.908   2.602  0.00  0.00    +0.000 A 
ATOM     33  C   UNL     1       6.202   9.077   2.280  0.00  0.00    +0.005 A 
ATOM     34  C   UNL     1       5.662  10.348   2.211  0.00  0.00    -0.032 A 
ATOM     35  C   UNL     1       6.458  11.450   2.459  0.00  0.00    +0.005 A 
ATOM     36  C   UNL     1       7.791  11.282   2.785  0.00  0.00    +0.000 A 
ENDBRANCH  30  34
ENDBRANCH  28  30
ENDBRANCH  25  28
ENDBRANCH   1  25
TORSDOF 5
