REMARK  Name = ZINC10386538
REMARK  3 active torsions:
REMARK  status: ('A' for Active; 'I' for Inactive)
REMARK    1  A    between atoms: C_3  and  C_10
REMARK    2  A    between atoms: C_5  and  N_7
REMARK    3  A    between atoms: C_15  and  N_17
REMARK                            x       y       z     vdW  Elec       q    Type
REMARK                         _______ _______ _______ _____ _____    ______ ____
ROOT
ATOM      1  C   UNL     1       3.652   2.155  -0.022  0.00  0.00    +0.028 C 
ATOM      2  C   UNL     1       3.639   3.506  -0.117  0.00  0.00    +0.080 C 
ATOM      3  C   UNL     1       4.769   4.460  -0.251  0.00  0.00    +0.276 C 
ATOM      4  O   UNL     1       5.929   4.081  -0.291  0.00  0.00    -0.267 OA
ATOM      5  N   UNL     1       4.455   5.729  -0.323  0.00  0.00    -0.150 NA
ATOM      6  C   UNL     1       3.191   6.154  -0.280  0.00  0.00    +0.188 C 
ATOM      7  S   UNL     1       2.256   4.640  -0.125  0.00  0.00    -0.047 S 
ENDROOT
BRANCH   6   8
ATOM      8  N   UNL     1       2.735   7.408  -0.343  0.00  0.00    -0.200 NA
ATOM      9  C   UNL     1       3.588   8.421  -0.466  0.00  0.00    +0.173 A 
ATOM     10  N   UNL     1       4.947   8.378  -0.547  0.00  0.00    -0.340 N 
ATOM     11  C   UNL     1       5.634   9.546  -0.670  0.00  0.00    +0.092 A 
ATOM     12  C   UNL     1       4.920  10.677  -0.702  0.00  0.00    +0.066 A 
ATOM     13  S   UNL     1       3.251  10.066  -0.564  0.00  0.00    -0.058 S 
ATOM     14  H   UNL     1       5.417   7.530  -0.518  0.00  0.00    +0.167 HD
ENDBRANCH   6   8
BRANCH   1  17
ATOM     15  C   UNL     1       0.015   1.341  -0.436  0.00  0.00    +0.003 A 
ATOM     16  C   UNL     1       1.194   2.054  -0.391  0.00  0.00    +0.008 A 
ATOM     17  C   UNL     1       2.390   1.402  -0.071  0.00  0.00    -0.022 A 
ATOM     18  C   UNL     1       2.378   0.029   0.200  0.00  0.00    +0.040 A 
ATOM     19  C   UNL     1       1.191  -0.669   0.151  0.00  0.00    +0.127 A 
ATOM     20  C   UNL     1       0.012  -0.016  -0.166  0.00  0.00    +0.033 A 
BRANCH  19  21
ATOM     21  N   UNL     1       1.176  -2.121   0.438  0.00  0.00    +0.056 N 
ATOM     22  O   UNL     1       2.205  -2.693   0.714  0.00  0.00    -0.126 OA
ATOM     23  O   UNL     1       0.136  -2.735   0.395  0.00  0.00    -0.126 OA
ENDBRANCH  19  21
ENDBRANCH   1  17
TORSDOF 3
