REMARK  Name = ZINC30960731
REMARK  8 active torsions:
REMARK  status: ('A' for Active; 'I' for Inactive)
REMARK    1  A    between atoms: C_1  and  C_2
REMARK    2  A    between atoms: C_2  and  C_3
REMARK    3  A    between atoms: C_2  and  C_4
REMARK    4  A    between atoms: C_4  and  C_6
REMARK    5  A    between atoms: C_4  and  N_18
REMARK    6  A    between atoms: N_8  and  N_9
REMARK    7  A    between atoms: C_10  and  C_11
REMARK    8  A    between atoms: C_19  and  C_21
REMARK                            x       y       z     vdW  Elec       q    Type
REMARK                         _______ _______ _______ _____ _____    ______ ____
ROOT
ATOM      1  C   UNL     1       0.920   2.160   0.788  0.00  0.00    +0.163 C 
ENDROOT
BRANCH   1   2
ATOM      2  C   UNL     1      -0.438   1.593   0.463  0.00  0.00    +0.253 C 
ATOM      3  O   UNL     1      -0.540   0.682  -0.331  0.00  0.00    -0.272 OA
ATOM      4  N   UNL     1      -1.539   2.102   1.050  0.00  0.00    -0.205 N 
ATOM      5  H   UNL     1      -1.453   2.970   1.721  0.00  0.00    +0.177 HD
BRANCH   4   6
ATOM      6  N   UNL     1      -2.792   1.526   0.806  0.00  0.00    -0.188 NA
ATOM      7  C   UNL     1      -3.866   2.091   1.265  0.00  0.00    +0.138 C 
BRANCH   7   8
ATOM      8  C   UNL     1      -3.854   3.524   1.615  0.00  0.00    -0.005 A 
ATOM      9  C   UNL     1      -2.751   4.317   1.288  0.00  0.00    +0.010 A 
ATOM     10  C   UNL     1      -2.748   5.657   1.614  0.00  0.00    +0.016 A 
ATOM     11  C   UNL     1      -3.830   6.214   2.274  0.00  0.00    +0.018 A 
ATOM     12  C   UNL     1      -4.924   5.433   2.606  0.00  0.00    +0.016 A 
ATOM     13  C   UNL     1      -4.942   4.093   2.281  0.00  0.00    +0.010 A 
ATOM     14 BR   UNL     1      -3.814   8.051   2.723  0.00  0.00    -0.050 Br
ENDBRANCH   7   8
ENDBRANCH   4   6
ENDBRANCH   1   2
BRANCH   1  15
ATOM     15  N   UNL     1       1.913   1.083   0.784  0.00  0.00    -0.300 N 
ATOM     16  C   UNL     1       3.045   1.207   1.506  0.00  0.00    +0.246 C 
ATOM     17  O   UNL     1       3.241   2.212   2.160  0.00  0.00    -0.270 OA
ATOM     18  H   UNL     1       1.735   0.173   0.193  0.00  0.00    +0.150 HD
BRANCH  16  19
ATOM     19  C   UNL     1       4.046   0.121   1.502  0.00  0.00    +0.055 A 
ATOM     20  C   UNL     1       3.822  -1.036   0.752  0.00  0.00    +0.016 A 
ATOM     21  C   UNL     1       4.760  -2.046   0.752  0.00  0.00    +0.021 A 
ATOM     22  C   UNL     1       5.923  -1.917   1.495  0.00  0.00    +0.042 A 
ATOM     23  C   UNL     1       6.151  -0.774   2.241  0.00  0.00    +0.040 A 
ATOM     24  C   UNL     1       5.223   0.248   2.245  0.00  0.00    +0.054 A 
ATOM     25 CL   UNL     1       5.513   1.685   3.175  0.00  0.00    -0.083 Cl
ATOM     26 CL   UNL     1       7.098  -3.194   1.490  0.00  0.00    -0.083 Cl
ENDBRANCH  16  19
ENDBRANCH   1  15
BRANCH   1  28
ATOM     27  C   UNL     1       0.289   4.355  -0.225  0.00  0.00    +0.009 C 
ATOM     28  C   UNL     1       1.300   3.208  -0.260  0.00  0.00    +0.012 C 
ATOM     29  C   UNL     1       2.698   3.750   0.044  0.00  0.00    +0.009 C 
ENDBRANCH   1  28
TORSDOF 6
