REMARK  Name = ZINC51885474
REMARK  4 active torsions:
REMARK  status: ('A' for Active; 'I' for Inactive)
REMARK    1  A    between atoms: C_4  and  N_6
REMARK    2  A    between atoms: C_8  and  C_13
REMARK    3  A    between atoms: C_18  and  C_21
REMARK    4  A    between atoms: C_21  and  O_22
REMARK                            x       y       z     vdW  Elec       q    Type
REMARK                         _______ _______ _______ _____ _____    ______ ____
ROOT
ATOM      1  N   UNL     1       1.136  -1.207  -1.821  0.00  0.00    -0.298 N 
ATOM      2  C   UNL     1       1.642  -2.569  -2.030  0.00  0.00    +0.121 C 
ATOM      3  C   UNL     1       0.826  -3.135  -3.214  0.00  0.00    +0.101 C 
ATOM      4  C   UNL     1       0.415  -1.843  -3.959  0.00  0.00    +0.110 C 
ATOM      5  C   UNL     1       0.443  -0.774  -2.889  0.00  0.00    +0.217 C 
ATOM      6  O   UNL     1      -0.081   0.315  -2.982  0.00  0.00    -0.276 OA
ENDROOT
BRANCH   3   7
ATOM      7  C   UNL     1      -0.386  -3.885  -2.724  0.00  0.00    +0.221 C 
ATOM      8  O   UNL     1      -0.603  -3.975  -1.534  0.00  0.00    -0.275 OA
ATOM      9  N   UNL     1      -1.228  -4.455  -3.608  0.00  0.00    -0.301 N 
ATOM     10  C   UNL     1      -1.082  -4.429  -5.071  0.00  0.00    +0.108 C 
ATOM     11  C   UNL     1      -2.288  -5.185  -5.665  0.00  0.00    +0.026 C 
ATOM     12  C   UNL     1      -3.342  -5.107  -4.529  0.00  0.00    +0.033 C 
ATOM     13  C   UNL     1      -2.445  -5.215  -3.268  0.00  0.00    +0.113 C 
BRANCH  12  14
ATOM     14  C   UNL     1      -4.320  -6.281  -4.606  0.00  0.00    +0.161 C 
BRANCH  14  15
ATOM     15  O   UNL     1      -5.105  -6.169  -5.795  0.00  0.00    -0.395 OA
ATOM     16  H   UNL     1      -5.749  -6.881  -5.910  0.00  0.00    +0.209 HD
ENDBRANCH  14  15
ENDBRANCH  12  14
ENDBRANCH   3   7
BRANCH   1  20
ATOM     17  C   UNL     1      -0.019   1.538   0.011  0.00  0.00    +0.002 C 
ATOM     18  C   UNL     1       1.477   1.939  -0.002  0.00  0.00    +0.002 C 
ATOM     19  C   UNL     1       2.107   0.881  -0.942  0.00  0.00    +0.022 C 
ATOM     20  C   UNL     1       1.353  -0.422  -0.604  0.00  0.00    +0.076 C 
ATOM     21  C   UNL     1       0.002  -0.004   0.002  0.00  0.00    +0.022 C 
ENDBRANCH   1  20
TORSDOF 4
