REMARK  Name = ZINC14456926
REMARK  9 active torsions:
REMARK  status: ('A' for Active; 'I' for Inactive)
REMARK    1  A    between atoms: C_1  and  O_2
REMARK    2  A    between atoms: O_2  and  C_3
REMARK    3  A    between atoms: C_6  and  N_9
REMARK    4  A    between atoms: N_9  and  S_10
REMARK    5  A    between atoms: S_10  and  C_13
REMARK    6  A    between atoms: C_26  and  C_29
REMARK    7  A    between atoms: C_32  and  O_36
REMARK    8  A    between atoms: C_33  and  O_35
REMARK    9  A    between atoms: O_36  and  C_37
REMARK                            x       y       z     vdW  Elec       q    Type
REMARK                         _______ _______ _______ _____ _____    ______ ____
ROOT
ATOM      1  C   UNL     1      -2.606  -0.068   0.571  0.00  0.00    +0.109 A 
ATOM      2  C   UNL     1      -3.143  -1.016  -0.281  0.00  0.00    +0.030 A 
ATOM      3  C   UNL     1      -4.407  -0.829  -0.802  0.00  0.00    +0.025 A 
ATOM      4  C   UNL     1      -5.136   0.306  -0.469  0.00  0.00    +0.031 A 
ATOM      5  C   UNL     1      -4.601   1.260   0.383  0.00  0.00    -0.018 A 
ATOM      6  C   UNL     1      -3.331   1.058   0.905  0.00  0.00    +0.034 A 
ATOM      7  C   UNL     1      -5.347   2.498   0.766  0.00  0.00    +0.049 C 
ATOM      8  C   UNL     1      -5.875   2.410   2.178  0.00  0.00    -0.023 C 
ATOM      9  C   UNL     1      -7.046   2.995   2.262  0.00  0.00    -0.030 C 
ATOM     10  C   UNL     1      -7.455   3.559   0.915  0.00  0.00    +0.033 C 
ATOM     11  C   UNL     1      -6.602   2.736  -0.095  0.00  0.00    +0.029 C 
ATOM     12  C   UNL     1      -7.320   1.407  -0.348  0.00  0.00    +0.105 C 
ATOM     13  N   UNL     1      -6.418   0.478  -1.002  0.00  0.00    -0.336 N 
ATOM     14  H   UNL     1      -6.696  -0.006  -1.795  0.00  0.00    +0.147 HD
ENDROOT
BRANCH  12  15
ATOM     15  C   UNL     1      -7.753   0.809   0.966  0.00  0.00    -0.023 A 
ATOM     16  C   UNL     1      -6.904  -0.041   1.650  0.00  0.00    +0.009 A 
ATOM     17  C   UNL     1      -7.294  -0.588   2.858  0.00  0.00    +0.050 A 
ATOM     18  C   UNL     1      -8.543  -0.293   3.381  0.00  0.00    +0.161 A 
ATOM     19  C   UNL     1      -9.400   0.558   2.690  0.00  0.00    +0.159 A 
ATOM     20  C   UNL     1      -9.000   1.107   1.482  0.00  0.00    +0.054 A 
BRANCH  19  21
ATOM     21  O   UNL     1     -10.626   0.850   3.199  0.00  0.00    -0.503 OA
ATOM     22  H   UNL     1     -11.324   0.242   2.918  0.00  0.00    +0.292 HD
ENDBRANCH  19  21
BRANCH  18  23
ATOM     23  O   UNL     1      -8.930  -0.835   4.567  0.00  0.00    -0.491 OA
ATOM     24  C   UNL     1      -7.999  -1.700   5.220  0.00  0.00    +0.277 C 
ENDBRANCH  18  23
ENDBRANCH  12  15
BRANCH   1  25
ATOM     25  S   UNL     1      -0.992  -0.302   1.238  0.00  0.00    +0.072 S 
ATOM     26  O   UNL     1      -0.690  -1.683   1.096  0.00  0.00    -0.150 OA
ATOM     27  O   UNL     1      -0.974   0.356   2.498  0.00  0.00    -0.150 OA
BRANCH  25  28
ATOM     28  N   UNL     1       0.065   0.517   0.262  0.00  0.00    -0.216 N 
ATOM     29  H   UNL     1       0.594   1.246   0.623  0.00  0.00    +0.174 HD
BRANCH  28  33
ATOM     30  C   UNL     1       0.456  -0.552  -3.748  0.00  0.00    +0.120 A 
ATOM     31  C   UNL     1       0.330   0.783  -3.396  0.00  0.00    +0.047 A 
ATOM     32  C   UNL     1       0.201   1.139  -2.067  0.00  0.00    +0.028 A 
ATOM     33  C   UNL     1       0.196   0.158  -1.084  0.00  0.00    +0.048 A 
ATOM     34  C   UNL     1       0.327  -1.179  -1.437  0.00  0.00    +0.028 A 
ATOM     35  C   UNL     1       0.452  -1.532  -2.766  0.00  0.00    +0.047 A 
BRANCH  30  37
ATOM     36  C   UNL     1       0.708  -2.295  -5.347  0.00  0.00    +0.277 C 
ATOM     37  O   UNL     1       0.583  -0.901  -5.056  0.00  0.00    -0.495 OA
ENDBRANCH  30  37
ENDBRANCH  28  33
ENDBRANCH  25  28
ENDBRANCH   1  25
TORSDOF 7
