REMARK  Name = ZINC13065211
REMARK  12 active torsions:
REMARK  status: ('A' for Active; 'I' for Inactive)
REMARK    1  A    between atoms: C_1  and  C_2
REMARK    2  A    between atoms: C_2  and  C_3
REMARK    3  A    between atoms: C_3  and  C_5
REMARK    4  A    between atoms: C_3  and  N_75
REMARK    5  A    between atoms: N_9  and  C_10
REMARK    6  A    between atoms: C_16  and  C_17
REMARK    7  A    between atoms: C_16  and  N_75
REMARK    8  A    between atoms: C_17  and  C_18
REMARK    9  A    between atoms: C_24  and  C_25
REMARK   10  A    between atoms: C_24  and  N_75
REMARK   11  A    between atoms: C_28  and  C_38
REMARK   12  A    between atoms: C_31  and  C_37
REMARK                            x       y       z     vdW  Elec       q    Type
REMARK                         _______ _______ _______ _____ _____    ______ ____
ROOT
ATOM      1  N   UNL     1      -0.234  -0.049  -2.547  0.00  0.00    +0.389 N 
ATOM      2  H   UNL     1      -0.064  -0.414  -3.491  0.00  0.00    -0.080 HD
ENDROOT
BRANCH   1   3
ATOM      3  C   UNL     1       0.523  -0.865  -1.574  0.00  0.00    +0.003 C 
BRANCH   3   4
ATOM      4  C   UNL     1       0.468  -2.307  -2.009  0.00  0.00    +0.138 A 
ATOM      5  N   UNL     1      -0.595  -2.965  -2.405  0.00  0.00    -0.115 NA
ATOM      6  N   UNL     1      -0.233  -4.168  -2.692  0.00  0.00    -0.023 NA
ATOM      7  N   UNL     1       1.030  -4.297  -2.482  0.00  0.00    -0.044 NA
ATOM      8  N   UNL     1       1.498  -3.171  -2.059  0.00  0.00    -0.228 N 
BRANCH   8   9
ATOM      9  C   UNL     1       2.890  -2.887  -1.702  0.00  0.00    +0.111 C 
ATOM     10  C   UNL     1       3.787  -3.122  -2.920  0.00  0.00    +0.027 C 
ATOM     11  C   UNL     1       5.241  -2.825  -2.547  0.00  0.00    +0.002 C 
ATOM     12  C   UNL     1       5.675  -3.750  -1.408  0.00  0.00    +0.000 C 
ATOM     13  C   UNL     1       4.778  -3.515  -0.191  0.00  0.00    +0.002 C 
ATOM     14  C   UNL     1       3.324  -3.812  -0.564  0.00  0.00    +0.027 C 
ENDBRANCH   8   9
ENDBRANCH   3   4
BRANCH   3  16
ATOM     15  C   UNL     1       0.020   0.724   0.287  0.00  0.00    +0.002 C 
ATOM     16  C   UNL     1      -0.084  -0.730  -0.176  0.00  0.00    -0.011 C 
ENDBRANCH   3  16
ENDBRANCH   1   3
BRANCH   1  17
ATOM     17  C   UNL     1      -1.681  -0.128  -2.254  0.00  0.00    -0.073 C 
BRANCH  17  18
ATOM     18  C   UNL     1      -2.456   0.378  -3.473  0.00  0.00    +0.016 C 
BRANCH  18  19
ATOM     19  C   UNL     1      -3.934   0.324  -3.185  0.00  0.00    -0.049 A 
ATOM     20  C   UNL     1      -4.638  -0.846  -3.400  0.00  0.00    +0.003 A 
ATOM     21  C   UNL     1      -5.993  -0.897  -3.131  0.00  0.00    +0.000 A 
ATOM     22  C   UNL     1      -6.647   0.225  -2.658  0.00  0.00    +0.000 A 
ATOM     23  C   UNL     1      -5.944   1.397  -2.448  0.00  0.00    +0.000 A 
ATOM     24  C   UNL     1      -4.588   1.446  -2.711  0.00  0.00    +0.003 A 
ENDBRANCH  18  19
ENDBRANCH  17  18
ENDBRANCH   1  17
BRANCH   1  25
ATOM     25  C   UNL     1       0.218   1.357  -2.486  0.00  0.00    -0.037 C 
BRANCH  25  26
ATOM     26  C   UNL     1       1.509   1.482  -3.253  0.00  0.00    +0.001 A 
ATOM     27  C   UNL     1       1.485   1.816  -4.567  0.00  0.00    +0.017 A 
ATOM     28  C   UNL     1       2.757   1.934  -5.282  0.00  0.00    +0.002 A 
ATOM     29  C   UNL     1       2.796   2.281  -6.637  0.00  0.00    -0.041 A 
ATOM     30  C   UNL     1       3.999   2.378  -7.276  0.00  0.00    +0.004 A 
ATOM     31  C   UNL     1       5.184   2.136  -6.594  0.00  0.00    +0.005 A 
ATOM     32  C   UNL     1       5.169   1.792  -5.260  0.00  0.00    -0.026 A 
ATOM     33  C   UNL     1       3.956   1.687  -4.587  0.00  0.00    +0.052 A 
ATOM     34  N   UNL     1       3.912   1.345  -3.252  0.00  0.00    -0.322 N 
ATOM     35  H   UNL     1       4.739   1.176  -2.775  0.00  0.00    +0.169 HD
ATOM     36  C   UNL     1       2.739   1.244  -2.603  0.00  0.00    +0.251 A 
ATOM     37  O   UNL     1       2.738   0.940  -1.423  0.00  0.00    -0.268 OA
ATOM     38  C   UNL     1       6.463   1.531  -4.532  0.00  0.00    +0.046 C 
ATOM     39  C   UNL     1       1.517   2.547  -7.387  0.00  0.00    +0.044 C 
ENDBRANCH  25  26
ENDBRANCH   1  25
TORSDOF 9
