REMARK  Name = ZINC39444239
REMARK  7 active torsions:
REMARK  status: ('A' for Active; 'I' for Inactive)
REMARK    1  A    between atoms: C_3  and  N_14
REMARK    2  A    between atoms: C_6  and  C_7
REMARK    3  A    between atoms: C_7  and  N_8
REMARK    4  A    between atoms: C_15  and  C_17
REMARK    5  A    between atoms: C_17  and  O_18
REMARK    6  A    between atoms: O_18  and  C_19
REMARK    7  A    between atoms: C_19  and  C_21
REMARK                            x       y       z     vdW  Elec       q    Type
REMARK                         _______ _______ _______ _____ _____    ______ ____
ROOT
ATOM      1  C   UNL     1       6.047   2.241   0.171  0.00  0.00    +0.328 C 
ENDROOT
BRANCH   1   3
ATOM      2  N   UNL     1       3.584   2.123  -0.021  0.00  0.00    -0.283 N 
ATOM      3  C   UNL     1       4.758   1.467   0.066  0.00  0.00    +0.255 C 
ATOM      4  O   UNL     1       4.777   0.255   0.060  0.00  0.00    -0.272 OA
ATOM      5  H   UNL     1       3.573   3.091  -0.093  0.00  0.00    +0.155 HD
BRANCH   2   8
ATOM      6  C   UNL     1       1.084  -0.460   0.750  0.00  0.00    +0.007 A 
ATOM      7  C   UNL     1       2.273   0.242   0.738  0.00  0.00    +0.023 A 
ATOM      8  C   UNL     1       2.381   1.409  -0.007  0.00  0.00    +0.034 A 
ATOM      9  C   UNL     1       1.292   1.866  -0.738  0.00  0.00    +0.023 A 
ATOM     10  C   UNL     1       0.105   1.159  -0.722  0.00  0.00    +0.007 A 
ATOM     11  C   UNL     1       0.001  -0.002   0.021  0.00  0.00    -0.033 A 
BRANCH  11  12
ATOM     12  C   UNL     1      -1.295  -0.771   0.036  0.00  0.00    +0.119 C 
BRANCH  12  13
ATOM     13  N   UNL     1      -2.140  -0.284   1.134  0.00  0.00    -0.294 NA
ATOM     14  C   UNL     1      -1.540  -0.596   2.440  0.00  0.00    +0.113 C 
ATOM     15  C   UNL     1      -2.421  -0.020   3.551  0.00  0.00    +0.175 C 
ATOM     16  O   UNL     1      -3.745  -0.545   3.424  0.00  0.00    -0.377 OA
ATOM     17  C   UNL     1      -4.360  -0.259   2.165  0.00  0.00    +0.175 C 
ATOM     18  C   UNL     1      -3.499  -0.838   1.039  0.00  0.00    +0.113 C 
ENDBRANCH  12  13
ENDBRANCH  11  12
ENDBRANCH   2   8
ENDBRANCH   1   3
BRANCH   1  19
ATOM     19  O   UNL     1       7.144   1.329   0.250  0.00  0.00    -0.452 OA
BRANCH  19  20
ATOM     20  C   UNL     1       8.378   1.863   0.349  0.00  0.00    +0.340 C 
ATOM     21  O   UNL     1       8.518   3.070   0.368  0.00  0.00    -0.245 OA
BRANCH  20  22
ATOM     22  C   UNL     1       9.557   0.983   0.435  0.00  0.00    +0.060 A 
ATOM     23  C   UNL     1       9.373  -0.464   0.406  0.00  0.00    +0.017 A 
ATOM     24  C   UNL     1      10.427  -1.302   0.478  0.00  0.00    +0.027 A 
ATOM     25  C   UNL     1      11.785  -0.760   0.588  0.00  0.00    +0.043 A 
ATOM     26  N   UNL     1      12.948  -1.361   0.691  0.00  0.00    -0.378 N 
ATOM     27  C   UNL     1      13.998  -0.347   0.690  0.00  0.00    +0.106 C 
ATOM     28  C   UNL     1      14.892  -0.434   1.930  0.00  0.00    +0.029 C 
ATOM     29  C   UNL     1      15.765   0.823   1.988  0.00  0.00    +0.003 C 
ATOM     30  C   UNL     1      14.917   2.075   2.205  0.00  0.00    +0.004 C 
ATOM     31  C   UNL     1      13.984   2.292   1.002  0.00  0.00    +0.033 C 
ATOM     32  C   UNL     1      13.271   0.986   0.742  0.00  0.00    -0.038 C 
ATOM     33  C   UNL     1      11.959   0.713   0.625  0.00  0.00    -0.000 A 
ATOM     34  C   UNL     1      10.810   1.542   0.536  0.00  0.00    +0.025 A 
ATOM     35  H   UNL     1      13.087  -2.319   0.757  0.00  0.00    +0.160 HD
ENDBRANCH  20  22
ENDBRANCH  19  20
ENDBRANCH   1  19
TORSDOF 7
