REMARK  Name = ZINC22762099
REMARK  8 active torsions:
REMARK  status: ('A' for Active; 'I' for Inactive)
REMARK    1  A    between atoms: C_1  and  C_2
REMARK    2  A    between atoms: C_5  and  N_9
REMARK    3  A    between atoms: C_6  and  C_8
REMARK    4  A    between atoms: C_13  and  C_15
REMARK    5  A    between atoms: C_15  and  C_17
REMARK    6  A    between atoms: C_15  and  S_18
REMARK    7  A    between atoms: S_18  and  C_19
REMARK    8  A    between atoms: C_33  and  C_36
REMARK                            x       y       z     vdW  Elec       q    Type
REMARK                         _______ _______ _______ _____ _____    ______ ____
ROOT
ATOM      1  S   UNL     1       0.355  -8.999  -3.913  0.00  0.00    -0.077 S 
ENDROOT
BRANCH   1   2
ATOM      2  C   UNL     1       0.286 -10.749  -3.717  0.00  0.00    +0.170 C 
ATOM      3  N   UNL     1      -0.134 -11.231  -2.567  0.00  0.00    -0.225 NA
ATOM      4  C   UNL     1      -0.212 -12.556  -2.349  0.00  0.00    +0.079 A 
ATOM      5  C   UNL     1      -0.658 -13.079  -1.130  0.00  0.00    +0.028 A 
ATOM      6  C   UNL     1      -0.720 -14.432  -0.959  0.00  0.00    +0.002 A 
ATOM      7  C   UNL     1      -0.346 -15.300  -1.978  0.00  0.00    +0.001 A 
ATOM      8  C   UNL     1       0.094 -14.820  -3.180  0.00  0.00    +0.015 A 
ATOM      9  C   UNL     1       0.167 -13.443  -3.383  0.00  0.00    +0.063 A 
ATOM     10  C   UNL     1       0.630 -12.864  -4.652  0.00  0.00    +0.260 C 
ATOM     11  O   UNL     1       0.971 -13.574  -5.585  0.00  0.00    -0.269 OA
ATOM     12  N   UNL     1       0.658 -11.519  -4.749  0.00  0.00    -0.200 N 
ATOM     13  C   UNL     1       1.074 -10.938  -5.905  0.00  0.00    +0.111 A 
ATOM     14  C   UNL     1       1.774  -9.731  -5.867  0.00  0.00    +0.043 A 
ATOM     15  C   UNL     1       2.188  -9.156  -7.052  0.00  0.00    +0.008 A 
ATOM     16  C   UNL     1       1.896  -9.797  -8.258  0.00  0.00    -0.034 A 
ATOM     17  C   UNL     1       1.213 -10.971  -8.254  0.00  0.00    +0.087 A 
ATOM     18  N   UNL     1       0.814 -11.534  -7.098  0.00  0.00    -0.349 N 
ATOM     19  C   UNL     1       2.339  -9.187  -9.563  0.00  0.00    +0.045 C 
ATOM     20  H   UNL     1       0.331 -12.375  -7.117  0.00  0.00    +0.167 HD
ENDBRANCH   1   2
BRANCH   1  21
ATOM     21  C   UNL     1      -0.220  -8.355  -2.318  0.00  0.00    +0.137 C 
ATOM     22  C   UNL     1      -1.684  -8.745  -2.108  0.00  0.00    +0.029 C 
BRANCH  21  27
ATOM     23  N   UNL     1       0.275  -4.197   0.043  0.00  0.00    -0.269 N 
ATOM     24  C   UNL     1       0.148  -4.854  -1.127  0.00  0.00    +0.310 C 
ATOM     25  O   UNL     1       0.136  -4.235  -2.173  0.00  0.00    -0.252 OA
ATOM     26  N   UNL     1       0.034  -6.197  -1.137  0.00  0.00    -0.239 N 
ATOM     27  C   UNL     1      -0.093  -6.854  -2.307  0.00  0.00    +0.234 C 
ATOM     28  O   UNL     1      -0.104  -6.237  -3.350  0.00  0.00    -0.274 OA
ATOM     29  H   UNL     1       0.353  -4.694   0.872  0.00  0.00    +0.156 HD
ATOM     30  H   UNL     1       0.044  -6.691  -0.302  0.00  0.00    +0.159 HD
BRANCH  23  35
ATOM     31  C   UNL     1       0.344   1.475   0.117  0.00  0.00    +0.044 C 
ATOM     32  C   UNL     1       0.326  -0.031   0.097  0.00  0.00    -0.050 A 
ATOM     33  C   UNL     1       0.900  -0.715  -0.959  0.00  0.00    +0.005 A 
ATOM     34  C   UNL     1       0.884  -2.096  -0.980  0.00  0.00    +0.024 A 
ATOM     35  C   UNL     1       0.292  -2.798   0.062  0.00  0.00    +0.038 A 
ATOM     36  C   UNL     1      -0.283  -2.109   1.121  0.00  0.00    -0.029 A 
ATOM     37  C   UNL     1      -0.260  -0.728   1.138  0.00  0.00    +0.008 A 
ATOM     38  C   UNL     1      -0.927  -2.867   2.253  0.00  0.00    +0.045 C 
ENDBRANCH  23  35
ENDBRANCH  21  27
ENDBRANCH   1  21
TORSDOF 4
