REMARK  Name = ZINC21627525
REMARK  9 active torsions:
REMARK  status: ('A' for Active; 'I' for Inactive)
REMARK    1  A    between atoms: C_1  and  C_2
REMARK    2  A    between atoms: C_5  and  C_8
REMARK    3  A    between atoms: C_8  and  C_10
REMARK    4  A    between atoms: C_8  and  N_13
REMARK    5  A    between atoms: C_14  and  C_16
REMARK    6  A    between atoms: C_16  and  N_17
REMARK    7  A    between atoms: C_20  and  C_24
REMARK    8  A    between atoms: C_20  and  C_25
REMARK    9  A    between atoms: C_28  and  C_31
REMARK                            x       y       z     vdW  Elec       q    Type
REMARK                         _______ _______ _______ _____ _____    ______ ____
ROOT
ATOM      1  N   UNL     1       2.950  -7.803   1.647  0.00  0.00    -0.215 N 
ATOM      2  C   UNL     1       2.334  -8.951   1.992  0.00  0.00    +0.251 C 
ATOM      3  O   UNL     1       1.309  -9.070   2.628  0.00  0.00    -0.272 OA
ATOM      4  C   UNL     1       3.190 -10.063   1.419  0.00  0.00    +0.135 C 
ATOM      5  N   UNL     1       4.292  -9.346   0.755  0.00  0.00    -0.281 N 
ATOM      6  C   UNL     1       4.061  -8.033   0.938  0.00  0.00    +0.310 C 
ATOM      7  O   UNL     1       4.784  -7.154   0.511  0.00  0.00    -0.252 OA
ATOM      8  C   UNL     1       2.394 -10.886   0.403  0.00  0.00    +0.047 C 
ATOM      9  H   UNL     1       5.036  -9.742   0.276  0.00  0.00    +0.152 HD
ENDROOT
BRANCH   4  10
ATOM     10  C   UNL     1       3.719 -10.946   2.519  0.00  0.00    -0.015 A 
ATOM     11  C   UNL     1       2.984 -11.118   3.678  0.00  0.00    +0.007 A 
ATOM     12  C   UNL     1       3.462 -11.925   4.690  0.00  0.00    +0.019 A 
ATOM     13  C   UNL     1       4.692 -12.569   4.541  0.00  0.00    +0.052 A 
ATOM     14  C   UNL     1       5.429 -12.392   3.369  0.00  0.00    +0.019 A 
ATOM     15  C   UNL     1       4.936 -11.586   2.363  0.00  0.00    +0.007 A 
BRANCH  13  16
ATOM     16  C   UNL     1       5.196 -13.408   5.587  0.00  0.00    +0.099 C 
ATOM     17  N   UNL     1       5.595 -14.073   6.417  0.00  0.00    -0.191 NA
ENDBRANCH  13  16
ENDBRANCH   4  10
BRANCH   1  18
ATOM     18  C   UNL     1       2.460  -6.468   1.999  0.00  0.00    +0.213 C 
BRANCH  18  20
ATOM     19  N   UNL     1       0.959  -4.758   1.029  0.00  0.00    -0.307 N 
ATOM     20  C   UNL     1       1.534  -5.972   0.919  0.00  0.00    +0.231 C 
ATOM     21  O   UNL     1       1.306  -6.665  -0.050  0.00  0.00    -0.274 OA
ATOM     22  H   UNL     1       1.142  -4.204   1.804  0.00  0.00    +0.149 HD
BRANCH  19  23
ATOM     23  C   UNL     1       0.059  -4.275  -0.021  0.00  0.00    +0.106 C 
BRANCH  23  28
ATOM     24  C   UNL     1      -0.018   1.503   0.010  0.00  0.00    +0.044 C 
ATOM     25  C   UNL     1       0.002  -0.004   0.002  0.00  0.00    -0.050 A 
ATOM     26  C   UNL     1       0.006  -0.689  -1.199  0.00  0.00    +0.004 A 
ATOM     27  C   UNL     1       0.025  -2.071  -1.206  0.00  0.00    +0.006 A 
ATOM     28  C   UNL     1       0.040  -2.768  -0.013  0.00  0.00    -0.027 A 
ATOM     29  C   UNL     1       0.037  -2.084   1.188  0.00  0.00    +0.006 A 
ATOM     30  C   UNL     1       0.023  -0.702   1.195  0.00  0.00    +0.004 A 
ENDBRANCH  23  28
BRANCH  23  31
ATOM     31  C   UNL     1      -1.353  -4.805   0.234  0.00  0.00    +0.014 C 
ATOM     32  C   UNL     1      -1.611  -5.518   1.563  0.00  0.00    +0.006 C 
ATOM     33  C   UNL     1      -1.544  -6.323   0.264  0.00  0.00    +0.006 C 
ENDBRANCH  23  31
ENDBRANCH  19  23
ENDBRANCH  18  20
ENDBRANCH   1  18
TORSDOF 7
