REMARK  Name = ZINC20210202
REMARK  8 active torsions:
REMARK  status: ('A' for Active; 'I' for Inactive)
REMARK    1  A    between atoms: C_1  and  O_2
REMARK    2  A    between atoms: O_2  and  C_3
REMARK    3  A    between atoms: C_8  and  C_9
REMARK    4  A    between atoms: C_9  and  N_10
REMARK    5  A    between atoms: C_16  and  C_18
REMARK    6  A    between atoms: C_18  and  C_19
REMARK    7  A    between atoms: N_21  and  C_22
REMARK    8  A    between atoms: C_22  and  C_23
REMARK                            x       y       z     vdW  Elec       q    Type
REMARK                         _______ _______ _______ _____ _____    ______ ____
ROOT
ATOM      1  N   UNL     1      -3.766   2.607   1.143  0.00  0.00    +0.391 N 
ATOM      2  C   UNL     1      -5.055   3.315   1.219  0.00  0.00    -0.058 C 
ATOM      3  C   UNL     1      -6.159   2.296   1.506  0.00  0.00    +0.085 C 
ATOM      4  N   UNL     1      -6.064   1.178   0.571  0.00  0.00    -0.318 N 
ATOM      5  C   UNL     1      -4.959   0.913  -0.135  0.00  0.00    +0.200 C 
ATOM      6  O   UNL     1      -4.955  -0.054  -0.867  0.00  0.00    -0.278 OA
ATOM      7  C   UNL     1      -3.723   1.763  -0.059  0.00  0.00    +0.028 C 
ATOM      8  H   UNL     1      -6.925   0.510   0.422  0.00  0.00    +0.149 HD
ATOM      9  H   UNL     1      -3.669   1.959   2.026  0.00  0.00    -0.080 HD
ENDROOT
BRANCH   1  10
ATOM     10  C   UNL     1      -2.643   3.554   1.162  0.00  0.00    -0.038 C 
BRANCH  10  16
ATOM     11  C   UNL     1      -1.882   3.426   3.548  0.00  0.00    +0.121 A 
ATOM     12  C   UNL     1      -1.755   3.976   4.815  0.00  0.00    +0.046 A 
ATOM     13  C   UNL     1      -2.265   5.233   5.076  0.00  0.00    +0.004 A 
ATOM     14  C   UNL     1      -2.895   5.946   4.072  0.00  0.00    +0.000 A 
ATOM     15  C   UNL     1      -3.017   5.403   2.807  0.00  0.00    +0.005 A 
ATOM     16  C   UNL     1      -2.509   4.146   2.542  0.00  0.00    -0.022 A 
BRANCH  11  18
ATOM     17  C   UNL     1      -0.753   1.504   4.374  0.00  0.00    +0.277 C 
ATOM     18  O   UNL     1      -1.387   2.187   3.291  0.00  0.00    -0.495 OA
ENDBRANCH  11  18
ENDBRANCH  10  16
ENDBRANCH   1  10
BRANCH   7  19
ATOM     19  C   UNL     1      -2.489   0.861  -0.001  0.00  0.00    +0.089 C 
BRANCH  19  20
ATOM     20  C   UNL     1      -2.569  -0.023   1.217  0.00  0.00    +0.212 C 
ATOM     21  O   UNL     1      -3.461   0.136   2.023  0.00  0.00    -0.276 OA
ATOM     22  N   UNL     1      -1.650  -0.989   1.410  0.00  0.00    -0.311 N 
ATOM     23  H   UNL     1      -0.844  -1.136   0.677  0.00  0.00    +0.149 HD
BRANCH  22  24
ATOM     24  C   UNL     1      -1.725  -1.844   2.598  0.00  0.00    +0.142 C 
BRANCH  24  25
ATOM     25  C   UNL     1      -0.586  -2.831   2.579  0.00  0.00    +0.008 A 
ATOM     26  C   UNL     1       0.497  -2.653   3.420  0.00  0.00    +0.008 A 
ATOM     27  C   UNL     1       1.542  -3.557   3.404  0.00  0.00    +0.003 A 
ATOM     28  C   UNL     1       1.507  -4.641   2.546  0.00  0.00    +0.041 A 
ATOM     29  C   UNL     1       0.425  -4.822   1.704  0.00  0.00    +0.159 A 
ATOM     30  C   UNL     1      -0.626  -3.918   1.724  0.00  0.00    +0.163 A 
ATOM     31  F   UNL     1      -1.687  -4.095   0.905  0.00  0.00    -0.202 F 
ATOM     32  F   UNL     1       0.390  -5.882   0.866  0.00  0.00    -0.202 F 
ENDBRANCH  24  25
ENDBRANCH  22  24
ENDBRANCH  19  20
ENDBRANCH   7  19
TORSDOF 7
