REMARK  Name = ZINC38609924
REMARK  11 active torsions:
REMARK  status: ('A' for Active; 'I' for Inactive)
REMARK    1  A    between atoms: C_1  and  C_2
REMARK    2  A    between atoms: C_2  and  C_3
REMARK    3  A    between atoms: C_2  and  C_4
REMARK    4  A    between atoms: C_4  and  C_5
REMARK    5  A    between atoms: C_5  and  O_6
REMARK    6  A    between atoms: O_6  and  C_7
REMARK    7  A    between atoms: C_11  and  C_13
REMARK    8  A    between atoms: C_16  and  C_31
REMARK    9  A    between atoms: N_23  and  C_24
REMARK   10  A    between atoms: C_24  and  C_25
REMARK   11  A    between atoms: C_36  and  O_37
REMARK                            x       y       z     vdW  Elec       q    Type
REMARK                         _______ _______ _______ _____ _____    ______ ____
ROOT
ATOM      1  C   UNL     1      -5.701  -6.416  -0.337  0.00  0.00    +0.142 C 
ATOM      2  C   UNL     1      -5.998  -7.088   0.976  0.00  0.00    +0.035 A 
ATOM      3  C   UNL     1      -6.140  -6.959   2.361  0.00  0.00    +0.102 A 
ATOM      4  N   UNL     1      -6.443  -8.150   2.840  0.00  0.00    -0.173 NA
ATOM      5  N   UNL     1      -6.507  -9.018   1.893  0.00  0.00    -0.272 N 
ATOM      6  H   UNL     1      -6.716  -9.957   2.013  0.00  0.00    +0.189 HD
ATOM      7  C   UNL     1      -6.239  -8.420   0.695  0.00  0.00    +0.126 A 
ATOM      8  C   UNL     1      -6.105  -8.623  -0.752  0.00  0.00    +0.266 C 
ATOM      9  O   UNL     1      -6.256  -9.688  -1.320  0.00  0.00    -0.268 OA
ATOM     10  N   UNL     1      -5.793  -7.464  -1.362  0.00  0.00    -0.281 N 
ENDROOT
BRANCH   1  15
ATOM     11  C   UNL     1      -2.860  -3.925  -0.373  0.00  0.00    +0.121 A 
ATOM     12  C   UNL     1      -1.758  -4.763  -0.280  0.00  0.00    +0.045 A 
ATOM     13  C   UNL     1      -1.937  -6.131  -0.206  0.00  0.00    +0.004 A 
ATOM     14  C   UNL     1      -3.213  -6.665  -0.224  0.00  0.00    +0.006 A 
ATOM     15  C   UNL     1      -4.312  -5.831  -0.317  0.00  0.00    -0.019 A 
ATOM     16  C   UNL     1      -4.139  -4.462  -0.386  0.00  0.00    +0.051 A 
BRANCH  11  17
ATOM     17  O   UNL     1      -2.687  -2.579  -0.446  0.00  0.00    -0.492 OA
BRANCH  17  18
ATOM     18  C   UNL     1      -1.342  -2.096  -0.427  0.00  0.00    +0.229 C 
BRANCH  18  19
ATOM     19  C   UNL     1      -1.347  -0.569  -0.517  0.00  0.00    +0.044 C 
BRANCH  19  21
ATOM     20  C   UNL     1       0.094   1.463  -0.712  0.00  0.00    +0.007 C 
ATOM     21  C   UNL     1       0.093  -0.052  -0.497  0.00  0.00    -0.014 C 
ATOM     22  C   UNL     1       0.733  -0.376   0.854  0.00  0.00    +0.007 C 
ENDBRANCH  19  21
ENDBRANCH  18  19
ENDBRANCH  17  18
ENDBRANCH  11  17
ENDBRANCH   1  15
BRANCH   3  23
ATOM     23  C   UNL     1      -5.977  -5.712   3.149  0.00  0.00    +0.044 A 
ATOM     24  C   UNL     1      -5.780  -4.495   2.499  0.00  0.00    +0.014 A 
ATOM     25  C   UNL     1      -5.630  -3.338   3.235  0.00  0.00    +0.001 A 
ATOM     26  C   UNL     1      -5.674  -3.381   4.618  0.00  0.00    +0.004 A 
ATOM     27  C   UNL     1      -5.869  -4.582   5.272  0.00  0.00    +0.046 A 
ATOM     28  C   UNL     1      -6.028  -5.751   4.545  0.00  0.00    +0.126 A 
BRANCH  28  29
ATOM     29  O   UNL     1      -6.226  -6.932   5.187  0.00  0.00    -0.506 OA
ATOM     30  H   UNL     1      -5.410  -7.405   5.400  0.00  0.00    +0.292 HD
ENDBRANCH  28  29
ENDBRANCH   3  23
BRANCH  10  31
ATOM     31  C   UNL     1      -5.582  -7.279  -2.800  0.00  0.00    +0.145 C 
BRANCH  31  32
ATOM     32  C   UNL     1      -4.127  -7.500  -3.126  0.00  0.00    -0.012 A 
ATOM     33  C   UNL     1      -3.231  -6.443  -3.091  0.00  0.00    +0.008 A 
ATOM     34  C   UNL     1      -1.903  -6.693  -3.399  0.00  0.00    +0.020 A 
ATOM     35  C   UNL     1      -1.519  -7.980  -3.728  0.00  0.00    +0.111 A 
ATOM     36  N   UNL     1      -2.399  -8.961  -3.752  0.00  0.00    -0.263 NA
ATOM     37  C   UNL     1      -3.669  -8.761  -3.459  0.00  0.00    +0.115 A 
ENDBRANCH  31  32
ENDBRANCH  10  31
TORSDOF 9
