REMARK  Name = ZINC13623290
REMARK  7 active torsions:
REMARK  status: ('A' for Active; 'I' for Inactive)
REMARK    1  A    between atoms: C_4  and  C_7
REMARK    2  A    between atoms: C_7  and  N_8
REMARK    3  A    between atoms: C_10  and  C_15
REMARK    4  A    between atoms: N_17  and  N_18
REMARK    5  A    between atoms: C_19  and  C_21
REMARK    6  A    between atoms: C_21  and  O_22
REMARK    7  A    between atoms: O_22  and  C_23
REMARK                            x       y       z     vdW  Elec       q    Type
REMARK                         _______ _______ _______ _____ _____    ______ ____
ROOT
ATOM      1  C   UNL     1      -1.131  -0.554  -0.826  0.00  0.00    +0.234 C 
ATOM      2  O   UNL     1      -1.904   0.202  -1.374  0.00  0.00    -0.274 OA
ATOM      3  N   UNL     1      -1.284  -1.887  -0.957  0.00  0.00    -0.234 N 
ATOM      4  H   UNL     1      -0.665  -2.492  -0.519  0.00  0.00    +0.173 HD
ENDROOT
BRANCH   1   7
ATOM      5  N   UNL     1       1.390   1.951  -0.001  0.00  0.00    -0.296 N 
ATOM      6  C   UNL     1      -0.019   1.541   0.011  0.00  0.00    +0.121 C 
ATOM      7  C   UNL     1       0.002  -0.004   0.002  0.00  0.00    +0.102 C 
ATOM      8  C   UNL     1       1.367  -0.297  -0.662  0.00  0.00    +0.110 C 
ATOM      9  C   UNL     1       2.190   0.940  -0.380  0.00  0.00    +0.217 C 
ATOM     10  O   UNL     1       3.397   1.010  -0.482  0.00  0.00    -0.276 OA
BRANCH   5  11
ATOM     11  C   UNL     1       1.863   3.291   0.356  0.00  0.00    +0.142 C 
BRANCH  11  15
ATOM     12  C   UNL     1       2.690   3.442   4.544  0.00  0.00    +0.000 A 
ATOM     13  C   UNL     1       3.684   3.074   3.656  0.00  0.00    +0.000 A 
ATOM     14  C   UNL     1       3.416   3.026   2.301  0.00  0.00    +0.005 A 
ATOM     15  C   UNL     1       2.155   3.344   1.833  0.00  0.00    -0.030 A 
ATOM     16  C   UNL     1       1.163   3.716   2.721  0.00  0.00    +0.005 A 
ATOM     17  C   UNL     1       1.429   3.760   4.077  0.00  0.00    +0.000 A 
ENDBRANCH  11  15
ENDBRANCH   5  11
ENDBRANCH   1   7
BRANCH   3  18
ATOM     18  N   UNL     1      -2.337  -2.398  -1.727  0.00  0.00    -0.232 N 
ATOM     19  C   UNL     1      -2.490  -3.731  -1.858  0.00  0.00    +0.267 C 
ATOM     20  O   UNL     1      -1.717  -4.487  -1.310  0.00  0.00    -0.271 OA
ATOM     21  H   UNL     1      -2.956  -1.793  -2.165  0.00  0.00    +0.173 HD
BRANCH  19  22
ATOM     22  C   UNL     1      -3.623  -4.281  -2.686  0.00  0.00    +0.326 C 
BRANCH  22  23
ATOM     23  O   UNL     1      -3.574  -5.709  -2.672  0.00  0.00    -0.480 OA
BRANCH  23  24
ATOM     24  C   UNL     1      -4.533  -6.367  -3.376  0.00  0.00    +0.153 A 
ATOM     25  C   UNL     1      -4.319  -6.689  -4.709  0.00  0.00    +0.085 A 
ATOM     26  C   UNL     1      -5.295  -7.358  -5.423  0.00  0.00    +0.043 A 
ATOM     27  C   UNL     1      -6.485  -7.707  -4.809  0.00  0.00    +0.044 A 
ATOM     28  C   UNL     1      -6.700  -7.388  -3.480  0.00  0.00    +0.039 A 
ATOM     29  C   UNL     1      -5.724  -6.723  -2.761  0.00  0.00    +0.062 A 
ATOM     30 BR   UNL     1      -6.016  -6.293  -0.943  0.00  0.00    -0.046 Br
ATOM     31 CL   UNL     1      -7.710  -8.549  -5.707  0.00  0.00    -0.083 Cl
ATOM     32 CL   UNL     1      -2.826  -6.251  -5.480  0.00  0.00    -0.080 Cl
ENDBRANCH  23  24
ENDBRANCH  22  23
ENDBRANCH  19  22
ENDBRANCH   3  18
TORSDOF 7
