REMARK  Name = ZINC66975978
REMARK  5 active torsions:
REMARK  status: ('A' for Active; 'I' for Inactive)
REMARK    1  A    between atoms: C_1  and  C_2
REMARK    2  A    between atoms: C_5  and  N_8
REMARK    3  A    between atoms: C_14  and  N_17
REMARK    4  A    between atoms: C_18  and  C_20
REMARK    5  A    between atoms: C_20  and  C_21
REMARK                            x       y       z     vdW  Elec       q    Type
REMARK                         _______ _______ _______ _____ _____    ______ ____
ROOT
ATOM      1  N   UNL     1      -1.354  -2.095   2.450  0.00  0.00    -0.296 N 
ATOM      2  C   UNL     1      -1.235  -2.779   3.606  0.00  0.00    +0.302 C 
ATOM      3  O   UNL     1      -0.635  -3.836   3.627  0.00  0.00    -0.253 OA
ATOM      4  N   UNL     1      -1.782  -2.292   4.737  0.00  0.00    -0.286 N 
ATOM      5  C   UNL     1      -2.612  -1.080   4.705  0.00  0.00    +0.111 C 
ATOM      6  C   UNL     1      -3.958  -1.387   5.368  0.00  0.00    +0.041 C 
ATOM      7  C   UNL     1      -3.716  -1.946   6.772  0.00  0.00    +0.076 C 
ATOM      8  C   UNL     1      -2.918  -3.248   6.673  0.00  0.00    +0.041 C 
ATOM      9  C   UNL     1      -1.565  -2.965   6.024  0.00  0.00    +0.111 C 
ATOM     10  H   UNL     1      -1.894  -1.290   2.417  0.00  0.00    +0.151 HD
ENDROOT
BRANCH   1  15
ATOM     11  C   UNL     1       0.002   1.527   0.019  0.00  0.00    +0.007 C 
ATOM     12  C   UNL     1       0.017  -0.003   0.008  0.00  0.00    -0.014 C 
ATOM     13  C   UNL     1      -1.420  -0.527   0.016  0.00  0.00    +0.005 C 
ATOM     14  C   UNL     1      -1.405  -2.057   0.005  0.00  0.00    +0.022 C 
ATOM     15  C   UNL     1      -0.669  -2.568   1.245  0.00  0.00    +0.074 C 
ATOM     16  C   UNL     1       0.769  -2.044   1.237  0.00  0.00    +0.022 C 
ATOM     17  C   UNL     1       0.754  -0.514   1.248  0.00  0.00    +0.005 C 
ENDBRANCH   1  15
BRANCH   7  18
ATOM     18  N   UNL     1      -5.002  -2.209   7.421  0.00  0.00    -0.312 N 
ATOM     19  C   UNL     1      -5.089  -2.215   8.766  0.00  0.00    +0.214 C 
ATOM     20  O   UNL     1      -4.103  -2.001   9.439  0.00  0.00    -0.276 OA
ATOM     21  H   UNL     1      -5.791  -2.380   6.883  0.00  0.00    +0.149 HD
BRANCH  19  22
ATOM     22  C   UNL     1      -6.413  -2.486   9.434  0.00  0.00    +0.099 C 
BRANCH  22  23
ATOM     23  C   UNL     1      -6.237  -2.435  10.953  0.00  0.00    -0.002 C 
ATOM     24  C   UNL     1      -5.369  -3.620  11.425  0.00  0.00    +0.004 C 
ATOM     25  C   UNL     1      -6.000  -4.038  12.777  0.00  0.00    +0.000 C 
ATOM     26  C   UNL     1      -7.516  -3.857  12.517  0.00  0.00    +0.000 C 
ATOM     27  C   UNL     1      -7.602  -2.586  11.647  0.00  0.00    +0.004 C 
ENDBRANCH  22  23
ENDBRANCH  19  22
ENDBRANCH   7  18
TORSDOF 4
