REMARK  Name = ZINC37492294
REMARK  4 active torsions:
REMARK  status: ('A' for Active; 'I' for Inactive)
REMARK    1  A    between atoms: C_3  and  O_11
REMARK    2  A    between atoms: C_6  and  N_7
REMARK    3  A    between atoms: O_11  and  C_12
REMARK    4  A    between atoms: C_18  and  O_20
REMARK                            x       y       z     vdW  Elec       q    Type
REMARK                         _______ _______ _______ _____ _____    ______ ____
ROOT
ATOM      1  C   UNL     1      -0.009   1.362  -0.208  0.00  0.00    +0.036 A 
ATOM      2  C   UNL     1       1.178   2.071  -0.216  0.00  0.00    +0.049 A 
ATOM      3  C   UNL     1       2.380   1.411  -0.013  0.00  0.00    +0.139 A 
ATOM      4  C   UNL     1       2.389   0.038   0.198  0.00  0.00    +0.085 A 
ATOM      5  C   UNL     1       1.200  -0.666   0.205  0.00  0.00    +0.056 A 
ATOM      6  C   UNL     1       0.002  -0.004   0.002  0.00  0.00    +0.128 A 
ATOM      7 CL   UNL     1       3.892  -0.792   0.453  0.00  0.00    -0.080 Cl
ENDROOT
BRANCH   6   8
ATOM      8  N   UNL     1      -1.270  -0.760   0.011  0.00  0.00    +0.056 N 
ATOM      9  O   UNL     1      -2.318  -0.183  -0.166  0.00  0.00    -0.126 OA
ATOM     10  O   UNL     1      -1.262  -1.955   0.195  0.00  0.00    -0.126 OA
ENDBRANCH   6   8
BRANCH   3  11
ATOM     11  O   UNL     1       3.548   2.106  -0.021  0.00  0.00    -0.485 OA
BRANCH  11  12
ATOM     12  C   UNL     1       3.456   3.528  -0.124  0.00  0.00    +0.202 C 
ATOM     13  C   UNL     1       3.348   3.927  -1.597  0.00  0.00    +0.047 C 
ATOM     14  C   UNL     1       3.249   5.450  -1.707  0.00  0.00    +0.004 C 
ATOM     15  C   UNL     1       4.499   6.087  -1.097  0.00  0.00    +0.003 C 
ATOM     16  C   UNL     1       4.607   5.688   0.376  0.00  0.00    +0.035 C 
ATOM     17  C   UNL     1       4.706   4.166   0.487  0.00  0.00    +0.155 C 
BRANCH  17  18
ATOM     18  O   UNL     1       4.807   3.793   1.863  0.00  0.00    -0.388 OA
ATOM     19  H   UNL     1       5.578   4.162   2.314  0.00  0.00    +0.210 HD
ENDBRANCH  17  18
ENDBRANCH  11  12
ENDBRANCH   3  11
TORSDOF 4
