REMARK  Name = ZINC38884946
REMARK  9 active torsions:
REMARK  status: ('A' for Active; 'I' for Inactive)
REMARK    1  A    between atoms: C_1  and  C_2
REMARK    2  A    between atoms: C_2  and  O_3
REMARK    3  A    between atoms: O_3  and  C_4
REMARK    4  A    between atoms: C_4  and  C_6
REMARK    5  A    between atoms: C_10  and  N_11
REMARK    6  A    between atoms: C_12  and  C_14
REMARK    7  A    between atoms: N_19  and  C_21
REMARK    8  A    between atoms: C_21  and  C_22
REMARK    9  A    between atoms: C_24  and  C_27
REMARK                            x       y       z     vdW  Elec       q    Type
REMARK                         _______ _______ _______ _____ _____    ______ ____
ROOT
ATOM      1  C   UNL     1      -2.591  -2.599  -5.391  0.00  0.00    +0.059 C 
ATOM      2  C   UNL     1      -3.397  -3.446  -4.402  0.00  0.00    +0.009 C 
ATOM      3  C   UNL     1      -4.888  -3.314  -4.729  0.00  0.00    -0.018 C 
ATOM      4  C   UNL     1      -5.125  -3.735  -6.181  0.00  0.00    -0.078 C 
ATOM      5  N   UNL     1      -4.347  -2.871  -7.078  0.00  0.00    +0.386 N 
ATOM      6  C   UNL     1      -2.913  -3.045  -6.819  0.00  0.00    -0.065 C 
ATOM      7  H   UNL     1      -4.601  -1.907  -6.919  0.00  0.00    -0.081 HD
ENDROOT
BRANCH   1   9
ATOM      8  N   UNL     1      -0.604  -2.455  -3.925  0.00  0.00    -0.279 N 
ATOM      9  C   UNL     1      -1.119  -2.783  -5.126  0.00  0.00    +0.219 C 
ATOM     10  O   UNL     1      -0.397  -3.225  -5.995  0.00  0.00    -0.275 OA
ATOM     11  H   UNL     1      -1.181  -2.102  -3.230  0.00  0.00    +0.155 HD
BRANCH   8  16
ATOM     12  C   UNL     1       1.449  -2.344  -2.516  0.00  0.00    +0.091 A 
ATOM     13  C   UNL     1       2.876  -2.619  -2.515  0.00  0.00    -0.021 A 
ATOM     14  C   UNL     1       3.343  -3.117  -3.680  0.00  0.00    -0.004 A 
ATOM     15  S   UNL     1       1.922  -3.212  -4.730  0.00  0.00    -0.077 S 
ATOM     16  C   UNL     1       0.750  -2.624  -3.681  0.00  0.00    +0.086 A 
ATOM     17  C   UNL     1       4.757  -3.498  -3.993  0.00  0.00    +0.043 C 
ATOM     18  C   UNL     1       5.669  -2.887  -2.920  0.00  0.00    +0.005 C 
ATOM     19  C   UNL     1       5.082  -3.191  -1.538  0.00  0.00    +0.005 C 
ATOM     20  C   UNL     1       3.799  -2.383  -1.329  0.00  0.00    +0.037 C 
BRANCH  12  21
ATOM     21  C   UNL     1       0.776  -1.800  -1.335  0.00  0.00    +0.342 C 
ATOM     22  O   UNL     1       0.312  -2.552  -0.499  0.00  0.00    -0.245 OA
BRANCH  21  23
ATOM     23  O   UNL     1       0.671  -0.465  -1.174  0.00  0.00    -0.461 OA
BRANCH  23  25
ATOM     24  C   UNL     1      -0.019   1.526   0.010  0.00  0.00    +0.048 C 
ATOM     25  C   UNL     1       0.002  -0.004   0.002  0.00  0.00    +0.229 C 
ENDBRANCH  23  25
ENDBRANCH  21  23
ENDBRANCH  12  21
ENDBRANCH   8  16
ENDBRANCH   1   9
BRANCH   5  26
ATOM     26  C   UNL     1      -4.638  -3.227  -8.473  0.00  0.00    +0.022 C 
BRANCH  26  27
ATOM     27  C   UNL     1      -6.082  -2.923  -8.778  0.00  0.00    +0.211 A 
ATOM     28  N   UNL     1      -6.541  -1.796  -9.243  0.00  0.00    -0.193 NA
ATOM     29  C   UNL     1      -7.875  -1.871  -9.399  0.00  0.00    +0.202 A 
ATOM     30  N   UNL     1      -8.273  -3.063  -9.029  0.00  0.00    -0.056 NA
ATOM     31  O   UNL     1      -7.109  -3.768  -8.624  0.00  0.00    -0.340 OA
BRANCH  29  32
ATOM     32  C   UNL     1      -8.749  -0.784  -9.906  0.00  0.00    +0.022 A 
ATOM     33  C   UNL     1      -8.199   0.442 -10.273  0.00  0.00    +0.012 A 
ATOM     34  C   UNL     1      -9.017   1.449 -10.743  0.00  0.00    +0.001 A 
ATOM     35  C   UNL     1     -10.381   1.243 -10.850  0.00  0.00    +0.000 A 
ATOM     36  C   UNL     1     -10.932   0.028 -10.486  0.00  0.00    +0.001 A 
ATOM     37  C   UNL     1     -10.123  -0.989 -10.021  0.00  0.00    +0.012 A 
ENDBRANCH  29  32
ENDBRANCH  26  27
ENDBRANCH   5  26
TORSDOF 8
