REMARK  Name = ZINC35363901
REMARK  6 active torsions:
REMARK  status: ('A' for Active; 'I' for Inactive)
REMARK    1  A    between atoms: C_1  and  C_2
REMARK    2  A    between atoms: C_13  and  C_16
REMARK    3  A    between atoms: C_16  and  C_17
REMARK    4  A    between atoms: N_29  and  C_32
REMARK    5  A    between atoms: C_35  and  O_38
REMARK    6  A    between atoms: O_38  and  C_39
REMARK                            x       y       z     vdW  Elec       q    Type
REMARK                         _______ _______ _______ _____ _____    ______ ____
ROOT
ATOM      1  C   UNL     1      -0.171   1.522  -0.002  0.00  0.00    +0.044 C 
ATOM      2  C   UNL     1      -0.339   0.025  -0.045  0.00  0.00    -0.050 A 
ATOM      3  C   UNL     1      -0.624  -0.607  -1.242  0.00  0.00    +0.005 A 
ATOM      4  C   UNL     1      -0.778  -1.976  -1.287  0.00  0.00    +0.024 A 
ATOM      5  C   UNL     1      -0.649  -2.735  -0.126  0.00  0.00    +0.039 A 
ATOM      6  C   UNL     1      -0.363  -2.089   1.073  0.00  0.00    +0.004 A 
ATOM      7  C   UNL     1      -0.203  -0.721   1.112  0.00  0.00    +0.011 A 
ATOM      8  C   UNL     1      -0.290  -3.169   2.115  0.00  0.00    +0.136 C 
ATOM      9  C   UNL     1      -1.317  -2.946   3.231  0.00  0.00    +0.123 C 
ATOM     10  C   UNL     1      -0.509  -2.280   4.379  0.00  0.00    +0.108 C 
ATOM     11  C   UNL     1       0.925  -2.139   3.825  0.00  0.00    +0.072 C 
ATOM     12  N   UNL     1       1.027  -3.197   2.776  0.00  0.00    -0.295 NA
ATOM     13  C   UNL     1      -0.536  -3.321   5.475  0.00  0.00    +0.232 C 
ATOM     14  O   UNL     1      -0.007  -3.210   6.560  0.00  0.00    -0.274 OA
ATOM     15  N   UNL     1      -1.236  -4.383   5.061  0.00  0.00    -0.210 N 
ATOM     16  C   UNL     1      -1.736  -4.280   3.808  0.00  0.00    +0.233 C 
ATOM     17  O   UNL     1      -2.406  -5.111   3.235  0.00  0.00    -0.274 OA
ATOM     18  C   UNL     1      -0.559  -4.449   1.371  0.00  0.00    +0.243 C 
ATOM     19  O   UNL     1      -0.592  -5.566   1.840  0.00  0.00    -0.273 OA
ATOM     20  N   UNL     1      -0.757  -4.112   0.082  0.00  0.00    -0.283 N 
ATOM     21  H   UNL     1       1.210  -4.104   3.180  0.00  0.00    +0.124 HD
ATOM     22  H   UNL     1      -0.954  -4.751  -0.621  0.00  0.00    +0.155 HD
ENDROOT
BRANCH  15  23
ATOM     23  C   UNL     1      -1.442  -5.516   5.864  0.00  0.00    +0.044 A 
ATOM     24  C   UNL     1      -0.856  -6.727   5.520  0.00  0.00    +0.027 A 
ATOM     25  C   UNL     1      -1.059  -7.841   6.310  0.00  0.00    +0.047 A 
ATOM     26  C   UNL     1      -1.847  -7.750   7.448  0.00  0.00    +0.120 A 
ATOM     27  C   UNL     1      -2.433  -6.540   7.792  0.00  0.00    +0.047 A 
ATOM     28  C   UNL     1      -2.226  -5.425   7.006  0.00  0.00    +0.027 A 
BRANCH  26  29
ATOM     29  O   UNL     1      -2.046  -8.847   8.226  0.00  0.00    -0.495 OA
ATOM     30  C   UNL     1      -2.869  -8.682   9.383  0.00  0.00    +0.277 C 
ENDBRANCH  26  29
ENDBRANCH  15  23
BRANCH  11  31
ATOM     31  C   UNL     1       1.951  -2.401   4.929  0.00  0.00    +0.056 C 
BRANCH  31  32
ATOM     32  C   UNL     1       3.337  -2.140   4.399  0.00  0.00    -0.021 A 
ATOM     33  C   UNL     1       4.180  -3.049   3.884  0.00  0.00    +0.087 A 
ATOM     34  N   UNL     1       5.347  -2.442   3.508  0.00  0.00    -0.360 N 
ATOM     35  H   UNL     1       6.107  -2.894   3.110  0.00  0.00    +0.165 HD
ATOM     36  C   UNL     1       5.282  -1.093   3.779  0.00  0.00    +0.047 A 
ATOM     37  C   UNL     1       4.018  -0.844   4.343  0.00  0.00    +0.003 A 
ATOM     38  C   UNL     1       3.666   0.454   4.716  0.00  0.00    +0.010 A 
ATOM     39  C   UNL     1       4.551   1.478   4.527  0.00  0.00    +0.001 A 
ATOM     40  C   UNL     1       5.798   1.238   3.967  0.00  0.00    +0.002 A 
ATOM     41  C   UNL     1       6.170  -0.037   3.600  0.00  0.00    +0.026 A 
ENDBRANCH  31  32
ENDBRANCH  11  31
TORSDOF 4
