REMARK  Name = ZINC20578917
REMARK  5 active torsions:
REMARK  status: ('A' for Active; 'I' for Inactive)
REMARK    1  A    between atoms: C_1  and  C_2
REMARK    2  A    between atoms: N_5  and  C_8
REMARK    3  A    between atoms: C_6  and  N_7
REMARK    4  A    between atoms: C_8  and  C_10
REMARK    5  A    between atoms: C_8  and  C_11
REMARK                            x       y       z     vdW  Elec       q    Type
REMARK                         _______ _______ _______ _____ _____    ______ ____
ROOT
ATOM      1  C   UNL     1       6.009   0.916  -0.050  0.00  0.00    +0.172 C 
ATOM      2  C   UNL     1       6.456   1.677  -1.300  0.00  0.00    +0.041 C 
ENDROOT
BRANCH   1   3
ATOM      3  C   UNL     1       4.506   0.811  -0.037  0.00  0.00    +0.130 A 
ATOM      4  C   UNL     1       3.817  -0.339  -0.036  0.00  0.00    +0.055 A 
ATOM      5  C   UNL     1       2.398   0.035  -0.021  0.00  0.00    +0.022 A 
ATOM      6  C   UNL     1       1.202  -0.682  -0.013  0.00  0.00    +0.027 A 
ATOM      7  C   UNL     1       0.002  -0.004   0.002  0.00  0.00    +0.019 A 
ATOM      8  C   UNL     1      -0.017   1.384   0.010  0.00  0.00    +0.019 A 
ATOM      9  C   UNL     1       1.159   2.103   0.002  0.00  0.00    +0.048 A 
ATOM     10  C   UNL     1       2.379   1.439  -0.013  0.00  0.00    +0.135 A 
ATOM     11  O   UNL     1       3.661   1.857  -0.023  0.00  0.00    -0.458 OA
ATOM     12 BR   UNL     1      -1.625  -0.968   0.013  0.00  0.00    -0.050 Br
ENDBRANCH   1   3
BRANCH   1  17
ATOM     13  C   UNL     1       8.292   2.026   4.281  0.00  0.00    +0.049 C 
ATOM     14  C   UNL     1       7.452   2.124   3.034  0.00  0.00    +0.008 A 
ATOM     15  C   UNL     1       6.704   3.234   2.630  0.00  0.00    +0.139 A 
ATOM     16  N   UNL     1       6.115   2.944   1.498  0.00  0.00    -0.177 NA
ATOM     17  N   UNL     1       6.459   1.633   1.146  0.00  0.00    -0.241 N 
ATOM     18  C   UNL     1       7.284   1.147   2.101  0.00  0.00    +0.118 A 
BRANCH  18  19
ATOM     19  N   UNL     1       7.858  -0.121   2.126  0.00  0.00    -0.343 N 
ATOM     20  H   UNL     1       7.652  -0.834   1.314  0.00  0.00    +0.144 HD
ATOM     21  H   UNL     1       8.517  -0.410   2.957  0.00  0.00    +0.144 HD
ENDBRANCH  18  19
ENDBRANCH   1  17
TORSDOF 3
