REMARK  Name = ZINC38684122
REMARK  15 active torsions:
REMARK  status: ('A' for Active; 'I' for Inactive)
REMARK    1  A    between atoms: C_1  and  C_2
REMARK    2  A    between atoms: C_2  and  C_3
REMARK    3  A    between atoms: C_2  and  C_4
REMARK    4  A    between atoms: C_4  and  O_5
REMARK    5  A    between atoms: O_5  and  C_6
REMARK    6  A    between atoms: C_9  and  C_14
REMARK    7  A    between atoms: C_11  and  O_12
REMARK    8  A    between atoms: O_12  and  C_13
REMARK    9  A    between atoms: C_19  and  O_28
REMARK   10  A    between atoms: C_23  and  N_27
REMARK   11  A    between atoms: C_24  and  C_25
REMARK   12  A    between atoms: O_28  and  C_29
REMARK   13  A    between atoms: C_29  and  C_31
REMARK   14  A    between atoms: C_35  and  O_37
REMARK   15  A    between atoms: O_37  and  C_38
REMARK                            x       y       z     vdW  Elec       q    Type
REMARK                         _______ _______ _______ _____ _____    ______ ____
ROOT
ATOM      1  C   UNL     1      -6.356  -4.588  -0.183  0.00  0.00    +0.098 C 
ATOM      2  C   UNL     1      -7.184  -4.093  -1.340  0.00  0.00    +0.008 A 
ATOM      3  C   UNL     1      -6.846  -4.469  -2.628  0.00  0.00    +0.012 A 
ATOM      4  C   UNL     1      -7.593  -4.027  -3.701  0.00  0.00    +0.047 A 
ATOM      5  C   UNL     1      -8.689  -3.200  -3.490  0.00  0.00    +0.135 A 
ATOM      6  C   UNL     1      -9.029  -2.822  -2.201  0.00  0.00    +0.093 A 
ATOM      7  C   UNL     1      -8.276  -3.268  -1.123  0.00  0.00    +0.138 A 
ATOM      8  O   UNL     1      -8.623  -2.889   0.132  0.00  0.00    -0.441 OA
ATOM      9  C   UNL     1      -8.180  -3.588   1.189  0.00  0.00    +0.199 C 
ATOM     10  C   UNL     1      -7.111  -4.410   1.104  0.00  0.00    +0.098 C 
ENDROOT
BRANCH   1  14
ATOM     11  C   UNL     1      -2.707  -2.365  -0.003  0.00  0.00    +0.162 A 
ATOM     12  C   UNL     1      -3.925  -1.714   0.117  0.00  0.00    +0.050 A 
ATOM     13  C   UNL     1      -5.103  -2.436   0.058  0.00  0.00    +0.008 A 
ATOM     14  C   UNL     1      -5.069  -3.806  -0.120  0.00  0.00    -0.031 A 
ATOM     15  C   UNL     1      -3.858  -4.461  -0.240  0.00  0.00    +0.054 A 
ATOM     16  C   UNL     1      -2.674  -3.744  -0.188  0.00  0.00    +0.162 A 
BRANCH  16  17
ATOM     17  O   UNL     1      -1.482  -4.386  -0.311  0.00  0.00    -0.491 OA
ATOM     18  C   UNL     1      -1.524  -5.802  -0.499  0.00  0.00    +0.277 C 
ENDBRANCH  16  17
BRANCH  11  19
ATOM     19  O   UNL     1      -1.548  -1.657   0.054  0.00  0.00    -0.488 OA
BRANCH  19  20
ATOM     20  C   UNL     1      -1.659  -0.245   0.246  0.00  0.00    +0.232 C 
BRANCH  20  22
ATOM     21  C   UNL     1      -0.381   1.899   0.364  0.00  0.00    +0.010 C 
ATOM     22  C   UNL     1      -0.261   0.376   0.284  0.00  0.00    +0.020 C 
ATOM     23  C   UNL     1       0.494  -0.141   1.511  0.00  0.00    +0.010 C 
ENDBRANCH  20  22
ENDBRANCH  19  20
ENDBRANCH  11  19
ENDBRANCH   1  14
BRANCH   9  24
ATOM     24  N   UNL     1      -8.832  -3.463   2.391  0.00  0.00    -0.328 N 
ATOM     25  H   UNL     1      -9.600  -2.877   2.467  0.00  0.00    +0.145 HD
ATOM     26  H   UNL     1      -8.524  -3.962   3.164  0.00  0.00    +0.145 HD
ENDBRANCH   9  24
BRANCH  10  27
ATOM     27  C   UNL     1      -6.688  -5.127   2.270  0.00  0.00    +0.101 C 
ATOM     28  N   UNL     1      -6.353  -5.695   3.194  0.00  0.00    -0.191 NA
ENDBRANCH  10  27
BRANCH   5  29
ATOM     29  O   UNL     1      -9.425  -2.763  -4.545  0.00  0.00    -0.422 OA
BRANCH  29  30
ATOM     30  C   UNL     1     -10.174  -3.665  -5.210  0.00  0.00    +0.345 C 
ATOM     31  O   UNL     1     -10.259  -4.805  -4.800  0.00  0.00    -0.245 OA
BRANCH  30  32
ATOM     32  C   UNL     1     -10.891  -3.266  -6.439  0.00  0.00    +0.063 A 
ATOM     33  C   UNL     1     -10.791  -1.958  -6.915  0.00  0.00    +0.015 A 
ATOM     34  C   UNL     1     -11.463  -1.589  -8.063  0.00  0.00    +0.004 A 
ATOM     35  C   UNL     1     -12.236  -2.512  -8.743  0.00  0.00    +0.045 A 
ATOM     36  C   UNL     1     -12.342  -3.815  -8.277  0.00  0.00    +0.121 A 
ATOM     37  C   UNL     1     -11.667  -4.198  -7.130  0.00  0.00    +0.060 A 
BRANCH  36  38
ATOM     38  O   UNL     1     -13.103  -4.717  -8.950  0.00  0.00    -0.495 OA
ATOM     39  C   UNL     1     -13.767  -4.256 -10.129  0.00  0.00    +0.277 C 
ENDBRANCH  36  38
ENDBRANCH  30  32
ENDBRANCH  29  30
ENDBRANCH   5  29
TORSDOF 11
