REMARK  Name = ZINC63486497
REMARK  8 active torsions:
REMARK  status: ('A' for Active; 'I' for Inactive)
REMARK    1  A    between atoms: C_1  and  O_2
REMARK    2  A    between atoms: O_2  and  C_3
REMARK    3  A    between atoms: C_9  and  C_12
REMARK    4  A    between atoms: C_12  and  C_13
REMARK    5  A    between atoms: C_13  and  N_14
REMARK    6  A    between atoms: C_15  and  C_17
REMARK    7  A    between atoms: C_17  and  O_18
REMARK    8  A    between atoms: O_18  and  C_19
REMARK                            x       y       z     vdW  Elec       q    Type
REMARK                         _______ _______ _______ _____ _____    ______ ____
ROOT
ATOM      1  N   UNL     1      -0.752  -6.781  -1.509  0.00  0.00    -0.312 N 
ATOM      2  C   UNL     1      -1.922  -7.385  -1.796  0.00  0.00    +0.251 C 
ATOM      3  O   UNL     1      -2.617  -6.964  -2.697  0.00  0.00    -0.272 OA
ATOM      4  H   UNL     1      -0.196  -7.118  -0.789  0.00  0.00    +0.149 HD
ENDROOT
BRANCH   1   5
ATOM      5  C   UNL     1      -0.319  -5.616  -2.284  0.00  0.00    +0.108 C 
BRANCH   5   6
ATOM      6  C   UNL     1       1.031  -5.126  -1.758  0.00  0.00    +0.052 C 
BRANCH   6  13
ATOM      7  C   UNL     1       0.606  -0.607  -1.056  0.00  0.00    +0.121 A 
ATOM      8  C   UNL     1       1.172   0.195  -2.062  0.00  0.00    +0.047 A 
ATOM      9  C   UNL     1       1.790  -0.325  -3.144  0.00  0.00    +0.029 A 
ATOM     10  C   UNL     1       1.886  -1.780  -3.299  0.00  0.00    +0.043 A 
ATOM     11  N   UNL     1       2.419  -2.528  -4.232  0.00  0.00    -0.380 N 
ATOM     12  C   UNL     1       2.222  -3.937  -3.871  0.00  0.00    +0.144 C 
ATOM     13  C   UNL     1       1.476  -3.927  -2.555  0.00  0.00    -0.040 C 
ATOM     14  C   UNL     1       1.290  -2.626  -2.239  0.00  0.00    +0.002 A 
ATOM     15  C   UNL     1       0.646  -1.960  -1.102  0.00  0.00    +0.055 A 
ATOM     16  H   UNL     1       2.869  -2.205  -5.029  0.00  0.00    +0.160 HD
BRANCH   7  18
ATOM     17  C   UNL     1      -0.017   1.425   0.010  0.00  0.00    +0.277 C 
ATOM     18  O   UNL     1       0.002  -0.004   0.002  0.00  0.00    -0.495 OA
ENDBRANCH   7  18
ENDBRANCH   6  13
ENDBRANCH   5   6
ENDBRANCH   1   5
BRANCH   2  19
ATOM     19  C   UNL     1      -2.367  -8.584  -0.999  0.00  0.00    +0.324 C 
BRANCH  19  20
ATOM     20  O   UNL     1      -3.629  -9.041  -1.490  0.00  0.00    -0.483 OA
BRANCH  20  21
ATOM     21  C   UNL     1      -4.175 -10.123  -0.875  0.00  0.00    +0.125 A 
ATOM     22  C   UNL     1      -3.512 -10.729   0.183  0.00  0.00    +0.046 A 
ATOM     23  C   UNL     1      -4.068 -11.831   0.802  0.00  0.00    +0.011 A 
ATOM     24  C   UNL     1      -5.285 -12.333   0.373  0.00  0.00    -0.001 A 
ATOM     25  C   UNL     1      -5.955 -11.730  -0.676  0.00  0.00    +0.139 A 
ATOM     26  C   UNL     1      -5.395 -10.619  -1.301  0.00  0.00    +0.092 A 
ATOM     27  O   UNL     1      -7.165 -12.171  -1.116  0.00  0.00    -0.425 OA
ATOM     28  C   UNL     1      -7.635 -13.329  -0.605  0.00  0.00    +0.316 C 
ATOM     29  O   UNL     1      -8.241 -14.125  -1.282  0.00  0.00    -0.250 OA
ATOM     30  C   UNL     1      -7.361 -13.575   0.859  0.00  0.00    +0.106 C 
ATOM     31  C   UNL     1      -5.849 -13.552   1.073  0.00  0.00    +0.036 C 
ATOM     32  C   UNL     1      -5.206 -14.789   0.440  0.00  0.00    +0.009 C 
ATOM     33  C   UNL     1      -5.833 -16.061   1.008  0.00  0.00    +0.001 C 
ATOM     34  C   UNL     1      -7.326 -16.073   0.667  0.00  0.00    +0.001 C 
ATOM     35  C   UNL     1      -7.980 -14.877   1.332  0.00  0.00    +0.015 C 
ENDBRANCH  20  21
ENDBRANCH  19  20
ENDBRANCH   2  19
TORSDOF 7
