REMARK  Name = ZINC13025643
REMARK  11 active torsions:
REMARK  status: ('A' for Active; 'I' for Inactive)
REMARK    1  A    between atoms: C_1  and  C_2
REMARK    2  A    between atoms: C_2  and  C_3
REMARK    3  A    between atoms: C_2  and  C_4
REMARK    4  A    between atoms: C_4  and  C_6
REMARK    5  A    between atoms: C_4  and  N_8
REMARK    6  A    between atoms: C_18  and  S_19
REMARK    7  A    between atoms: S_19  and  C_20
REMARK    8  A    between atoms: C_20  and  C_21
REMARK    9  A    between atoms: N_26  and  C_27
REMARK   10  A    between atoms: C_27  and  C_28
REMARK   11  A    between atoms: C_28  and  C_29
REMARK                            x       y       z     vdW  Elec       q    Type
REMARK                         _______ _______ _______ _____ _____    ______ ____
ROOT
ATOM      1  N   UNL     1      -1.113  -2.145   0.002  0.00  0.00    -0.273 N 
ATOM      2  C   UNL     1      -1.235  -0.797   0.010  0.00  0.00    +0.263 A 
ATOM      3  O   UNL     1      -2.328  -0.262   0.023  0.00  0.00    -0.267 OA
ATOM      4  C   UNL     1       0.002  -0.004   0.002  0.00  0.00    +0.065 A 
ATOM      5  C   UNL     1      -0.017   1.390   0.010  0.00  0.00    +0.015 A 
ATOM      6  C   UNL     1       1.164   2.080   0.002  0.00  0.00    +0.001 A 
ATOM      7  C   UNL     1       2.379   1.407  -0.013  0.00  0.00    +0.002 A 
ATOM      8  C   UNL     1       2.427   0.042  -0.021  0.00  0.00    +0.028 A 
ATOM      9  C   UNL     1       1.237  -0.692  -0.013  0.00  0.00    +0.079 A 
ATOM     10  N   UNL     1       1.238  -2.041  -0.020  0.00  0.00    -0.223 NA
ATOM     11  C   UNL     1       0.122  -2.728  -0.013  0.00  0.00    +0.173 A 
ENDROOT
BRANCH   1  12
ATOM     12  C   UNL     1      -2.313  -2.984   0.009  0.00  0.00    +0.208 C 
BRANCH  12  14
ATOM     13  C   UNL     1      -2.337  -2.972  -2.490  0.00  0.00    +0.010 C 
ATOM     14  C   UNL     1      -3.156  -2.679  -1.231  0.00  0.00    +0.017 C 
ATOM     15  C   UNL     1      -4.410  -3.556  -1.224  0.00  0.00    +0.010 C 
ENDBRANCH  12  14
BRANCH  12  16
ATOM     16  C   UNL     1      -3.120  -2.696   1.248  0.00  0.00    +0.379 C 
ATOM     17  O   UNL     1      -2.732  -1.874   2.044  0.00  0.00    -0.244 OA
ATOM     18  O   UNL     1      -4.270  -3.353   1.468  0.00  0.00    -0.244 OA
ENDBRANCH  12  16
ENDBRANCH   1  12
BRANCH  11  19
ATOM     19  S   UNL     1       0.220  -4.487  -0.023  0.00  0.00    -0.078 S 
BRANCH  19  20
ATOM     20  C   UNL     1       2.018  -4.702  -0.041  0.00  0.00    +0.173 C 
BRANCH  20  21
ATOM     21  C   UNL     1       2.348  -6.172  -0.052  0.00  0.00    +0.231 C 
ATOM     22  O   UNL     1       1.456  -6.994  -0.047  0.00  0.00    -0.274 OA
ATOM     23  N   UNL     1       3.634  -6.574  -0.066  0.00  0.00    -0.240 N 
ATOM     24  C   UNL     1       3.930  -7.889  -0.076  0.00  0.00    +0.306 C 
ATOM     25  O   UNL     1       3.036  -8.713  -0.071  0.00  0.00    -0.252 OA
ATOM     26  N   UNL     1       5.216  -8.291  -0.090  0.00  0.00    -0.299 N 
ATOM     27  H   UNL     1       4.348  -5.917  -0.070  0.00  0.00    +0.159 HD
ATOM     28  H   UNL     1       5.929  -7.633  -0.094  0.00  0.00    +0.150 HD
BRANCH  26  29
ATOM     29  C   UNL     1       5.537  -9.720  -0.101  0.00  0.00    +0.111 C 
BRANCH  29  30
ATOM     30  C   UNL     1       7.056  -9.901  -0.116  0.00  0.00    +0.061 C 
BRANCH  30  31
ATOM     31  C   UNL     1       7.387 -11.372  -0.127  0.00  0.00    -0.009 A 
ATOM     32  C   UNL     1       7.558 -12.200  -1.186  0.00  0.00    +0.011 A 
ATOM     33  C   UNL     1       7.864 -13.528  -0.955  0.00  0.00    +0.008 A 
ATOM     34  C   UNL     1       7.972 -13.965   0.324  0.00  0.00    +0.045 A 
ATOM     35  S   UNL     1       7.646 -12.476   1.252  0.00  0.00    -0.102 S 
ENDBRANCH  30  31
ENDBRANCH  29  30
ENDBRANCH  26  29
ENDBRANCH  20  21
ENDBRANCH  19  20
ENDBRANCH  11  19
TORSDOF 9
