REMARK  Name = ZINC41585476
REMARK  11 active torsions:
REMARK  status: ('A' for Active; 'I' for Inactive)
REMARK    1  A    between atoms: C_1  and  C_2
REMARK    2  A    between atoms: C_2  and  O_3
REMARK    3  A    between atoms: O_3  and  C_4
REMARK    4  A    between atoms: C_4  and  C_6
REMARK    5  A    between atoms: C_9  and  O_12
REMARK    6  A    between atoms: O_12  and  C_13
REMARK    7  A    between atoms: C_13  and  C_14
REMARK    8  A    between atoms: C_18  and  O_37
REMARK    9  A    between atoms: C_19  and  C_23
REMARK   10  A    between atoms: C_23  and  N_24
REMARK   11  A    between atoms: N_27  and  C_30
REMARK                            x       y       z     vdW  Elec       q    Type
REMARK                         _______ _______ _______ _____ _____    ______ ____
ROOT
ATOM      1  C   UNL     1       4.141  -5.675  -7.233  0.00  0.00    +0.128 A 
ATOM      2  C   UNL     1       3.530  -5.889  -8.547  0.00  0.00    +0.048 A 
ATOM      3  C   UNL     1       2.216  -5.830  -9.021  0.00  0.00    +0.017 A 
ATOM      4  C   UNL     1       1.956  -6.088 -10.335  0.00  0.00    +0.046 A 
ATOM      5  C   UNL     1       2.991  -6.412 -11.210  0.00  0.00    +0.125 A 
ATOM      6  C   UNL     1       4.297  -6.475 -10.759  0.00  0.00    +0.053 A 
ATOM      7  C   UNL     1       4.578  -6.214  -9.424  0.00  0.00    +0.175 A 
ATOM      8  O   UNL     1       5.718  -6.198  -8.704  0.00  0.00    -0.354 OA
ATOM      9  N   UNL     1       5.419  -5.859  -7.364  0.00  0.00    -0.079 NA
ENDROOT
BRANCH   5  10
ATOM     10  O   UNL     1       2.715  -6.666 -12.516  0.00  0.00    -0.506 OA
ATOM     11  H   UNL     1       2.743  -5.884 -13.083  0.00  0.00    +0.292 HD
ENDBRANCH   5  10
BRANCH   1  12
ATOM     12  C   UNL     1       3.420  -5.303  -5.963  0.00  0.00    +0.288 C 
BRANCH  12  13
ATOM     13  O   UNL     1       3.350  -3.880  -5.854  0.00  0.00    -0.486 OA
BRANCH  13  17
ATOM     14  C   UNL     1       1.454  -2.347  -2.524  0.00  0.00    +0.059 A 
ATOM     15  C   UNL     1       1.993  -1.484  -3.483  0.00  0.00    +0.018 A 
ATOM     16  C   UNL     1       2.625  -2.000  -4.592  0.00  0.00    +0.046 A 
ATOM     17  C   UNL     1       2.727  -3.376  -4.759  0.00  0.00    +0.121 A 
ATOM     18  C   UNL     1       2.192  -4.237  -3.808  0.00  0.00    +0.046 A 
ATOM     19  C   UNL     1       1.563  -3.730  -2.693  0.00  0.00    +0.018 A 
BRANCH  14  20
ATOM     20  C   UNL     1       0.776  -1.799  -1.335  0.00  0.00    +0.339 C 
ATOM     21  O   UNL     1       0.312  -2.550  -0.500  0.00  0.00    -0.245 OA
BRANCH  20  22
ATOM     22  O   UNL     1       0.671  -0.465  -1.174  0.00  0.00    -0.461 OA
BRANCH  22  24
ATOM     23  C   UNL     1      -0.019   1.526   0.010  0.00  0.00    +0.048 C 
ATOM     24  C   UNL     1       0.002  -0.004   0.002  0.00  0.00    +0.229 C 
ENDBRANCH  22  24
ENDBRANCH  20  22
ENDBRANCH  14  20
ENDBRANCH  13  17
ENDBRANCH  12  13
ENDBRANCH   1  12
BRANCH   6  25
ATOM     25  C   UNL     1       5.410  -6.827 -11.712  0.00  0.00    +0.127 C 
BRANCH  25  26
ATOM     26  N   UNL     1       5.940  -5.599 -12.319  0.00  0.00    -0.295 NA
ATOM     27  C   UNL     1       4.932  -4.955 -13.171  0.00  0.00    +0.103 C 
ATOM     28  C   UNL     1       5.456  -3.593 -13.638  0.00  0.00    +0.120 C 
ATOM     29  N   UNL     1       6.770  -3.790 -14.270  0.00  0.00    -0.325 N 
ATOM     30  C   UNL     1       7.791  -4.548 -13.531  0.00  0.00    +0.120 C 
ATOM     31  C   UNL     1       7.174  -5.872 -13.068  0.00  0.00    +0.103 C 
BRANCH  29  32
ATOM     32  C   UNL     1       7.041  -3.270 -15.540  0.00  0.00    +0.065 A 
ATOM     33  C   UNL     1       7.575  -1.996 -15.671  0.00  0.00    +0.026 A 
ATOM     34  C   UNL     1       7.842  -1.485 -16.926  0.00  0.00    +0.002 A 
ATOM     35  C   UNL     1       7.578  -2.241 -18.053  0.00  0.00    +0.003 A 
ATOM     36  C   UNL     1       7.045  -3.512 -17.928  0.00  0.00    +0.040 A 
ATOM     37  C   UNL     1       6.781  -4.032 -16.674  0.00  0.00    +0.144 A 
ATOM     38  F   UNL     1       6.267  -5.275 -16.552  0.00  0.00    -0.204 F 
ENDBRANCH  29  32
ENDBRANCH  25  26
ENDBRANCH   6  25
TORSDOF 10
