REMARK  Name = ZINC17042003
REMARK  16 active torsions:
REMARK  status: ('A' for Active; 'I' for Inactive)
REMARK    1  A    between atoms: C_1  and  C_2
REMARK    2  A    between atoms: C_2  and  N_69
REMARK    3  A    between atoms: C_3  and  C_4
REMARK    4  A    between atoms: C_3  and  N_69
REMARK    5  A    between atoms: C_5  and  C_6
REMARK    6  A    between atoms: C_5  and  N_69
REMARK    7  A    between atoms: C_6  and  C_7
REMARK    8  A    between atoms: C_7  and  C_8
REMARK    9  A    between atoms: C_8  and  C_10
REMARK   10  A    between atoms: C_8  and  N_11
REMARK   11  A    between atoms: N_11  and  C_12
REMARK   12  A    between atoms: C_14  and  C_24
REMARK   13  A    between atoms: C_18  and  N_21
REMARK   14  A    between atoms: N_21  and  C_22
REMARK   15  A    between atoms: N_21  and  C_23
REMARK   16  A    between atoms: C_25  and  C_26
REMARK                            x       y       z     vdW  Elec       q    Type
REMARK                         _______ _______ _______ _____ _____    ______ ____
ROOT
ATOM      1  C   UNL     1      -1.897   3.428   1.000  0.00  0.00    +0.039 A 
ATOM      2  C   UNL     1      -1.961   4.807   0.964  0.00  0.00    +0.049 A 
ATOM      3  C   UNL     1      -1.403   5.498  -0.122  0.00  0.00    +0.041 A 
ATOM      4  C   UNL     1      -0.721   3.525  -1.140  0.00  0.00    +0.049 A 
ATOM      5  C   UNL     1      -1.261   2.761  -0.077  0.00  0.00    +0.021 A 
ATOM      6  C   UNL     1      -1.165   1.364  -0.107  0.00  0.00    +0.035 A 
ATOM      7  C   UNL     1      -0.535   0.748  -1.168  0.00  0.00    +0.030 A 
ATOM      8  C   UNL     1      -0.003   1.507  -2.216  0.00  0.00    +0.025 A 
ATOM      9  C   UNL     1      -0.089   2.865  -2.209  0.00  0.00    +0.028 A 
ATOM     10  N   UNL     1      -0.782   4.900  -1.180  0.00  0.00    -0.355 N 
ATOM     11  H   UNL     1      -0.387   5.442  -1.958  0.00  0.00    +0.166 HD
ENDROOT
BRANCH   7  12
ATOM     12  N   UNL     1      -0.433  -0.645  -1.200  0.00  0.00    -0.336 N 
ATOM     13  C   UNL     1       0.229  -1.305  -2.328  0.00  0.00    +0.129 C 
ATOM     14  C   UNL     1      -0.989  -1.446  -0.106  0.00  0.00    +0.129 C 
ENDBRANCH   7  12
BRANCH   1  15
ATOM     15  N   UNL     1      -2.439   2.716   2.061  0.00  0.00    -0.341 N 
ATOM     16  H   UNL     1      -2.386   1.747   2.073  0.00  0.00    +0.146 HD
BRANCH  15  17
ATOM     17  C   UNL     1      -3.092   3.426   3.163  0.00  0.00    +0.067 C 
ATOM     18  C   UNL     1      -4.551   3.707   2.797  0.00  0.00    +0.028 C 
BRANCH  17  19
ATOM     19  C   UNL     1      -3.040   2.566   4.427  0.00  0.00    +0.020 C 
BRANCH  19  20
ATOM     20  C   UNL     1      -1.584   2.389   4.865  0.00  0.00    -0.017 C 
BRANCH  20  21
ATOM     21  C   UNL     1      -1.532   1.529   6.128  0.00  0.00    -0.079 C 
BRANCH  21  22
ATOM     22  N   UNL     1      -0.119   1.350   6.526  0.00  0.00    +0.379 N 
ATOM     23  H   UNL     1       0.415   1.015   5.716  0.00  0.00    -0.082 HD
BRANCH  22  25
ATOM     24  C   UNL     1      -0.328   3.176   8.179  0.00  0.00    -0.017 C 
ATOM     25  C   UNL     1       0.446   2.640   6.973  0.00  0.00    -0.082 C 
ENDBRANCH  22  25
BRANCH  22  26
ATOM     26  C   UNL     1      -0.022   0.352   7.611  0.00  0.00    -0.082 C 
ATOM     27  C   UNL     1       1.448  -0.028   7.802  0.00  0.00    -0.017 C 
ENDBRANCH  22  26
ENDBRANCH  21  22
ENDBRANCH  20  21
ENDBRANCH  19  20
ENDBRANCH  17  19
ENDBRANCH  15  17
ENDBRANCH   1  15
BRANCH   3  28
ATOM     28  C   UNL     1      -1.475   6.968  -0.154  0.00  0.00    +0.026 C 
ATOM     29  C   UNL     1      -0.380   7.689  -0.449  0.00  0.00    +0.010 C 
BRANCH  29  30
ATOM     30  C   UNL     1       0.927   7.022  -0.579  0.00  0.00    -0.025 A 
ATOM     31  C   UNL     1       1.235   5.918   0.221  0.00  0.00    +0.009 A 
ATOM     32  C   UNL     1       2.459   5.296   0.091  0.00  0.00    +0.020 A 
ATOM     33  C   UNL     1       3.386   5.769  -0.823  0.00  0.00    +0.041 A 
ATOM     34  C   UNL     1       3.089   6.865  -1.616  0.00  0.00    +0.020 A 
ATOM     35  C   UNL     1       1.867   7.494  -1.500  0.00  0.00    +0.009 A 
ATOM     36 CL   UNL     1       4.926   4.984  -0.976  0.00  0.00    -0.084 Cl
ENDBRANCH  29  30
ENDBRANCH   3  28
TORSDOF 11
