REMARK  Name = ZINC63730277
REMARK  10 active torsions:
REMARK  status: ('A' for Active; 'I' for Inactive)
REMARK    1  A    between atoms: C_1  and  C_2
REMARK    2  A    between atoms: C_5  and  N_9
REMARK    3  A    between atoms: C_6  and  C_8
REMARK    4  A    between atoms: C_10  and  C_12
REMARK    5  A    between atoms: C_12  and  S_13
REMARK    6  A    between atoms: S_13  and  C_14
REMARK    7  A    between atoms: C_18  and  C_24
REMARK    8  A    between atoms: N_20  and  C_21
REMARK    9  A    between atoms: C_21  and  C_22
REMARK   10  A    between atoms: C_24  and  C_25
REMARK                            x       y       z     vdW  Elec       q    Type
REMARK                         _______ _______ _______ _____ _____    ______ ____
ROOT
ATOM      1  C   UNL     1       0.690  -8.711  -2.237  0.00  0.00    +0.200 C 
ATOM      2  N   UNL     1       1.969  -8.808  -1.486  0.00  0.00    -0.229 NA
ATOM      3  N   UNL     1       1.800 -10.040  -0.700  0.00  0.00    -0.237 NA
ATOM      4  C   UNL     1       0.377 -10.027  -0.294  0.00  0.00    +0.145 C 
ATOM      5  N   UNL     1      -0.335  -9.182  -1.278  0.00  0.00    -0.257 NA
ATOM      6  H   UNL     1       2.753  -8.886  -2.116  0.00  0.00    +0.143 HD
ATOM      7  H   UNL     1       2.010 -10.856  -1.256  0.00  0.00    +0.142 HD
ENDROOT
BRANCH   1   8
ATOM      8  S   UNL     1       0.366  -6.993  -2.721  0.00  0.00    -0.116 S 
BRANCH   8   9
ATOM      9  C   UNL     1       1.444  -6.730  -4.156  0.00  0.00    +0.168 C 
BRANCH   9  11
ATOM     10  N   UNL     1       2.084  -4.860  -5.643  0.00  0.00    -0.285 N 
ATOM     11  C   UNL     1       1.363  -5.289  -4.588  0.00  0.00    +0.227 C 
ATOM     12  O   UNL     1       0.648  -4.515  -3.987  0.00  0.00    -0.275 OA
ATOM     13  H   UNL     1       2.598  -5.492  -6.169  0.00  0.00    +0.155 HD
BRANCH  10  18
ATOM     14  C   UNL     1       2.115   0.647  -7.005  0.00  0.00    +0.044 C 
ATOM     15  C   UNL     1       2.107  -0.816  -6.643  0.00  0.00    -0.050 A 
ATOM     16  C   UNL     1       0.963  -1.390  -6.119  0.00  0.00    +0.005 A 
ATOM     17  C   UNL     1       0.952  -2.730  -5.786  0.00  0.00    +0.024 A 
ATOM     18  C   UNL     1       2.091  -3.502  -5.979  0.00  0.00    +0.036 A 
ATOM     19  C   UNL     1       3.237  -2.922  -6.506  0.00  0.00    -0.029 A 
ATOM     20  C   UNL     1       3.240  -1.581  -6.841  0.00  0.00    +0.008 A 
ATOM     21  C   UNL     1       4.476  -3.755  -6.718  0.00  0.00    +0.045 C 
ENDBRANCH  10  18
ENDBRANCH   9  11
ENDBRANCH   8   9
ENDBRANCH   1   8
BRANCH   5  22
ATOM     22  C   UNL     1      -0.997  -8.049  -0.616  0.00  0.00    +0.115 C 
BRANCH  22  23
ATOM     23  C   UNL     1      -2.103  -8.560   0.269  0.00  0.00    -0.019 C 
ATOM     24  C   UNL     1      -2.116  -8.257   1.543  0.00  0.00    +0.005 C 
ENDBRANCH  22  23
ENDBRANCH   5  22
BRANCH   4  25
ATOM     25  C   UNL     1      -0.189 -11.449  -0.320  0.00  0.00    +0.069 C 
BRANCH  25  26
ATOM     26  C   UNL     1       0.483 -12.277   0.745  0.00  0.00    -0.039 C 
ATOM     27  C   UNL     1       0.030 -12.513   1.997  0.00  0.00    -0.001 A 
ATOM     28  C   UNL     1      -1.176 -12.085   2.716  0.00  0.00    +0.010 A 
ATOM     29  C   UNL     1      -1.357 -12.491   3.993  0.00  0.00    +0.001 A 
ATOM     30  C   UNL     1      -0.424 -13.308   4.646  0.00  0.00    +0.002 A 
ATOM     31  C   UNL     1       0.708 -13.742   4.052  0.00  0.00    +0.026 A 
ATOM     32  C   UNL     1       1.000 -13.376   2.709  0.00  0.00    +0.043 A 
ATOM     33  N   UNL     1       2.013 -13.662   1.927  0.00  0.00    -0.380 N 
ATOM     34  C   UNL     1       1.796 -13.017   0.627  0.00  0.00    +0.144 C 
ATOM     35  H   UNL     1       2.775 -14.211   2.167  0.00  0.00    +0.160 HD
ENDBRANCH  25  26
ENDBRANCH   4  25
TORSDOF 8
