REMARK  Name = ZINC64186247
REMARK  7 active torsions:
REMARK  status: ('A' for Active; 'I' for Inactive)
REMARK    1  A    between atoms: C_1  and  C_2
REMARK    2  A    between atoms: C_6  and  C_8
REMARK    3  A    between atoms: C_9  and  C_10
REMARK    4  A    between atoms: C_14  and  S_16
REMARK    5  A    between atoms: S_16  and  C_17
REMARK    6  A    between atoms: C_17  and  C_18
REMARK    7  A    between atoms: N_20  and  C_21
REMARK                            x       y       z     vdW  Elec       q    Type
REMARK                         _______ _______ _______ _____ _____    ______ ____
ROOT
ATOM      1  C   UNL     1       8.321  -1.434   6.385  0.00  0.00    +0.173 C 
ENDROOT
BRANCH   1   2
ATOM      2  C   UNL     1       9.806  -1.636   6.542  0.00  0.00    +0.227 C 
ATOM      3  O   UNL     1      10.511  -1.748   5.561  0.00  0.00    -0.275 OA
ATOM      4  N   UNL     1      10.352  -1.691   7.773  0.00  0.00    -0.285 N 
ATOM      5  H   UNL     1       9.801  -1.534   8.556  0.00  0.00    +0.155 HD
BRANCH   4   6
ATOM      6  C   UNL     1      11.716  -1.975   7.923  0.00  0.00    +0.037 A 
ATOM      7  C   UNL     1      12.154  -2.727   9.004  0.00  0.00    +0.027 A 
ATOM      8  C   UNL     1      13.499  -3.008   9.153  0.00  0.00    +0.051 A 
ATOM      9  C   UNL     1      14.414  -2.540   8.223  0.00  0.00    +0.173 A 
ATOM     10  C   UNL     1      13.977  -1.785   7.137  0.00  0.00    +0.174 A 
ATOM     11  C   UNL     1      12.629  -1.509   6.986  0.00  0.00    +0.073 A 
ATOM     12  O   UNL     1      15.060  -1.448   6.377  0.00  0.00    -0.395 OA
ATOM     13  C   UNL     1      16.205  -1.655   7.225  0.00  0.00    +0.589 C 
ATOM     14  O   UNL     1      15.771  -2.675   8.143  0.00  0.00    -0.395 OA
ATOM     15  F   UNL     1      17.298  -2.101   6.475  0.00  0.00    -0.125 F 
ATOM     16  F   UNL     1      16.526  -0.479   7.913  0.00  0.00    -0.125 F 
ENDBRANCH   4   6
ENDBRANCH   1   2
BRANCH   1  17
ATOM     17  S   UNL     1       7.899  -1.404   4.621  0.00  0.00    -0.075 S 
BRANCH  17  22
ATOM     18  C   UNL     1       4.133  -0.898   3.856  0.00  0.00    +0.150 A 
ATOM     19  N   UNL     1       4.075  -0.868   5.216  0.00  0.00    -0.258 N 
ATOM     20  H   UNL     1       3.282  -0.750   5.762  0.00  0.00    +0.191 HD
ATOM     21  N   UNL     1       5.392  -1.042   5.669  0.00  0.00    -0.145 NA
ATOM     22  C   UNL     1       6.153  -1.164   4.605  0.00  0.00    +0.209 A 
ATOM     23  N   UNL     1       5.396  -1.083   3.511  0.00  0.00    -0.202 NA
BRANCH  18  25
ATOM     24  C   UNL     1       3.196  -0.812   1.607  0.00  0.00    +0.049 C 
ATOM     25  C   UNL     1       2.997  -0.757   2.939  0.00  0.00    +0.051 C 
BRANCH  24  30
ATOM     26  C   UNL     1      -0.003   1.557   0.003  0.00  0.00    +0.052 C 
ATOM     27  C   UNL     1       0.008   0.027   0.001  0.00  0.00    +0.174 C 
ATOM     28  C   UNL     1       0.786  -0.518  -1.221  0.00  0.00    +0.075 C 
ATOM     29  C   UNL     1       2.177  -0.714  -0.643  0.00  0.00    +0.022 C 
ATOM     30  C   UNL     1       2.059  -0.670   0.689  0.00  0.00    +0.117 C 
ATOM     31  O   UNL     1       0.782  -0.482   1.104  0.00  0.00    -0.489 OA
ENDBRANCH  24  30
ENDBRANCH  18  25
ENDBRANCH  17  22
ENDBRANCH   1  17
TORSDOF 6
