REMARK  Name = ZINC64408458
REMARK  10 active torsions:
REMARK  status: ('A' for Active; 'I' for Inactive)
REMARK    1  A    between atoms: C_1  and  C_2
REMARK    2  A    between atoms: C_5  and  S_8
REMARK    3  A    between atoms: S_8  and  N_11
REMARK    4  A    between atoms: N_11  and  C_12
REMARK    5  A    between atoms: C_15  and  C_18
REMARK    6  A    between atoms: C_18  and  C_19
REMARK    7  A    between atoms: C_19  and  C_20
REMARK    8  A    between atoms: N_22  and  C_23
REMARK    9  A    between atoms: C_23  and  C_24
REMARK   10  A    between atoms: C_24  and  C_25
REMARK                            x       y       z     vdW  Elec       q    Type
REMARK                         _______ _______ _______ _____ _____    ______ ____
ROOT
ATOM      1  C   UNL     1       6.266  -5.116   0.943  0.00  0.00    +0.060 C 
ENDROOT
BRANCH   1   4
ATOM      2  C   UNL     1       2.512  -4.699   1.113  0.00  0.00    +0.251 C 
ATOM      3  N   UNL     1       3.929  -4.606   0.706  0.00  0.00    -0.261 NA
ATOM      4  C   UNL     1       4.819  -5.210   1.354  0.00  0.00    +0.027 C 
ATOM      5  C   UNL     1       4.408  -6.039   2.563  0.00  0.00    +0.123 C 
ATOM      6  S   UNL     1       2.583  -6.124   2.285  0.00  0.00    -0.112 S 
BRANCH   2   7
ATOM      7  N   UNL     1       1.651  -4.999  -0.034  0.00  0.00    -0.157 NA
ATOM      8  H   UNL     1       2.011  -5.473  -0.800  0.00  0.00    +0.151 HD
BRANCH   7   9
ATOM      9  S   UNL     1       0.063  -4.530  -0.023  0.00  0.00    +0.061 S 
ATOM     10  O   UNL     1      -0.476  -4.950   1.223  0.00  0.00    -0.153 OA
ATOM     11  O   UNL     1      -0.490  -4.937  -1.267  0.00  0.00    -0.153 OA
BRANCH   9  16
ATOM     12  C   UNL     1      -0.018   1.503   0.010  0.00  0.00    +0.044 C 
ATOM     13  C   UNL     1       0.002  -0.004   0.002  0.00  0.00    -0.050 A 
ATOM     14  C   UNL     1       0.006  -0.689  -1.199  0.00  0.00    +0.005 A 
ATOM     15  C   UNL     1       0.025  -2.071  -1.206  0.00  0.00    +0.029 A 
ATOM     16  C   UNL     1       0.040  -2.768  -0.013  0.00  0.00    +0.105 A 
ATOM     17  C   UNL     1       0.037  -2.084   1.188  0.00  0.00    +0.029 A 
ATOM     18  C   UNL     1       0.023  -0.702   1.195  0.00  0.00    +0.005 A 
ENDBRANCH   9  16
ENDBRANCH   7   9
ENDBRANCH   2   7
ENDBRANCH   1   4
BRANCH   1  19
ATOM     19  C   UNL     1       6.388  -4.225  -0.294  0.00  0.00    +0.101 C 
BRANCH  19  20
ATOM     20  C   UNL     1       7.834  -4.131  -0.706  0.00  0.00    +0.213 C 
ATOM     21  O   UNL     1       8.684  -4.719  -0.072  0.00  0.00    -0.276 OA
ATOM     22  N   UNL     1       8.184  -3.393  -1.778  0.00  0.00    -0.315 N 
ATOM     23  H   UNL     1       7.504  -2.922  -2.285  0.00  0.00    +0.149 HD
BRANCH  22  24
ATOM     24  C   UNL     1       9.590  -3.302  -2.178  0.00  0.00    +0.108 C 
BRANCH  24  25
ATOM     25  C   UNL     1       9.711  -2.410  -3.416  0.00  0.00    +0.052 C 
BRANCH  25  26
ATOM     26  C   UNL     1      11.158  -2.317  -3.827  0.00  0.00    -0.040 C 
ATOM     27  C   UNL     1      11.789  -3.068  -4.758  0.00  0.00    -0.001 A 
ATOM     28  C   UNL     1      11.335  -4.157  -5.632  0.00  0.00    +0.010 A 
ATOM     29  C   UNL     1      12.220  -4.729  -6.480  0.00  0.00    +0.001 A 
ATOM     30  C   UNL     1      13.556  -4.310  -6.545  0.00  0.00    +0.002 A 
ATOM     31  C   UNL     1      14.047  -3.317  -5.774  0.00  0.00    +0.026 A 
ATOM     32  C   UNL     1      13.205  -2.644  -4.846  0.00  0.00    +0.043 A 
ATOM     33  N   UNL     1      13.440  -1.668  -4.003  0.00  0.00    -0.380 N 
ATOM     34  C   UNL     1      12.197  -1.359  -3.287  0.00  0.00    +0.144 C 
ATOM     35  H   UNL     1      14.292  -1.223  -3.876  0.00  0.00    +0.160 HD
ENDBRANCH  25  26
ENDBRANCH  24  25
ENDBRANCH  22  24
ENDBRANCH  19  20
ENDBRANCH   1  19
TORSDOF 9
