REMARK  Name = ZINC37289414
REMARK  6 active torsions:
REMARK  status: ('A' for Active; 'I' for Inactive)
REMARK    1  A    between atoms: C_1  and  C_2
REMARK    2  A    between atoms: C_6  and  C_8
REMARK    3  A    between atoms: C_8  and  O_9
REMARK    4  A    between atoms: O_9  and  C_10
REMARK    5  A    between atoms: C_13  and  C_17
REMARK    6  A    between atoms: C_15  and  N_16
REMARK                            x       y       z     vdW  Elec       q    Type
REMARK                         _______ _______ _______ _____ _____    ______ ____
ROOT
ATOM      1  C   UNL     1       1.599  -3.744   4.054  0.00  0.00    +0.142 A 
ATOM      2  C   UNL     1       0.506  -4.190   4.785  0.00  0.00    +0.048 A 
ATOM      3  C   UNL     1       0.695  -4.877   5.964  0.00  0.00    +0.019 A 
ATOM      4  C   UNL     1       1.991  -5.128   6.428  0.00  0.00    +0.065 A 
ATOM      5  C   UNL     1       3.092  -4.680   5.691  0.00  0.00    +0.041 A 
ATOM      6  C   UNL     1       2.895  -3.996   4.506  0.00  0.00    +0.068 A 
ENDROOT
BRANCH   6   7
ATOM      7  N   UNL     1       3.995  -3.551   3.763  0.00  0.00    -0.355 N 
ATOM      8  H   UNL     1       3.856  -3.067   2.934  0.00  0.00    +0.142 HD
ATOM      9  H   UNL     1       4.896  -3.726   4.078  0.00  0.00    +0.142 HD
ENDBRANCH   6   7
BRANCH   4  10
ATOM     10  C   UNL     1       2.194  -5.862   7.688  0.00  0.00    +0.387 C 
ATOM     11  O   UNL     1       1.229  -6.252   8.331  0.00  0.00    -0.241 OA
ATOM     12  O   UNL     1       3.328  -6.081   8.092  0.00  0.00    -0.241 OA
ENDBRANCH   4  10
BRANCH   1  13
ATOM     13  O   UNL     1       1.406  -3.067   2.893  0.00  0.00    -0.486 OA
BRANCH  13  14
ATOM     14  C   UNL     1       0.054  -2.845   2.489  0.00  0.00    +0.264 C 
BRANCH  14  20
ATOM     15  C   UNL     1      -0.018   1.503   0.010  0.00  0.00    +0.044 C 
ATOM     16  C   UNL     1       0.002  -0.004   0.002  0.00  0.00    -0.050 A 
ATOM     17  C   UNL     1       0.006  -0.689  -1.199  0.00  0.00    +0.003 A 
ATOM     18  C   UNL     1       0.025  -2.071  -1.207  0.00  0.00    +0.001 A 
ATOM     19  C   UNL     1       0.040  -2.768  -0.013  0.00  0.00    +0.007 A 
ATOM     20  C   UNL     1       0.037  -2.084   1.188  0.00  0.00    -0.010 A 
ATOM     21  C   UNL     1       0.023  -0.702   1.195  0.00  0.00    +0.010 A 
ENDBRANCH  14  20
ENDBRANCH  13  14
ENDBRANCH   1  13
TORSDOF 5
