REMARK  Name = ZINC14549217
REMARK  7 active torsions:
REMARK  status: ('A' for Active; 'I' for Inactive)
REMARK    1  A    between atoms: C_1  and  C_2
REMARK    2  A    between atoms: C_2  and  C_3
REMARK    3  A    between atoms: C_2  and  C_4
REMARK    4  A    between atoms: C_2  and  N_5
REMARK    5  A    between atoms: N_5  and  S_6
REMARK    6  A    between atoms: S_6  and  C_9
REMARK    7  A    between atoms: C_22  and  C_25
REMARK                            x       y       z     vdW  Elec       q    Type
REMARK                         _______ _______ _______ _____ _____    ______ ____
ROOT
ATOM      1  C   UNL     1      -3.215  -4.098  -0.759  0.00  0.00    +0.106 A 
ATOM      2  C   UNL     1      -3.455  -4.012  -2.119  0.00  0.00    +0.030 A 
ATOM      3  C   UNL     1      -3.235  -2.826  -2.788  0.00  0.00    +0.025 A 
ATOM      4  C   UNL     1      -2.769  -1.710  -2.103  0.00  0.00    +0.031 A 
ATOM      5  C   UNL     1      -2.517  -1.807  -0.730  0.00  0.00    -0.018 A 
ATOM      6  C   UNL     1      -2.747  -2.994  -0.070  0.00  0.00    +0.034 A 
ATOM      7  C   UNL     1      -1.995  -0.605  -0.046  0.00  0.00    +0.049 C 
ATOM      8  C   UNL     1      -2.214  -0.367   1.404  0.00  0.00    -0.023 C 
ATOM      9  C   UNL     1      -2.275   0.942   1.614  0.00  0.00    -0.030 C 
ATOM     10  C   UNL     1      -2.132   1.692   0.288  0.00  0.00    +0.033 C 
ATOM     11  C   UNL     1      -2.638   0.646  -0.715  0.00  0.00    +0.029 C 
ATOM     12  C   UNL     1      -2.059   0.696  -2.118  0.00  0.00    +0.106 C 
ATOM     13  N   UNL     1      -2.567  -0.513  -2.802  0.00  0.00    -0.336 N 
ATOM     14  H   UNL     1      -2.762  -0.477  -3.751  0.00  0.00    +0.147 HD
ENDROOT
BRANCH  12  15
ATOM     15  C   UNL     1      -2.533   1.936  -2.833  0.00  0.00    -0.012 A 
ATOM     16  C   UNL     1      -3.859   2.041  -3.249  0.00  0.00    -0.012 A 
ATOM     17  C   UNL     1      -4.785   1.004  -3.003  0.00  0.00    +0.009 A 
ATOM     18  C   UNL     1      -6.070   1.142  -3.417  0.00  0.00    +0.001 A 
ATOM     19  C   UNL     1      -6.509   2.289  -4.079  0.00  0.00    +0.001 A 
ATOM     20  C   UNL     1      -5.672   3.326  -4.342  0.00  0.00    +0.008 A 
ATOM     21  C   UNL     1      -4.322   3.250  -3.939  0.00  0.00    -0.017 A 
ATOM     22  C   UNL     1      -3.435   4.295  -4.193  0.00  0.00    +0.017 A 
ATOM     23  C   UNL     1      -2.108   4.187  -3.782  0.00  0.00    -0.017 A 
ATOM     24  C   UNL     1      -1.647   2.981  -3.086  0.00  0.00    -0.012 A 
ATOM     25  C   UNL     1      -0.296   2.905  -2.683  0.00  0.00    +0.009 A 
ATOM     26  C   UNL     1       0.540   3.942  -2.946  0.00  0.00    +0.001 A 
ATOM     27  C   UNL     1       0.101   5.089  -3.607  0.00  0.00    +0.001 A 
ATOM     28  C   UNL     1      -1.184   5.227  -4.022  0.00  0.00    +0.008 A 
ENDBRANCH  12  15
BRANCH   1  29
ATOM     29  S   UNL     1      -3.507  -5.612   0.094  0.00  0.00    +0.059 S 
ATOM     30  O   UNL     1      -3.658  -6.615  -0.900  0.00  0.00    -0.153 OA
ATOM     31  O   UNL     1      -2.526  -5.696   1.119  0.00  0.00    -0.153 OA
BRANCH  29  32
ATOM     32  N   UNL     1      -4.972  -5.472   0.852  0.00  0.00    -0.185 NA
ATOM     33  H   UNL     1      -5.017  -5.446   1.821  0.00  0.00    +0.149 HD
BRANCH  32  35
ATOM     34  C   UNL     1      -6.427  -6.712  -0.674  0.00  0.00    +0.029 C 
ATOM     35  C   UNL     1      -6.202  -5.388   0.060  0.00  0.00    +0.032 C 
ATOM     36  C   UNL     1      -7.387  -5.110   0.986  0.00  0.00    +0.029 C 
ATOM     37  C   UNL     1      -6.075  -4.255  -0.960  0.00  0.00    +0.029 C 
ENDBRANCH  32  35
ENDBRANCH  29  32
ENDBRANCH   1  29
TORSDOF 4
