REMARK  Name = ZINC38856358
REMARK  7 active torsions:
REMARK  status: ('A' for Active; 'I' for Inactive)
REMARK    1  A    between atoms: C_1  and  O_2
REMARK    2  A    between atoms: O_2  and  C_3
REMARK    3  A    between atoms: C_6  and  N_27
REMARK    4  A    between atoms: C_8  and  N_9
REMARK    5  A    between atoms: C_10  and  C_12
REMARK    6  A    between atoms: N_15  and  C_18
REMARK    7  A    between atoms: C_18  and  C_19
REMARK                            x       y       z     vdW  Elec       q    Type
REMARK                         _______ _______ _______ _____ _____    ______ ____
ROOT
ATOM      1  C   UNL     1      -0.648  -4.951   0.805  0.00  0.00    +0.072 C 
ATOM      2  C   UNL     1       0.004  -4.727   2.173  0.00  0.00    -0.006 C 
ATOM      3  C   UNL     1      -0.668  -5.633   3.207  0.00  0.00    -0.078 C 
ATOM      4  N   UNL     1      -0.508  -7.037   2.810  0.00  0.00    +0.382 N 
ATOM      5  C   UNL     1      -1.192  -7.276   1.534  0.00  0.00    -0.078 C 
ATOM      6  C   UNL     1      -0.540  -6.433   0.436  0.00  0.00    -0.006 C 
ATOM      7  H   UNL     1       0.474  -7.247   2.708  0.00  0.00    -0.081 HD
ENDROOT
BRANCH   1   9
ATOM      8  N   UNL     1       0.095  -2.777  -0.112  0.00  0.00    -0.282 N 
ATOM      9  C   UNL     1       0.060  -4.119  -0.233  0.00  0.00    +0.220 C 
ATOM     10  O   UNL     1       0.599  -4.658  -1.176  0.00  0.00    -0.275 OA
ATOM     11  H   UNL     1      -0.265  -2.352   0.681  0.00  0.00    +0.155 HD
BRANCH   8  17
ATOM     12  C   UNL     1       1.159  -0.731  -0.849  0.00  0.00    +0.141 A 
ATOM     13  C   UNL     1       1.713   0.034  -1.862  0.00  0.00    +0.050 A 
ATOM     14  C   UNL     1       1.756  -0.456  -3.154  0.00  0.00    +0.036 A 
ATOM     15  C   UNL     1       1.248  -1.710  -3.439  0.00  0.00    +0.128 A 
ATOM     16  C   UNL     1       0.694  -2.480  -2.434  0.00  0.00    +0.059 A 
ATOM     17  C   UNL     1       0.652  -1.997  -1.134  0.00  0.00    +0.078 A 
BRANCH  15  18
ATOM     18  N   UNL     1       1.297  -2.229  -4.824  0.00  0.00    +0.056 N 
ATOM     19  O   UNL     1       1.781  -1.556  -5.705  0.00  0.00    -0.126 OA
ATOM     20  O   UNL     1       0.853  -3.325  -5.075  0.00  0.00    -0.126 OA
ENDBRANCH  15  18
BRANCH  12  22
ATOM     21  C   UNL     1       1.653   1.055   0.641  0.00  0.00    +0.277 C 
ATOM     22  O   UNL     1       1.115  -0.250   0.423  0.00  0.00    -0.493 OA
ENDBRANCH  12  22
ENDBRANCH   8  17
ENDBRANCH   1   9
BRANCH   4  23
ATOM     23  C   UNL     1      -1.086  -7.906   3.844  0.00  0.00    -0.042 C 
BRANCH  23  24
ATOM     24  C   UNL     1      -0.814  -9.348   3.499  0.00  0.00    -0.046 A 
ATOM     25  C   UNL     1      -1.799 -10.113   2.903  0.00  0.00    +0.004 A 
ATOM     26  C   UNL     1      -1.550 -11.435   2.586  0.00  0.00    +0.020 A 
ATOM     27  C   UNL     1      -0.315 -11.993   2.865  0.00  0.00    +0.042 A 
ATOM     28  C   UNL     1       0.671 -11.227   3.461  0.00  0.00    +0.040 A 
ATOM     29  C   UNL     1       0.423  -9.903   3.773  0.00  0.00    +0.044 A 
ATOM     30 CL   UNL     1       1.661  -8.939   4.516  0.00  0.00    -0.083 Cl
ATOM     31 CL   UNL     1      -0.003 -13.654   2.467  0.00  0.00    -0.083 Cl
ENDBRANCH  23  24
ENDBRANCH   4  23
TORSDOF 6
