REMARK  Name = ZINC15672925
REMARK  12 active torsions:
REMARK  status: ('A' for Active; 'I' for Inactive)
REMARK    1  A    between atoms: C_1  and  C_2
REMARK    2  A    between atoms: C_2  and  C_3
REMARK    3  A    between atoms: C_3  and  C_4
REMARK    4  A    between atoms: C_4  and  N_76
REMARK    5  A    between atoms: C_5  and  C_6
REMARK    6  A    between atoms: C_5  and  N_76
REMARK    7  A    between atoms: C_7  and  C_8
REMARK    8  A    between atoms: C_7  and  N_76
REMARK    9  A    between atoms: C_8  and  N_9
REMARK   10  A    between atoms: C_18  and  C_19
REMARK   11  A    between atoms: C_18  and  C_20
REMARK   12  A    between atoms: N_22  and  C_23
REMARK                            x       y       z     vdW  Elec       q    Type
REMARK                         _______ _______ _______ _____ _____    ______ ____
ROOT
ATOM      1  N   UNL     1       5.079  -2.989   2.670  0.00  0.00    -0.282 N 
ATOM      2  C   UNL     1       4.337  -2.568   3.721  0.00  0.00    +0.264 C 
ATOM      3  O   UNL     1       4.720  -1.682   4.464  0.00  0.00    -0.268 OA
ATOM      4  C   UNL     1       3.045  -3.238   3.917  0.00  0.00    +0.106 A 
ATOM      5  C   UNL     1       2.008  -2.943   4.750  0.00  0.00    +0.048 A 
ATOM      6  C   UNL     1       1.024  -3.900   4.534  0.00  0.00    +0.038 A 
ATOM      7  C   UNL     1       1.460  -4.810   3.558  0.00  0.00    +0.057 A 
ATOM      8  N   UNL     1       2.726  -4.385   3.198  0.00  0.00    -0.333 N 
ATOM      9  C   UNL     1       3.658  -4.982   2.239  0.00  0.00    +0.157 C 
ATOM     10  C   UNL     1       4.540  -3.881   1.650  0.00  0.00    +0.128 C 
ATOM     11  C   UNL     1       5.703  -4.530   0.897  0.00  0.00    +0.043 C 
ATOM     12  C   UNL     1       0.556  -5.833   3.237  0.00  0.00    +0.034 A 
ATOM     13  C   UNL     1      -0.642  -5.900   3.855  0.00  0.00    +0.048 A 
ATOM     14  S   UNL     1      -0.592  -4.498   4.958  0.00  0.00    -0.095 S 
ENDROOT
BRANCH  10  15
ATOM     15  C   UNL     1       3.723  -3.070   0.677  0.00  0.00    +0.238 C 
ATOM     16  O   UNL     1       3.708  -3.368  -0.498  0.00  0.00    -0.273 OA
ATOM     17  N   UNL     1       3.009  -2.014   1.114  0.00  0.00    -0.311 N 
ATOM     18  H   UNL     1       3.020  -1.775   2.054  0.00  0.00    +0.149 HD
BRANCH  17  19
ATOM     19  C   UNL     1       2.214  -1.226   0.168  0.00  0.00    +0.073 C 
ATOM     20  C   UNL     1       1.068  -0.539   0.913  0.00  0.00    +0.022 C 
ATOM     21  C   UNL     1       0.024  -0.053  -0.094  0.00  0.00    +0.002 C 
ATOM     22  C   UNL     1      -0.002   1.477  -0.105  0.00  0.00    +0.000 C 
ATOM     23  C   UNL     1       1.432   2.010  -0.108  0.00  0.00    +0.000 C 
ATOM     24  C   UNL     1       2.034   1.849  -1.506  0.00  0.00    +0.000 C 
ATOM     25  C   UNL     1       2.408   0.383  -1.733  0.00  0.00    +0.002 C 
ATOM     26  C   UNL     1       3.103  -0.166  -0.486  0.00  0.00    +0.022 C 
ENDBRANCH  17  19
ENDBRANCH  10  15
BRANCH   1  27
ATOM     27  C   UNL     1       6.467  -2.534   2.554  0.00  0.00    +0.091 C 
BRANCH  27  28
ATOM     28  C   UNL     1       6.512  -1.235   1.748  0.00  0.00    -0.060 C 
BRANCH  28  29
ATOM     29  N   UNL     1       7.896  -0.716   1.763  0.00  0.00    +0.381 N 
ATOM     30  H   UNL     1       8.281  -0.821   2.709  0.00  0.00    -0.082 HD
BRANCH  29  31
ATOM     31  C   UNL     1       7.902   0.717   1.398  0.00  0.00    -0.082 C 
ATOM     32  C   UNL     1       7.440   1.532   2.607  0.00  0.00    -0.017 C 
ENDBRANCH  29  31
BRANCH  29  33
ATOM     33  C   UNL     1       8.733  -1.482   0.816  0.00  0.00    -0.079 C 
BRANCH  33  34
ATOM     34  C   UNL     1      10.196  -1.078   1.013  0.00  0.00    -0.019 C 
BRANCH  34  36
ATOM     35  C   UNL     1      12.542  -1.476   0.251  0.00  0.00    +0.004 C 
ATOM     36  C   UNL     1      11.079  -1.879   0.054  0.00  0.00    -0.005 C 
ENDBRANCH  34  36
ENDBRANCH  33  34
ENDBRANCH  29  33
ENDBRANCH  28  29
ENDBRANCH  27  28
ENDBRANCH   1  27
TORSDOF 9
