REMARK  Name = ZINC55304903
REMARK  2 active torsions:
REMARK  status: ('A' for Active; 'I' for Inactive)
REMARK    1  A    between atoms: C_6  and  C_7
REMARK    2  A    between atoms: C_7  and  C_9
REMARK                            x       y       z     vdW  Elec       q    Type
REMARK                         _______ _______ _______ _____ _____    ______ ____
ROOT
ATOM      1  C   UNL     1      -0.017   1.379   0.010  0.00  0.00    +0.007 A 
ATOM      2  C   UNL     1       1.168   2.090   0.002  0.00  0.00    +0.030 A 
ATOM      3  C   UNL     1       2.377   1.414  -0.013  0.00  0.00    +0.087 A 
ATOM      4  C   UNL     1       2.397   0.019  -0.021  0.00  0.00    +0.157 A 
ATOM      5  C   UNL     1       1.204  -0.685  -0.013  0.00  0.00    +0.053 A 
ATOM      6  C   UNL     1       0.002  -0.004   0.002  0.00  0.00    -0.028 A 
ATOM      7  O   UNL     1       3.697  -0.364  -0.036  0.00  0.00    -0.408 OA
ATOM      8  C   UNL     1       4.479   0.727  -0.038  0.00  0.00    +0.419 A 
ATOM      9  O   UNL     1       5.695   0.719  -0.050  0.00  0.00    -0.223 OA
ATOM     10  N   UNL     1       3.708   1.832  -0.024  0.00  0.00    -0.288 N 
ATOM     11  H   UNL     1       4.021   2.750  -0.022  0.00  0.00    +0.172 HD
ENDROOT
BRANCH   6  12
ATOM     12  C   UNL     1      -1.295  -0.772   0.010  0.00  0.00    +0.117 C 
ATOM     13 BR   UNL     1      -2.415  -0.182  -1.494  0.00  0.00    -0.080 Br
BRANCH  12  14
ATOM     14  C   UNL     1      -2.032  -0.514   1.326  0.00  0.00    +0.162 C 
ATOM     15  C   UNL     1      -3.285  -1.391   1.391  0.00  0.00    +0.192 C 
ATOM     16  O   UNL     1      -3.907  -1.227   2.669  0.00  0.00    -0.375 OA
ATOM     17  C   UNL     1      -3.050  -1.551   3.768  0.00  0.00    +0.188 C 
ATOM     18  C   UNL     1      -1.797  -0.674   3.703  0.00  0.00    +0.188 C 
ATOM     19  O   UNL     1      -1.174  -0.836   2.425  0.00  0.00    -0.371 OA
ENDBRANCH  12  14
ENDBRANCH   6  12
TORSDOF 2
