REMARK  Name = ZINC21242362
REMARK  10 active torsions:
REMARK  status: ('A' for Active; 'I' for Inactive)
REMARK    1  A    between atoms: C_1  and  O_2
REMARK    2  A    between atoms: O_2  and  C_3
REMARK    3  A    between atoms: C_5  and  C_13
REMARK    4  A    between atoms: C_7  and  O_11
REMARK    5  A    between atoms: C_8  and  O_9
REMARK    6  A    between atoms: O_9  and  C_10
REMARK    7  A    between atoms: O_11  and  C_12
REMARK    8  A    between atoms: C_18  and  C_28
REMARK    9  A    between atoms: C_31  and  O_37
REMARK   10  A    between atoms: C_32  and  N_34
REMARK                            x       y       z     vdW  Elec       q    Type
REMARK                         _______ _______ _______ _____ _____    ______ ____
ROOT
ATOM      1  C   UNL     1       0.339   1.578   0.462  0.00  0.00    +0.032 C 
ATOM      2  C   UNL     1      -0.348   1.885  -0.867  0.00  0.00    +0.059 C 
ATOM      3  C   UNL     1      -0.502   3.389  -1.032  0.00  0.00    +0.017 C 
ATOM      4  C   UNL     1       0.428   4.222  -0.541  0.00  0.00    +0.036 C 
ATOM      5  C   UNL     1       0.429   5.727  -0.672  0.00  0.00    +0.136 C 
ATOM      6  N   UNL     1      -0.815   6.281  -1.163  0.00  0.00    -0.331 N 
ATOM      7  C   UNL     1      -1.272   5.994  -2.446  0.00  0.00    +0.049 A 
ATOM      8  C   UNL     1      -1.337   6.975  -3.425  0.00  0.00    +0.025 A 
ATOM      9  C   UNL     1      -1.725   6.632  -4.708  0.00  0.00    +0.002 A 
ATOM     10  C   UNL     1      -2.049   5.323  -5.017  0.00  0.00    +0.002 A 
ATOM     11  C   UNL     1      -2.006   4.345  -4.037  0.00  0.00    +0.025 A 
ATOM     12  C   UNL     1      -1.636   4.691  -2.750  0.00  0.00    +0.052 A 
ATOM     13  N   UNL     1      -1.617   3.769  -1.708  0.00  0.00    -0.316 N 
ATOM     14  C   UNL     1       1.536   3.712   0.177  0.00  0.00    +0.163 C 
ATOM     15  O   UNL     1       2.371   4.490   0.594  0.00  0.00    -0.292 OA
ATOM     16  C   UNL     1       1.718   2.248   0.441  0.00  0.00    +0.088 C 
ATOM     17  H   UNL     1      -1.415   6.941  -0.519  0.00  0.00    +0.147 HD
ATOM     18  H   UNL     1      -2.594   3.340  -1.441  0.00  0.00    +0.152 HD
ENDROOT
BRANCH   1  21
ATOM     19  C   UNL     1       0.082  -1.922   1.866  0.00  0.00    +0.165 A 
ATOM     20  C   UNL     1      -0.061  -0.551   1.714  0.00  0.00    +0.053 A 
ATOM     21  C   UNL     1       0.498   0.088   0.623  0.00  0.00    -0.036 A 
ATOM     22  C   UNL     1       1.197  -0.637  -0.324  0.00  0.00    +0.053 A 
ATOM     23  C   UNL     1       1.349  -2.007  -0.176  0.00  0.00    +0.165 A 
ATOM     24  C   UNL     1       0.788  -2.654   0.919  0.00  0.00    +0.204 A 
BRANCH  19  26
ATOM     25  C   UNL     1      -1.181  -1.734   3.873  0.00  0.00    +0.277 C 
ATOM     26  O   UNL     1      -0.469  -2.549   2.939  0.00  0.00    -0.491 OA
ENDBRANCH  19  26
BRANCH  24  27
ATOM     27  O   UNL     1       0.931  -3.999   1.064  0.00  0.00    -0.488 OA
ATOM     28  C   UNL     1      -0.074  -4.826   0.475  0.00  0.00    +0.277 C 
ENDBRANCH  24  27
BRANCH  23  29
ATOM     29  O   UNL     1       2.042  -2.719  -1.106  0.00  0.00    -0.491 OA
ATOM     30  C   UNL     1       2.591  -1.990  -2.205  0.00  0.00    +0.277 C 
ENDBRANCH  23  29
ENDBRANCH   1  21
BRANCH   5  31
ATOM     31  C   UNL     1       1.536   6.125  -1.615  0.00  0.00    -0.020 A 
ATOM     32  C   UNL     1       1.498   5.718  -2.936  0.00  0.00    +0.009 A 
ATOM     33  C   UNL     1       2.509   6.085  -3.802  0.00  0.00    +0.048 A 
ATOM     34  C   UNL     1       3.568   6.855  -3.344  0.00  0.00    +0.147 A 
ATOM     35  C   UNL     1       3.607   7.257  -2.017  0.00  0.00    +0.168 A 
ATOM     36  C   UNL     1       2.591   6.892  -1.155  0.00  0.00    +0.042 A 
BRANCH  35  37
ATOM     37  N   UNL     1       4.736   8.078  -1.524  0.00  0.00    +0.060 N 
ATOM     38  O   UNL     1       4.770   8.431  -0.359  0.00  0.00    -0.126 OA
ATOM     39  O   UNL     1       5.632   8.400  -2.285  0.00  0.00    -0.126 OA
ENDBRANCH  35  37
BRANCH  34  40
ATOM     40  O   UNL     1       4.566   7.214  -4.193  0.00  0.00    -0.504 OA
ATOM     41  H   UNL     1       5.406   7.824  -3.829  0.00  0.00    +0.292 HD
ENDBRANCH  34  40
ENDBRANCH   5  31
TORSDOF 7
