REMARK  Name = ZINC00708493
REMARK  11 active torsions:
REMARK  status: ('A' for Active; 'I' for Inactive)
REMARK    1  A    between atoms: C_1  and  C_2
REMARK    2  A    between atoms: C_2  and  O_3
REMARK    3  A    between atoms: O_3  and  C_4
REMARK    4  A    between atoms: C_6  and  C_11
REMARK    5  A    between atoms: C_9  and  O_10
REMARK    6  A    between atoms: C_18  and  C_37
REMARK    7  A    between atoms: C_19  and  C_34
REMARK    8  A    between atoms: C_20  and  C_22
REMARK    9  A    between atoms: C_31  and  O_32
REMARK   10  A    between atoms: O_32  and  C_33
REMARK   11  A    between atoms: C_34  and  C_36
REMARK                            x       y       z     vdW  Elec       q    Type
REMARK                         _______ _______ _______ _____ _____    ______ ____
ROOT
ATOM      1  C   UNL     1       0.312   3.268   0.715  0.00  0.00    +0.028 C 
ATOM      2  C   UNL     1       1.263   2.531   0.084  0.00  0.00    +0.081 A 
ATOM      3  C   UNL     1       2.617   2.918  -0.337  0.00  0.00    +0.268 A 
ATOM      4  O   UNL     1       3.053   4.037  -0.138  0.00  0.00    -0.266 OA
ATOM      5  N   UNL     1       3.349   1.976  -0.952  0.00  0.00    -0.275 N 
ATOM      6  C   UNL     1       2.796   0.735  -1.144  0.00  0.00    +0.178 A 
ATOM      7  N   UNL     1       3.417  -0.262  -1.732  0.00  0.00    -0.228 NA
ATOM      8  C   UNL     1       4.648  -0.208  -2.215  0.00  0.00    +0.050 C 
ATOM      9  C   UNL     1       5.386   0.958  -2.123  0.00  0.00    +0.043 C 
ATOM     10  C   UNL     1       4.739   2.151  -1.459  0.00  0.00    +0.162 C 
ATOM     11  C   UNL     1       5.249  -1.425  -2.870  0.00  0.00    +0.066 C 
ATOM     12  S   UNL     1       1.206   0.834  -0.463  0.00  0.00    -0.046 S 
ENDROOT
BRANCH  10  13
ATOM     13  C   UNL     1       5.607   2.562  -0.298  0.00  0.00    +0.029 A 
ATOM     14  C   UNL     1       5.745   1.717   0.815  0.00  0.00    -0.009 A 
ATOM     15  C   UNL     1       5.094   0.472   0.870  0.00  0.00    +0.009 A 
ATOM     16  C   UNL     1       5.256  -0.325   1.962  0.00  0.00    +0.001 A 
ATOM     17  C   UNL     1       6.063   0.072   3.027  0.00  0.00    +0.001 A 
ATOM     18  C   UNL     1       6.712   1.268   3.006  0.00  0.00    +0.008 A 
ATOM     19  C   UNL     1       6.570   2.118   1.896  0.00  0.00    -0.017 A 
ATOM     20  C   UNL     1       7.227   3.360   1.840  0.00  0.00    +0.012 A 
ATOM     21  C   UNL     1       7.068   4.158   0.751  0.00  0.00    +0.046 A 
ATOM     22  C   UNL     1       6.259   3.762  -0.319  0.00  0.00    +0.126 A 
BRANCH  22  23
ATOM     23  O   UNL     1       6.121   4.582  -1.394  0.00  0.00    -0.495 OA
ATOM     24  C   UNL     1       6.827   5.823  -1.359  0.00  0.00    +0.277 C 
ENDBRANCH  22  23
ENDBRANCH  10  13
BRANCH   1  27
ATOM     25  C   UNL     1      -0.021   6.916   1.515  0.00  0.00    +0.162 A 
ATOM     26  C   UNL     1      -0.323   5.645   1.067  0.00  0.00    +0.057 A 
ATOM     27  C   UNL     1       0.625   4.621   1.188  0.00  0.00    -0.020 A 
ATOM     28  C   UNL     1       1.871   4.892   1.768  0.00  0.00    +0.012 A 
ATOM     29  C   UNL     1       2.164   6.164   2.206  0.00  0.00    +0.050 A 
ATOM     30  C   UNL     1       1.224   7.178   2.086  0.00  0.00    +0.158 A 
BRANCH  30  31
ATOM     31  O   UNL     1       1.517   8.430   2.525  0.00  0.00    -0.503 OA
ATOM     32  H   UNL     1       1.280   8.588   3.450  0.00  0.00    +0.292 HD
ENDBRANCH  30  31
BRANCH  25  33
ATOM     33  O   UNL     1      -0.939   7.913   1.399  0.00  0.00    -0.489 OA
BRANCH  33  35
ATOM     34  C   UNL     1      -3.089   8.814   0.761  0.00  0.00    +0.048 C 
ATOM     35  C   UNL     1      -2.194   7.574   0.805  0.00  0.00    +0.226 C 
ENDBRANCH  33  35
ENDBRANCH  25  33
ENDBRANCH   1  27
BRANCH   9  36
ATOM     36  C   UNL     1       6.683   1.030  -2.627  0.00  0.00    +0.160 C 
ATOM     37  O   UNL     1       7.229   0.028  -3.049  0.00  0.00    -0.293 OA
ATOM     38  C   UNL     1       7.411   2.350  -2.648  0.00  0.00    +0.091 C 
ENDBRANCH   9  36
TORSDOF 7
