REMARK  Name = ZINC18744421
REMARK  12 active torsions:
REMARK  status: ('A' for Active; 'I' for Inactive)
REMARK    1  A    between atoms: C_1  and  C_2
REMARK    2  A    between atoms: C_4  and  C_34
REMARK    3  A    between atoms: C_6  and  O_8
REMARK    4  A    between atoms: O_8  and  C_9
REMARK    5  A    between atoms: C_9  and  C_10
REMARK    6  A    between atoms: C_13  and  S_16
REMARK    7  A    between atoms: N_14  and  N_15
REMARK    8  A    between atoms: S_16  and  C_17
REMARK    9  A    between atoms: C_17  and  C_18
REMARK   10  A    between atoms: N_20  and  C_21
REMARK   11  A    between atoms: C_21  and  C_23
REMARK   12  A    between atoms: C_21  and  C_29
REMARK                            x       y       z     vdW  Elec       q    Type
REMARK                         _______ _______ _______ _____ _____    ______ ____
ROOT
ATOM      1  C   UNL     1       0.958   0.414  -4.651  0.00  0.00    +0.189 A 
ATOM      2  N   UNL     1       1.683  -0.084  -3.689  0.00  0.00    -0.128 NA
ATOM      3  N   UNL     1       1.194   0.253  -2.549  0.00  0.00    -0.121 NA
ATOM      4  C   UNL     1       0.122   0.990  -2.724  0.00  0.00    +0.209 A 
ATOM      5  N   UNL     1      -0.066   1.111  -4.071  0.00  0.00    -0.225 N 
ENDROOT
BRANCH   5   6
ATOM      6  N   UNL     1      -1.066   1.789  -4.706  0.00  0.00    -0.295 N 
ATOM      7  H   UNL     1      -0.800   2.747  -4.879  0.00  0.00    +0.163 HD
ATOM      8  H   UNL     1      -1.329   1.327  -5.564  0.00  0.00    +0.163 HD
ENDBRANCH   5   6
BRANCH   1   9
ATOM      9  C   UNL     1       1.199   0.247  -6.129  0.00  0.00    +0.306 C 
BRANCH   9  10
ATOM     10  O   UNL     1       0.512  -0.916  -6.596  0.00  0.00    -0.484 OA
BRANCH  10  16
ATOM     11  C   UNL     1       2.324   0.178 -10.993  0.00  0.00    +0.044 C 
ATOM     12  C   UNL     1       1.501  -0.703 -10.090  0.00  0.00    -0.047 A 
ATOM     13  C   UNL     1       0.861  -1.815 -10.607  0.00  0.00    +0.007 A 
ATOM     14  C   UNL     1       0.105  -2.626  -9.781  0.00  0.00    -0.047 A 
ATOM     15  C   UNL     1      -0.013  -2.328  -8.437  0.00  0.00    +0.049 A 
ATOM     16  C   UNL     1       0.627  -1.212  -7.917  0.00  0.00    +0.122 A 
ATOM     17  C   UNL     1       1.380  -0.397  -8.749  0.00  0.00    +0.049 A 
ATOM     18  C   UNL     1      -0.590  -3.838 -10.347  0.00  0.00    +0.044 C 
ENDBRANCH  10  16
ENDBRANCH   9  10
ENDBRANCH   1   9
BRANCH   4  19
ATOM     19  S   UNL     1      -0.888   1.685  -1.458  0.00  0.00    -0.075 S 
BRANCH  19  20
ATOM     20  C   UNL     1      -0.013   1.086   0.008  0.00  0.00    +0.173 C 
BRANCH  20  21
ATOM     21  C   UNL     1      -0.718   1.572   1.248  0.00  0.00    +0.224 C 
ATOM     22  O   UNL     1      -1.714   2.256   1.150  0.00  0.00    -0.275 OA
ATOM     23  N   UNL     1      -0.242   1.246   2.466  0.00  0.00    -0.303 N 
ATOM     24  H   UNL     1       0.555   0.699   2.544  0.00  0.00    +0.150 HD
BRANCH  23  25
ATOM     25  C   UNL     1      -0.927   1.718   3.671  0.00  0.00    +0.140 C 
BRANCH  25  26
ATOM     26  C   UNL     1       0.051   1.776   4.816  0.00  0.00    -0.022 A 
ATOM     27  C   UNL     1       0.988   0.772   4.976  0.00  0.00    +0.006 A 
ATOM     28  C   UNL     1       1.888   0.827   6.023  0.00  0.00    +0.000 A 
ATOM     29  C   UNL     1       1.846   1.882   6.916  0.00  0.00    +0.000 A 
ATOM     30  C   UNL     1       0.906   2.883   6.759  0.00  0.00    +0.000 A 
ATOM     31  C   UNL     1       0.008   2.830   5.709  0.00  0.00    +0.006 A 
ENDBRANCH  25  26
BRANCH  25  32
ATOM     32  C   UNL     1      -2.048   0.771   4.015  0.00  0.00    +0.014 A 
ATOM     33  C   UNL     1      -3.293   1.052   4.471  0.00  0.00    +0.013 A 
ATOM     34  C   UNL     1      -4.167   0.010   4.719  0.00  0.00    +0.008 A 
ATOM     35  C   UNL     1      -3.749  -1.262   4.509  0.00  0.00    +0.045 A 
ATOM     36  S   UNL     1      -2.077  -1.012   3.936  0.00  0.00    -0.099 S 
ENDBRANCH  25  32
ENDBRANCH  23  25
ENDBRANCH  20  21
ENDBRANCH  19  20
ENDBRANCH   4  19
TORSDOF 10
