REMARK  Name = ZINC04817377
REMARK  5 active torsions:
REMARK  status: ('A' for Active; 'I' for Inactive)
REMARK    1  A    between atoms: C_10  and  C_11
REMARK    2  A    between atoms: C_11  and  C_13
REMARK    3  A    between atoms: C_14  and  N_15
REMARK    4  A    between atoms: N_15  and  C_16
REMARK    5  A    between atoms: C_19  and  N_22
REMARK                            x       y       z     vdW  Elec       q    Type
REMARK                         _______ _______ _______ _____ _____    ______ ____
ROOT
ATOM      1  C   UNL     1       6.177  -0.554   0.046  0.00  0.00    +0.066 C 
ATOM      2  C   UNL     1       7.339   0.136   0.037  0.00  0.00    +0.076 C 
ENDROOT
BRANCH   1   3
ATOM      3  C   UNL     1       4.946   0.133  -0.046  0.00  0.00    +0.188 C 
ATOM      4  O   UNL     1       4.932   1.349  -0.132  0.00  0.00    -0.287 OA
BRANCH   3  14
ATOM      5  C   UNL     1      -0.016   1.357   0.065  0.00  0.00    +0.001 A 
ATOM      6  C   UNL     1       1.169   2.089   0.058  0.00  0.00    +0.001 A 
ATOM      7  C   UNL     1       2.379   1.464   0.025  0.00  0.00    +0.009 A 
ATOM      8  C   UNL     1       2.436   0.064  -0.002  0.00  0.00    -0.007 A 
ATOM      9  C   UNL     1       1.233  -0.683   0.005  0.00  0.00    -0.017 A 
ATOM     10  C   UNL     1       0.003  -0.004   0.039  0.00  0.00    +0.008 A 
ATOM     11  C   UNL     1       1.289  -2.087  -0.021  0.00  0.00    +0.008 A 
ATOM     12  C   UNL     1       2.494  -2.723  -0.054  0.00  0.00    +0.001 A 
ATOM     13  C   UNL     1       3.685  -2.008  -0.061  0.00  0.00    +0.012 A 
ATOM     14  C   UNL     1       3.677  -0.621  -0.037  0.00  0.00    +0.029 A 
ENDBRANCH   3  14
ENDBRANCH   1   3
BRANCH   2  15
ATOM     15  N   UNL     1       8.530  -0.529   0.126  0.00  0.00    -0.320 N 
ATOM     16  H   UNL     1       8.541  -1.496   0.194  0.00  0.00    +0.152 HD
BRANCH  15  17
ATOM     17  C   UNL     1       9.731   0.185   0.117  0.00  0.00    +0.031 A 
ATOM     18  C   UNL     1       9.716   1.571   0.025  0.00  0.00    +0.025 A 
ATOM     19  C   UNL     1      10.905   2.274   0.017  0.00  0.00    +0.034 A 
ATOM     20  C   UNL     1      12.110   1.599   0.101  0.00  0.00    +0.126 A 
ATOM     21  C   UNL     1      12.128   0.219   0.193  0.00  0.00    +0.034 A 
ATOM     22  C   UNL     1      10.942  -0.489   0.207  0.00  0.00    +0.025 A 
BRANCH  20  23
ATOM     23  N   UNL     1      13.382   2.355   0.092  0.00  0.00    +0.056 N 
ATOM     24  O   UNL     1      13.368   3.561   0.011  0.00  0.00    -0.126 OA
ATOM     25  O   UNL     1      14.435   1.767   0.166  0.00  0.00    -0.126 OA
ENDBRANCH  20  23
ENDBRANCH  15  17
ENDBRANCH   2  15
TORSDOF 5
