REMARK  Name = ZINC45980820
REMARK  8 active torsions:
REMARK  status: ('A' for Active; 'I' for Inactive)
REMARK    1  A    between atoms: C_1  and  C_2
REMARK    2  A    between atoms: C_2  and  C_3
REMARK    3  A    between atoms: C_2  and  C_4
REMARK    4  A    between atoms: N_6  and  C_7
REMARK    5  A    between atoms: C_10  and  N_13
REMARK    6  A    between atoms: N_16  and  C_17
REMARK    7  A    between atoms: N_16  and  C_18
REMARK    8  A    between atoms: C_18  and  C_19
REMARK                            x       y       z     vdW  Elec       q    Type
REMARK                         _______ _______ _______ _____ _____    ______ ____
ROOT
ATOM      1  N   UNL     1      -7.489  -2.206  -0.477  0.00  0.00    -0.269 N 
ATOM      2  C   UNL     1      -8.337  -2.018  -1.508  0.00  0.00    +0.306 C 
ATOM      3  O   UNL     1      -7.990  -1.356  -2.467  0.00  0.00    -0.252 OA
ATOM      4  N   UNL     1      -9.568  -2.564  -1.475  0.00  0.00    -0.284 N 
ATOM      5  C   UNL     1      -9.986  -3.362  -0.319  0.00  0.00    +0.134 C 
ATOM      6  H   UNL     1      -7.787  -2.677   0.317  0.00  0.00    +0.156 HD
ENDROOT
BRANCH   1  10
ATOM      7  C   UNL     1      -3.583  -0.762  -0.702  0.00  0.00    +0.034 A 
ATOM      8  C   UNL     1      -3.845  -1.957  -0.044  0.00  0.00    +0.025 A 
ATOM      9  C   UNL     1      -5.138  -2.435   0.031  0.00  0.00    +0.025 A 
ATOM     10  C   UNL     1      -6.176  -1.721  -0.552  0.00  0.00    +0.035 A 
ATOM     11  C   UNL     1      -5.914  -0.526  -1.211  0.00  0.00    +0.025 A 
ATOM     12  C   UNL     1      -4.622  -0.045  -1.279  0.00  0.00    +0.025 A 
BRANCH   7  15
ATOM     13  C   UNL     1      -2.038   1.049  -0.726  0.00  0.00    +0.220 C 
ATOM     14  O   UNL     1      -2.968   1.827  -0.696  0.00  0.00    -0.275 OA
ATOM     15  N   UNL     1      -2.270  -0.278  -0.777  0.00  0.00    -0.285 N 
ATOM     16  H   UNL     1      -1.529  -0.897  -0.866  0.00  0.00    +0.155 HD
BRANCH  13  18
ATOM     17  C   UNL     1       0.104   1.111  -1.974  0.00  0.00    +0.017 C 
ATOM     18  C   UNL     1      -0.622   1.565  -0.706  0.00  0.00    +0.069 C 
ATOM     19  C   UNL     1      -0.638   3.094  -0.647  0.00  0.00    +0.017 C 
ENDBRANCH  13  18
ENDBRANCH   7  15
ENDBRANCH   1  10
BRANCH   4  20
ATOM     20  C   UNL     1     -10.490  -2.360  -2.595  0.00  0.00    +0.145 C 
BRANCH  20  21
ATOM     21  C   UNL     1     -10.387  -3.522  -3.549  0.00  0.00    -0.015 A 
ATOM     22  C   UNL     1      -9.595  -3.445  -4.628  0.00  0.00    +0.051 A 
ATOM     23  S   UNL     1      -9.810  -5.028  -5.418  0.00  0.00    -0.096 S 
ATOM     24  C   UNL     1     -10.959  -5.752  -4.275  0.00  0.00    +0.020 A 
ATOM     25  C   UNL     1     -11.141  -4.743  -3.304  0.00  0.00    -0.006 A 
ATOM     26  C   UNL     1     -12.023  -5.041  -2.239  0.00  0.00    +0.009 A 
ATOM     27  C   UNL     1     -12.648  -6.247  -2.170  0.00  0.00    +0.001 A 
ATOM     28  C   UNL     1     -12.447  -7.224  -3.135  0.00  0.00    +0.001 A 
ATOM     29  C   UNL     1     -11.602  -6.968  -4.197  0.00  0.00    +0.015 A 
ENDBRANCH  20  21
ENDBRANCH   4  20
TORSDOF 5
