REMARK  Name = ZINC37731475
REMARK  4 active torsions:
REMARK  status: ('A' for Active; 'I' for Inactive)
REMARK    1  A    between atoms: C_1  and  C_2
REMARK    2  A    between atoms: C_5  and  N_8
REMARK    3  A    between atoms: N_8  and  S_9
REMARK    4  A    between atoms: S_9  and  C_12
REMARK                            x       y       z     vdW  Elec       q    Type
REMARK                         _______ _______ _______ _____ _____    ______ ____
ROOT
ATOM      1  N   UNL     1       0.058  -4.169  -0.023  0.00  0.00    -0.216 N 
ATOM      2  H   UNL     1      -0.566  -4.660  -0.580  0.00  0.00    +0.174 HD
ENDROOT
BRANCH   1   7
ATOM      3  C   UNL     1      -0.112   1.498   0.108  0.00  0.00    +0.044 C 
ATOM      4  C   UNL     1      -0.067  -0.009   0.073  0.00  0.00    -0.050 A 
ATOM      5  C   UNL     1      -0.114  -0.672  -1.139  0.00  0.00    +0.005 A 
ATOM      6  C   UNL     1      -0.073  -2.052  -1.174  0.00  0.00    +0.025 A 
ATOM      7  C   UNL     1       0.017  -2.773   0.010  0.00  0.00    +0.048 A 
ATOM      8  C   UNL     1       0.064  -2.103   1.226  0.00  0.00    +0.025 A 
ATOM      9  C   UNL     1       0.028  -0.723   1.253  0.00  0.00    +0.005 A 
ENDBRANCH   1   7
BRANCH   1  10
ATOM     10  S   UNL     1       1.172  -4.986   0.891  0.00  0.00    +0.075 S 
ATOM     11  O   UNL     1       1.042  -4.500   2.220  0.00  0.00    -0.150 OA
ATOM     12  O   UNL     1       1.034  -6.362   0.566  0.00  0.00    -0.150 OA
BRANCH  10  13
ATOM     13  C   UNL     1       2.768  -4.493   0.330  0.00  0.00    +0.145 A 
ATOM     14  C   UNL     1       3.442  -5.023  -0.717  0.00  0.00    +0.133 A 
ATOM     15  N   UNL     1       4.621  -4.373  -0.819  0.00  0.00    -0.283 N 
ATOM     16  H   UNL     1       5.310  -4.542  -1.480  0.00  0.00    +0.188 HD
ATOM     17  N   UNL     1       4.673  -3.413   0.200  0.00  0.00    -0.180 NA
ATOM     18  C   UNL     1       3.559  -3.481   0.883  0.00  0.00    +0.163 A 
ENDBRANCH  10  13
ENDBRANCH   1  10
TORSDOF 3
