REMARK  Name = ZINC40824222
REMARK  7 active torsions:
REMARK  status: ('A' for Active; 'I' for Inactive)
REMARK    1  A    between atoms: C_1  and  C_2
REMARK    2  A    between atoms: C_6  and  C_7
REMARK    3  A    between atoms: N_9  and  N_10
REMARK    4  A    between atoms: C_11  and  C_13
REMARK    5  A    between atoms: C_17  and  C_18
REMARK    6  A    between atoms: N_23  and  N_24
REMARK    7  A    between atoms: N_24  and  C_25
REMARK                            x       y       z     vdW  Elec       q    Type
REMARK                         _______ _______ _______ _____ _____    ______ ____
ROOT
ATOM      1  C   UNL     1      -0.018   1.503   0.010  0.00  0.00    +0.048 C 
ATOM      2  C   UNL     1       0.002  -0.004   0.002  0.00  0.00    +0.009 A 
ATOM      3  C   UNL     1       0.008  -0.838  -1.122  0.00  0.00    +0.042 A 
ATOM      4  C   UNL     1       0.026  -2.137  -0.673  0.00  0.00    +0.115 A 
ATOM      5  O   UNL     1       0.034  -2.112   0.658  0.00  0.00    -0.454 OA
ATOM      6  C   UNL     1       0.024  -0.830   1.091  0.00  0.00    +0.194 A 
ATOM      7  C   UNL     1       0.033  -3.326  -1.600  0.00  0.00    +0.075 C 
ATOM      8  C   UNL     1      -0.492  -2.902  -2.975  0.00  0.00    +0.014 C 
ATOM      9  C   UNL     1       0.279  -1.684  -3.495  0.00  0.00    +0.058 C 
ATOM     10  C   UNL     1       0.001  -0.511  -2.566  0.00  0.00    +0.070 C 
ATOM     11  N   UNL     1      -0.226   0.687  -3.008  0.00  0.00    -0.186 NA
ENDROOT
BRANCH   6  12
ATOM     12  C   UNL     1       0.032  -0.400   2.494  0.00  0.00    +0.296 C 
ATOM     13  O   UNL     1       0.018   0.786   2.766  0.00  0.00    -0.265 OA
ATOM     14  N   UNL     1       0.054  -1.317   3.480  0.00  0.00    -0.228 N 
ATOM     15  H   UNL     1       0.065  -2.263   3.263  0.00  0.00    +0.173 HD
BRANCH  14  16
ATOM     16  N   UNL     1       0.061  -0.906   4.820  0.00  0.00    -0.230 N 
ATOM     17  C   UNL     1       0.084  -1.824   5.806  0.00  0.00    +0.263 C 
ATOM     18  O   UNL     1       0.097  -3.009   5.534  0.00  0.00    -0.269 OA
ATOM     19  H   UNL     1       0.050   0.039   5.037  0.00  0.00    +0.173 HD
BRANCH  17  20
ATOM     20  C   UNL     1       0.091  -1.391   7.215  0.00  0.00    +0.079 A 
ATOM     21  C   UNL     1       0.070  -0.011   7.721  0.00  0.00    +0.054 A 
ATOM     22  C   UNL     1       0.087  -0.108   9.059  0.00  0.00    +0.196 A 
ATOM     23  O   UNL     1       0.116  -1.405   9.405  0.00  0.00    -0.467 OA
ATOM     24  C   UNL     1       0.113  -2.188   8.322  0.00  0.00    +0.114 A 
ATOM     25  C   UNL     1       0.133  -3.695   8.324  0.00  0.00    +0.087 C 
ENDBRANCH  17  20
ENDBRANCH  14  16
ENDBRANCH   6  12
BRANCH  11  26
ATOM     26  N   UNL     1      -0.222   0.939  -4.386  0.00  0.00    -0.238 N 
ATOM     27  H   UNL     1      -0.048   0.217  -5.010  0.00  0.00    +0.174 HD
BRANCH  26  28
ATOM     28  C   UNL     1      -0.466   2.228  -4.860  0.00  0.00    +0.048 A 
ATOM     29  C   UNL     1      -0.709   3.265  -3.967  0.00  0.00    +0.025 A 
ATOM     30  C   UNL     1      -0.950   4.539  -4.441  0.00  0.00    +0.002 A 
ATOM     31  C   UNL     1      -0.949   4.785  -5.802  0.00  0.00    +0.000 A 
ATOM     32  C   UNL     1      -0.709   3.756  -6.694  0.00  0.00    +0.002 A 
ATOM     33  C   UNL     1      -0.461   2.480  -6.228  0.00  0.00    +0.025 A 
ENDBRANCH  26  28
ENDBRANCH  11  26
TORSDOF 5
