REMARK  Name = ZINC35532071
REMARK  5 active torsions:
REMARK  status: ('A' for Active; 'I' for Inactive)
REMARK    1  A    between atoms: C_5  and  C_7
REMARK    2  A    between atoms: C_12  and  S_16
REMARK    3  A    between atoms: S_16  and  C_17
REMARK    4  A    between atoms: C_17  and  C_18
REMARK    5  A    between atoms: C_21  and  N_24
REMARK                            x       y       z     vdW  Elec       q    Type
REMARK                         _______ _______ _______ _____ _____    ______ ____
ROOT
ATOM      1  C   UNL     1       1.228  -2.186  -0.022  0.00  0.00    +0.095 C 
ATOM      2  C   UNL     1       0.557  -2.693   1.220  0.00  0.00    +0.069 A 
ATOM      3  C   UNL     1      -0.733  -3.193   1.175  0.00  0.00    +0.135 A 
ATOM      4  N   UNL     1      -1.315  -3.634   2.295  0.00  0.00    -0.208 NA
ATOM      5  C   UNL     1      -0.678  -3.606   3.449  0.00  0.00    +0.171 A 
ATOM      6  N   UNL     1       0.594  -3.129   3.545  0.00  0.00    -0.302 N 
ATOM      7  C   UNL     1       1.229  -2.667   2.447  0.00  0.00    +0.258 A 
ATOM      8  O   UNL     1       2.369  -2.236   2.524  0.00  0.00    -0.267 OA
ATOM      9  N   UNL     1      -1.409  -3.235  -0.028  0.00  0.00    -0.302 N 
ATOM     10  C   UNL     1      -0.728  -3.165  -1.214  0.00  0.00    +0.017 C 
ATOM     11  C   UNL     1       0.529  -2.682  -1.263  0.00  0.00    +0.024 C 
ATOM     12  C   UNL     1       1.233  -2.624  -2.479  0.00  0.00    +0.162 C 
ATOM     13  O   UNL     1       2.363  -2.176  -2.493  0.00  0.00    -0.292 OA
ATOM     14  C   UNL     1       0.617  -3.107  -3.763  0.00  0.00    +0.080 C 
ATOM     15  C   UNL     1      -0.403  -4.205  -3.445  0.00  0.00    +0.014 C 
ATOM     16  C   UNL     1      -1.428  -3.640  -2.464  0.00  0.00    +0.051 C 
ATOM     17  H   UNL     1      -2.375  -3.315  -0.034  0.00  0.00    +0.153 HD
ATOM     18  H   UNL     1       1.044  -3.120   4.404  0.00  0.00    +0.171 HD
ENDROOT
BRANCH   1  23
ATOM     19  C   UNL     1      -0.017   1.378   0.010  0.00  0.00    +0.000 A 
ATOM     20  C   UNL     1       1.171   2.087   0.002  0.00  0.00    +0.003 A 
ATOM     21  C   UNL     1       2.377   1.414  -0.013  0.00  0.00    +0.038 A 
ATOM     22  C   UNL     1       2.397   0.029  -0.021  0.00  0.00    +0.127 A 
ATOM     23  C   UNL     1       1.208  -0.679  -0.013  0.00  0.00    -0.000 A 
ATOM     24  C   UNL     1       0.002  -0.004   0.002  0.00  0.00    +0.007 A 
ATOM     25  F   UNL     1       3.577  -0.630  -0.036  0.00  0.00    -0.205 F 
ENDBRANCH   1  23
BRANCH   5  26
ATOM     26  S   UNL     1      -1.489  -4.199   4.896  0.00  0.00    -0.083 S 
BRANCH  26  27
ATOM     27  C   UNL     1      -3.122  -4.721   4.302  0.00  0.00    +0.112 C 
BRANCH  27  28
ATOM     28  C   UNL     1      -3.929  -5.256   5.456  0.00  0.00    -0.037 A 
ATOM     29  C   UNL     1      -3.867  -6.599   5.780  0.00  0.00    +0.007 A 
ATOM     30  C   UNL     1      -4.608  -7.090   6.839  0.00  0.00    +0.033 A 
ATOM     31  C   UNL     1      -5.410  -6.238   7.575  0.00  0.00    +0.126 A 
ATOM     32  C   UNL     1      -5.471  -4.895   7.252  0.00  0.00    +0.033 A 
ATOM     33  C   UNL     1      -4.727  -4.404   6.196  0.00  0.00    +0.007 A 
BRANCH  31  34
ATOM     34  N   UNL     1      -6.204  -6.764   8.708  0.00  0.00    +0.056 N 
ATOM     35  O   UNL     1      -6.151  -7.938   8.990  0.00  0.00    -0.126 OA
ATOM     36  O   UNL     1      -6.905  -6.019   9.352  0.00  0.00    -0.126 OA
ENDBRANCH  31  34
ENDBRANCH  27  28
ENDBRANCH  26  27
ENDBRANCH   5  26
TORSDOF 5
