REMARK  Name = ZINC39623508
REMARK  8 active torsions:
REMARK  status: ('A' for Active; 'I' for Inactive)
REMARK    1  A    between atoms: C_1  and  C_2
REMARK    2  A    between atoms: C_2  and  C_3
REMARK    3  A    between atoms: C_3  and  C_4
REMARK    4  A    between atoms: C_4  and  C_5
REMARK    5  A    between atoms: C_5  and  N_6
REMARK    6  A    between atoms: C_7  and  C_9
REMARK    7  A    between atoms: C_20  and  C_22
REMARK    8  A    between atoms: C_25  and  C_27
REMARK                            x       y       z     vdW  Elec       q    Type
REMARK                         _______ _______ _______ _____ _____    ______ ____
ROOT
ATOM      1  C   UNL     1      -3.966  -6.254   0.006  0.00  0.00    +0.100 C 
ATOM      2  C   UNL     1      -3.428  -6.778  -1.344  0.00  0.00    +0.121 C 
ATOM      3  N   UNL     1      -4.238  -7.986  -1.627  0.00  0.00    -0.294 N 
ATOM      4  C   UNL     1      -5.607  -7.622  -1.190  0.00  0.00    +0.115 C 
ATOM      5  C   UNL     1      -5.396  -6.810   0.104  0.00  0.00    -0.004 C 
ATOM      6  C   UNL     1      -6.403  -5.666   0.178  0.00  0.00    -0.010 C 
ATOM      7  C   UNL     1      -7.813  -6.243   0.333  0.00  0.00    -0.082 C 
ATOM      8  N   UNL     1      -7.879  -7.059   1.551  0.00  0.00    +0.379 N 
ATOM      9  C   UNL     1      -6.975  -8.210   1.432  0.00  0.00    -0.082 C 
ATOM     10  C   UNL     1      -5.529  -7.716   1.324  0.00  0.00    -0.010 C 
ATOM     11  C   UNL     1      -3.824  -9.152  -2.161  0.00  0.00    +0.282 C 
ATOM     12  O   UNL     1      -4.618 -10.058  -2.334  0.00  0.00    -0.267 OA
ATOM     13  H   UNL     1      -7.606  -6.499   2.345  0.00  0.00    -0.086 HD
ATOM     14  H   UNL     1      -8.824  -7.388   1.683  0.00  0.00    -0.086 HD
ENDROOT
BRANCH  11  15
ATOM     15  C   UNL     1      -2.418  -9.328  -2.534  0.00  0.00    +0.190 A 
ATOM     16  C   UNL     1      -1.865 -10.461  -3.092  0.00  0.00    +0.055 A 
ATOM     17  C   UNL     1      -0.506 -10.193  -3.284  0.00  0.00    +0.051 A 
ATOM     18  C   UNL     1      -0.281  -8.921  -2.842  0.00  0.00    +0.139 A 
ATOM     19  O   UNL     1      -1.440  -8.408  -2.397  0.00  0.00    -0.450 OA
BRANCH  18  20
ATOM     20  C   UNL     1       1.020  -8.223  -2.855  0.00  0.00    +0.052 A 
ATOM     21  C   UNL     1       2.156  -8.847  -2.335  0.00  0.00    +0.014 A 
ATOM     22  C   UNL     1       3.369  -8.190  -2.350  0.00  0.00    +0.001 A 
ATOM     23  C   UNL     1       3.462  -6.914  -2.879  0.00  0.00    +0.003 A 
ATOM     24  C   UNL     1       2.343  -6.288  -3.396  0.00  0.00    +0.039 A 
ATOM     25  C   UNL     1       1.122  -6.937  -3.393  0.00  0.00    +0.134 A 
ATOM     26  F   UNL     1       0.030  -6.327  -3.903  0.00  0.00    -0.205 F 
ENDBRANCH  18  20
ENDBRANCH  11  15
BRANCH   1  28
ATOM     27  N   UNL     1      -3.853  -4.078   1.177  0.00  0.00    -0.315 N 
ATOM     28  C   UNL     1      -3.986  -4.748   0.015  0.00  0.00    +0.218 C 
ATOM     29  O   UNL     1      -4.122  -4.137  -1.024  0.00  0.00    -0.275 OA
ATOM     30  H   UNL     1      -3.743  -4.566   2.008  0.00  0.00    +0.149 HD
BRANCH  27  31
ATOM     31  C   UNL     1      -3.872  -2.613   1.185  0.00  0.00    +0.104 C 
BRANCH  31  32
ATOM     32  C   UNL     1      -3.703  -2.109   2.619  0.00  0.00    +0.019 C 
BRANCH  32  33
ATOM     33  C   UNL     1      -3.724  -0.579   2.628  0.00  0.00    +0.001 C 
BRANCH  33  35
ATOM     34  C   UNL     1      -3.575   1.455   4.071  0.00  0.00    +0.004 C 
ATOM     35  C   UNL     1      -3.554  -0.075   4.062  0.00  0.00    -0.003 C 
ENDBRANCH  33  35
ENDBRANCH  32  33
ENDBRANCH  31  32
ENDBRANCH  27  31
ENDBRANCH   1  28
TORSDOF 7
