REMARK  Name = ZINC36158710
REMARK  12 active torsions:
REMARK  status: ('A' for Active; 'I' for Inactive)
REMARK    1  A    between atoms: C_1  and  C_2
REMARK    2  A    between atoms: C_2  and  C_3
REMARK    3  A    between atoms: C_2  and  C_4
REMARK    4  A    between atoms: C_4  and  C_5
REMARK    5  A    between atoms: C_5  and  N_6
REMARK    6  A    between atoms: N_6  and  C_7
REMARK    7  A    between atoms: N_6  and  C_23
REMARK    8  A    between atoms: C_7  and  C_8
REMARK    9  A    between atoms: C_23  and  C_24
REMARK   10  A    between atoms: C_24  and  C_26
REMARK   11  A    between atoms: C_24  and  O_33
REMARK   12  A    between atoms: C_26  and  C_27
REMARK                            x       y       z     vdW  Elec       q    Type
REMARK                         _______ _______ _______ _____ _____    ______ ____
ROOT
ATOM      1  N   UNL     1      -3.592  -0.571  -1.504  0.00  0.00    +0.386 N 
ATOM      2  H   UNL     1      -3.482  -1.572  -1.451  0.00  0.00    -0.081 HD
ENDROOT
BRANCH   1   3
ATOM      3  C   UNL     1      -2.268   0.066  -1.536  0.00  0.00    -0.078 C 
BRANCH   3   4
ATOM      4  C   UNL     1      -1.449  -0.401  -0.331  0.00  0.00    -0.016 C 
BRANCH   4   6
ATOM      5  C   UNL     1      -0.058   1.675  -0.340  0.00  0.00    +0.007 C 
ATOM      6  C   UNL     1      -0.025   0.148  -0.440  0.00  0.00    -0.019 C 
ATOM      7  C   UNL     1       0.828  -0.418   0.697  0.00  0.00    +0.007 C 
ENDBRANCH   4   6
ENDBRANCH   3   4
ENDBRANCH   1   3
BRANCH   1   8
ATOM      8  C   UNL     1      -4.335  -0.097  -0.329  0.00  0.00    -0.003 C 
BRANCH   8   9
ATOM      9  C   UNL     1      -5.619  -0.875  -0.200  0.00  0.00    +0.094 A 
ATOM     10  N   UNL     1      -6.527  -0.511   0.743  0.00  0.00    -0.312 N 
ATOM     11  H   UNL     1      -6.336   0.245   1.320  0.00  0.00    +0.170 HD
ATOM     12  C   UNL     1      -7.686  -1.178   0.892  0.00  0.00    +0.260 A 
ATOM     13  O   UNL     1      -8.491  -0.839   1.742  0.00  0.00    -0.267 OA
ATOM     14  C   UNL     1      -7.959  -2.294   0.034  0.00  0.00    +0.075 A 
ATOM     15  C   UNL     1      -9.139  -3.158   0.015  0.00  0.00    -0.023 A 
ATOM     16  C   UNL     1      -9.156  -4.151  -0.899  0.00  0.00    -0.004 A 
ATOM     17  S   UNL     1      -7.623  -3.994  -1.775  0.00  0.00    -0.073 S 
ATOM     18  C   UNL     1      -6.963  -2.593  -0.908  0.00  0.00    +0.116 A 
ATOM     19  N   UNL     1      -5.842  -1.883  -0.999  0.00  0.00    -0.229 NA
ATOM     20  C   UNL     1     -10.238  -5.163  -1.120  0.00  0.00    +0.043 C 
ATOM     21  C   UNL     1     -11.175  -5.143   0.097  0.00  0.00    +0.005 C 
ATOM     22  C   UNL     1     -11.533  -3.689   0.417  0.00  0.00    +0.005 C 
ATOM     23  C   UNL     1     -10.308  -2.964   0.977  0.00  0.00    +0.037 C 
ENDBRANCH   8   9
ENDBRANCH   1   8
BRANCH   1  24
ATOM     24  C   UNL     1      -4.332  -0.223  -2.725  0.00  0.00    -0.046 C 
BRANCH  24  25
ATOM     25  C   UNL     1      -3.623  -0.824  -3.940  0.00  0.00    +0.102 C 
BRANCH  25  26
ATOM     26  O   UNL     1      -3.671  -2.250  -3.862  0.00  0.00    -0.393 OA
ATOM     27  H   UNL     1      -4.567  -2.613  -3.846  0.00  0.00    +0.210 HD
ENDBRANCH  25  26
BRANCH  25  28
ATOM     28  C   UNL     1      -4.321  -0.359  -5.219  0.00  0.00    +0.064 C 
BRANCH  28  29
ATOM     29  C   UNL     1      -3.552  -0.850  -6.418  0.00  0.00    -0.045 A 
ATOM     30  C   UNL     1      -2.542  -0.074  -6.957  0.00  0.00    +0.004 A 
ATOM     31  C   UNL     1      -1.836  -0.524  -8.057  0.00  0.00    +0.000 A 
ATOM     32  C   UNL     1      -2.139  -1.750  -8.618  0.00  0.00    +0.000 A 
ATOM     33  C   UNL     1      -3.148  -2.526  -8.079  0.00  0.00    +0.000 A 
ATOM     34  C   UNL     1      -3.851  -2.078  -6.977  0.00  0.00    +0.004 A 
ENDBRANCH  28  29
ENDBRANCH  25  28
ENDBRANCH  24  25
ENDBRANCH   1  24
TORSDOF 10
