REMARK  Name = ZINC04024475
REMARK  3 active torsions:
REMARK  status: ('A' for Active; 'I' for Inactive)
REMARK    1  A    between atoms: C_7  and  C_13
REMARK    2  A    between atoms: C_13  and  N_45
REMARK    3  A    between atoms: C_14  and  N_45
REMARK                            x       y       z     vdW  Elec       q    Type
REMARK                         _______ _______ _______ _____ _____    ______ ____
ROOT
ATOM      1  C   UNL     1      -2.214   5.608  -1.135  0.00  0.00    -0.023 C 
ENDROOT
BRANCH   1   8
ATOM      2  C   UNL     1      -4.072   8.005  -4.215  0.00  0.00    +0.001 A 
ATOM      3  C   UNL     1      -4.058   9.392  -4.148  0.00  0.00    +0.001 A 
ATOM      4  C   UNL     1      -3.447  10.039  -3.096  0.00  0.00    +0.014 A 
ATOM      5  C   UNL     1      -2.840   9.288  -2.090  0.00  0.00    +0.050 A 
ATOM      6  C   UNL     1      -2.853   7.877  -2.164  0.00  0.00    +0.008 A 
ATOM      7  C   UNL     1      -3.483   7.248  -3.240  0.00  0.00    +0.010 A 
ATOM      8  C   UNL     1      -2.214   7.115  -1.091  0.00  0.00    +0.052 A 
ATOM      9  N   UNL     1      -1.641   7.737  -0.104  0.00  0.00    -0.177 NA
ATOM     10  N   UNL     1      -1.608   9.128  -0.008  0.00  0.00    -0.243 N 
ATOM     11  H   UNL     1      -1.152   9.551   0.775  0.00  0.00    +0.192 HD
ATOM     12  C   UNL     1      -2.174   9.918  -0.944  0.00  0.00    +0.272 A 
ATOM     13  O   UNL     1      -2.133  11.131  -0.839  0.00  0.00    -0.266 OA
ENDBRANCH   1   8
BRANCH   1  14
ATOM     14  N   UNL     1      -1.505   5.091   0.051  0.00  0.00    +0.387 N 
ATOM     15  H   UNL     1      -1.983   5.415   0.900  0.00  0.00    -0.085 HD
ATOM     16  H   UNL     1      -0.539   5.440   0.048  0.00  0.00    -0.085 HD
BRANCH  14  17
ATOM     17  C   UNL     1      -1.490   3.616   0.036  0.00  0.00    -0.067 C 
ATOM     18  C   UNL     1      -0.773   3.123  -1.223  0.00  0.00    -0.009 C 
ATOM     19  C   UNL     1      -0.753   1.593  -1.232  0.00  0.00    -0.012 C 
ATOM     20  C   UNL     1      -0.013   1.086   0.008  0.00  0.00    +0.007 C 
ATOM     21  C   UNL     1      -0.729   1.579   1.267  0.00  0.00    -0.012 C 
ATOM     22  C   UNL     1      -0.750   3.109   1.275  0.00  0.00    -0.009 C 
ATOM     23  C   UNL     1      -2.164   1.050   1.278  0.00  0.00    +0.007 C 
ATOM     24  C   UNL     1      -2.904   1.556   0.038  0.00  0.00    -0.012 C 
ATOM     25  C   UNL     1      -2.188   1.063  -1.221  0.00  0.00    +0.007 C 
ATOM     26  C   UNL     1      -2.925   3.086   0.047  0.00  0.00    -0.009 C 
ENDBRANCH  14  17
ENDBRANCH   1  14
TORSDOF 3
