REMARK  Name = ZINC24304970
REMARK  8 active torsions:
REMARK  status: ('A' for Active; 'I' for Inactive)
REMARK    1  A    between atoms: C_1  and  C_2
REMARK    2  A    between atoms: C_5  and  N_9
REMARK    3  A    between atoms: C_13  and  S_14
REMARK    4  A    between atoms: S_14  and  C_15
REMARK    5  A    between atoms: C_15  and  C_17
REMARK    6  A    between atoms: C_15  and  C_18
REMARK    7  A    between atoms: N_20  and  C_21
REMARK    8  A    between atoms: C_25  and  N_27
REMARK                            x       y       z     vdW  Elec       q    Type
REMARK                         _______ _______ _______ _____ _____    ______ ____
ROOT
ATOM      1  C   UNL     1       1.280   1.980   0.007  0.00  0.00    +0.137 C 
ATOM      2  C   UNL     1       1.580   2.474  -1.409  0.00  0.00    +0.029 C 
ENDROOT
BRANCH   1   3
ATOM      3  C   UNL     1      -0.014   1.209   0.007  0.00  0.00    +0.230 C 
ATOM      4  O   UNL     1       0.002  -0.004  -0.008  0.00  0.00    -0.274 OA
ATOM      5  N   UNL     1      -1.191   1.867   0.018  0.00  0.00    -0.285 N 
ATOM      6  H   UNL     1      -1.207   2.963   0.108  0.00  0.00    +0.155 HD
BRANCH   5   7
ATOM      7  C   UNL     1      -2.392   1.155  -0.086  0.00  0.00    +0.036 A 
ATOM      8  C   UNL     1      -3.469   1.704  -0.770  0.00  0.00    +0.026 A 
ATOM      9  C   UNL     1      -4.650   0.997  -0.877  0.00  0.00    +0.042 A 
ATOM     10  C   UNL     1      -4.766  -0.253  -0.292  0.00  0.00    +0.154 A 
ATOM     11  C   UNL     1      -3.696  -0.799   0.395  0.00  0.00    +0.163 A 
ATOM     12  C   UNL     1      -2.510  -0.099   0.499  0.00  0.00    +0.059 A 
ATOM     13  F   UNL     1      -5.925  -0.940  -0.392  0.00  0.00    -0.203 F 
BRANCH  11  14
ATOM     14  N   UNL     1      -3.822  -2.136   1.019  0.00  0.00    +0.059 N 
ATOM     15  O   UNL     1      -2.881  -2.617   1.623  0.00  0.00    -0.126 OA
ATOM     16  O   UNL     1      -4.868  -2.754   0.928  0.00  0.00    -0.126 OA
ENDBRANCH  11  14
ENDBRANCH   5   7
ENDBRANCH   1   3
BRANCH   1  17
ATOM     17  S   UNL     1       2.623   0.904   0.568  0.00  0.00    -0.073 S 
BRANCH  17  22
ATOM     18  N   UNL     1       5.241   1.812   0.980  0.00  0.00    -0.277 N 
ATOM     19  C   UNL     1       5.899   3.007   0.864  0.00  0.00    +0.230 A 
ATOM     20  N   UNL     1       5.031   3.890   0.458  0.00  0.00    -0.137 NA
ATOM     21  N   UNL     1       3.879   3.341   0.306  0.00  0.00    -0.122 NA
ATOM     22  C   UNL     1       3.947   2.067   0.617  0.00  0.00    +0.197 A 
BRANCH  18  27
ATOM     23  C   UNL     1       7.424  -3.162   2.629  0.00  0.00    +0.045 C 
ATOM     24  C   UNL     1       6.845  -1.842   2.191  0.00  0.00    -0.032 A 
ATOM     25  C   UNL     1       5.684  -1.369   2.776  0.00  0.00    +0.007 A 
ATOM     26  C   UNL     1       5.154  -0.157   2.380  0.00  0.00    +0.026 A 
ATOM     27  C   UNL     1       5.781   0.583   1.387  0.00  0.00    +0.051 A 
ATOM     28  C   UNL     1       6.946   0.108   0.801  0.00  0.00    +0.046 A 
ATOM     29  C   UNL     1       7.475  -1.104   1.205  0.00  0.00    +0.046 A 
ATOM     30 CL   UNL     1       8.932  -1.700   0.473  0.00  0.00    -0.083 Cl
ENDBRANCH  18  27
ENDBRANCH  17  22
ENDBRANCH   1  17
TORSDOF 6
