REMARK  Name = ZINC43213502
REMARK  12 active torsions:
REMARK  status: ('A' for Active; 'I' for Inactive)
REMARK    1  A    between atoms: C_1  and  C_2
REMARK    2  A    between atoms: C_2  and  C_3
REMARK    3  A    between atoms: C_3  and  C_5
REMARK    4  A    between atoms: C_3  and  C_6
REMARK    5  A    between atoms: C_6  and  C_8
REMARK    6  A    between atoms: C_6  and  N_28
REMARK    7  A    between atoms: C_10  and  C_13
REMARK    8  A    between atoms: N_15  and  C_16
REMARK    9  A    between atoms: C_16  and  C_17
REMARK   10  A    between atoms: C_17  and  C_18
REMARK   11  A    between atoms: C_21  and  S_24
REMARK   12  A    between atoms: S_24  and  N_27
REMARK                            x       y       z     vdW  Elec       q    Type
REMARK                         _______ _______ _______ _____ _____    ______ ____
ROOT
ATOM      1  C   UNL     1       1.486  -3.813  -5.906  0.00  0.00    +0.266 C 
ATOM      2  O   UNL     1       2.435  -4.091  -6.614  0.00  0.00    -0.268 OA
ATOM      3  N   UNL     1       0.230  -3.990  -6.362  0.00  0.00    -0.310 N 
ATOM      4  H   UNL     1      -0.526  -3.768  -5.796  0.00  0.00    +0.149 HD
ENDROOT
BRANCH   1   7
ATOM      5  C   UNL     1       1.336  -2.509  -2.568  0.00  0.00    +0.182 A 
ATOM      6  N   UNL     1       0.752  -2.931  -3.650  0.00  0.00    -0.210 NA
ATOM      7  C   UNL     1       1.710  -3.283  -4.549  0.00  0.00    +0.163 A 
ATOM      8  C   UNL     1       2.915  -3.054  -3.959  0.00  0.00    +0.230 A 
ATOM      9  O   UNL     1       2.665  -2.570  -2.732  0.00  0.00    -0.449 OA
BRANCH   5  10
ATOM     10  C   UNL     1       0.630  -2.023  -1.329  0.00  0.00    +0.016 C 
BRANCH  10  11
ATOM     11  N   UNL     1       1.269  -2.607  -0.141  0.00  0.00    +0.386 N 
ATOM     12  H   UNL     1       2.238  -2.327  -0.109  0.00  0.00    -0.089 HD
ATOM     13  H   UNL     1       0.797  -2.281   0.689  0.00  0.00    -0.089 HD
ATOM     14  H   UNL     1       1.211  -3.613  -0.189  0.00  0.00    -0.089 HD
ENDBRANCH  10  11
BRANCH  10  15
ATOM     15  C   UNL     1       0.718  -0.497  -1.257  0.00  0.00    -0.020 C 
ATOM     16  C   UNL     1       2.187  -0.073  -1.207  0.00  0.00    +0.006 C 
BRANCH  15  18
ATOM     17  C   UNL     1      -0.019   1.526   0.010  0.00  0.00    +0.004 C 
ATOM     18  C   UNL     1       0.002  -0.004   0.002  0.00  0.00    -0.001 C 
ENDBRANCH  15  18
ENDBRANCH  10  15
ENDBRANCH   5  10
ENDBRANCH   1   7
BRANCH   3  19
ATOM     19  C   UNL     1       0.008  -4.516  -7.710  0.00  0.00    +0.109 C 
BRANCH  19  20
ATOM     20  C   UNL     1      -1.496  -4.618  -7.976  0.00  0.00    +0.054 C 
BRANCH  20  21
ATOM     21  C   UNL     1      -1.724  -5.160  -9.364  0.00  0.00    -0.046 A 
ATOM     22  C   UNL     1      -1.823  -4.294 -10.437  0.00  0.00    +0.005 A 
ATOM     23  C   UNL     1      -2.033  -4.791 -11.709  0.00  0.00    +0.029 A 
ATOM     24  C   UNL     1      -2.144  -6.154 -11.909  0.00  0.00    +0.105 A 
ATOM     25  C   UNL     1      -2.045  -7.021 -10.836  0.00  0.00    +0.029 A 
ATOM     26  C   UNL     1      -1.831  -6.524  -9.564  0.00  0.00    +0.005 A 
BRANCH  24  27
ATOM     27  S   UNL     1      -2.413  -6.788 -13.531  0.00  0.00    +0.056 S 
ATOM     28  O   UNL     1      -3.026  -8.060 -13.374  0.00  0.00    -0.153 OA
ATOM     29  O   UNL     1      -3.013  -5.741 -14.282  0.00  0.00    -0.153 OA
BRANCH  27  30
ATOM     30  N   UNL     1      -0.924  -7.059 -14.204  0.00  0.00    -0.204 NA
ATOM     31  H   UNL     1      -0.121  -6.865 -13.697  0.00  0.00    +0.144 HD
ATOM     32  H   UNL     1      -0.857  -7.412 -15.105  0.00  0.00    +0.144 HD
ENDBRANCH  27  30
ENDBRANCH  24  27
ENDBRANCH  20  21
ENDBRANCH  19  20
ENDBRANCH   3  19
TORSDOF 10
