REMARK  Name = ZINC63579585
REMARK  6 active torsions:
REMARK  status: ('A' for Active; 'I' for Inactive)
REMARK    1  A    between atoms: C_1  and  C_2
REMARK    2  A    between atoms: C_2  and  C_3
REMARK    3  A    between atoms: C_10  and  C_14
REMARK    4  A    between atoms: C_14  and  C_15
REMARK    5  A    between atoms: C_15  and  C_17
REMARK    6  A    between atoms: C_25  and  C_27
REMARK                            x       y       z     vdW  Elec       q    Type
REMARK                         _______ _______ _______ _____ _____    ______ ____
ROOT
ATOM      1  C   UNL     1      -7.338  -2.716   0.517  0.00  0.00    +0.154 C 
ENDROOT
BRANCH   1   9
ATOM      2  C   UNL     1      -1.412  -0.526   0.013  0.00  0.00    -0.008 A 
ATOM      3  C   UNL     1      -2.201  -0.813  -1.035  0.00  0.00    +0.026 A 
ATOM      4  C   UNL     1      -3.543  -1.309  -0.795  0.00  0.00    +0.072 A 
ATOM      5  C   UNL     1      -4.557  -1.681  -1.738  0.00  0.00    +0.260 A 
ATOM      6  O   UNL     1      -4.347  -1.600  -2.936  0.00  0.00    -0.267 OA
ATOM      7  N   UNL     1      -5.743  -2.120  -1.280  0.00  0.00    -0.310 N 
ATOM      8  H   UNL     1      -6.433  -2.373  -1.913  0.00  0.00    +0.170 HD
ATOM      9  C   UNL     1      -5.994  -2.217   0.051  0.00  0.00    +0.118 A 
ATOM     10  N   UNL     1      -5.091  -1.887   0.935  0.00  0.00    -0.226 NA
ATOM     11  C   UNL     1      -3.895  -1.444   0.560  0.00  0.00    +0.116 A 
ATOM     12  S   UNL     1      -2.435  -0.916   1.419  0.00  0.00    -0.073 S 
BRANCH   2  14
ATOM     13  C   UNL     1      -0.019   1.526   0.010  0.00  0.00    +0.009 C 
ATOM     14  C   UNL     1       0.002  -0.004   0.002  0.00  0.00    +0.039 C 
ENDBRANCH   2  14
ENDBRANCH   1   9
BRANCH   1  15
ATOM     15  C   UNL     1      -7.372  -2.734   2.024  0.00  0.00    +0.172 C 
ATOM     16  O   UNL     1      -6.400  -2.377   2.658  0.00  0.00    -0.292 OA
BRANCH  15  17
ATOM     17  C   UNL     1      -8.540  -3.168   2.700  0.00  0.00    +0.043 A 
ATOM     18  C   UNL     1      -9.714  -3.606   2.127  0.00  0.00    +0.095 A 
ATOM     19  N   UNL     1     -10.594  -3.933   3.093  0.00  0.00    -0.360 N 
ATOM     20  H   UNL     1     -11.490  -4.267   2.932  0.00  0.00    +0.165 HD
ATOM     21  C   UNL     1     -10.046  -3.727   4.343  0.00  0.00    +0.047 A 
ATOM     22  C   UNL     1      -8.740  -3.247   4.161  0.00  0.00    +0.010 A 
ATOM     23  C   UNL     1      -7.942  -2.955   5.263  0.00  0.00    +0.011 A 
ATOM     24  C   UNL     1      -8.440  -3.144   6.535  0.00  0.00    +0.004 A 
ATOM     25  C   UNL     1      -9.729  -3.622   6.717  0.00  0.00    -0.048 A 
ATOM     26  C   UNL     1     -10.532  -3.907   5.634  0.00  0.00    +0.029 A 
ATOM     27  C   UNL     1     -10.259  -3.823   8.113  0.00  0.00    +0.044 C 
ENDBRANCH  15  17
ENDBRANCH   1  15
TORSDOF 4
