REMARK  Name = ZINC09486985
REMARK  7 active torsions:
REMARK  status: ('A' for Active; 'I' for Inactive)
REMARK    1  A    between atoms: C_6  and  C_7
REMARK    2  A    between atoms: C_9  and  C_13
REMARK    3  A    between atoms: C_16  and  S_19
REMARK    4  A    between atoms: N_17  and  N_18
REMARK    5  A    between atoms: S_19  and  C_20
REMARK    6  A    between atoms: C_20  and  C_21
REMARK    7  A    between atoms: N_23  and  C_24
REMARK                            x       y       z     vdW  Elec       q    Type
REMARK                         _______ _______ _______ _____ _____    ______ ____
ROOT
ATOM      1  C   UNL     1      -3.327  -3.814  -0.030  0.00  0.00    +0.199 A 
ATOM      2  N   UNL     1      -2.701  -4.937  -0.302  0.00  0.00    -0.125 NA
ATOM      3  N   UNL     1      -3.512  -5.928  -0.194  0.00  0.00    -0.120 NA
ATOM      4  C   UNL     1      -4.706  -5.500   0.153  0.00  0.00    +0.209 A 
ATOM      5  N   UNL     1      -4.630  -4.142   0.275  0.00  0.00    -0.223 N 
ENDROOT
BRANCH   1   8
ATOM      6  C   UNL     1      -1.295  -0.755  -0.069  0.00  0.00    +0.093 A 
ATOM      7  C   UNL     1      -1.412  -2.154  -0.062  0.00  0.00    +0.061 A 
ATOM      8  C   UNL     1      -2.744  -2.461  -0.043  0.00  0.00    +0.105 A 
ATOM      9  N   UNL     1      -3.436  -1.283  -0.039  0.00  0.00    -0.273 N 
ATOM     10  H   UNL     1      -4.402  -1.188  -0.026  0.00  0.00    +0.189 HD
ATOM     11  N   UNL     1      -2.506  -0.236  -0.051  0.00  0.00    -0.173 NA
BRANCH   6  17
ATOM     12  C   UNL     1      -0.045   1.403  -0.089  0.00  0.00    +0.011 A 
ATOM     13  C   UNL     1       1.140   2.110  -0.106  0.00  0.00    +0.020 A 
ATOM     14  C   UNL     1       2.350   1.437  -0.125  0.00  0.00    +0.041 A 
ATOM     15  C   UNL     1       2.377   0.053  -0.125  0.00  0.00    +0.020 A 
ATOM     16  C   UNL     1       1.197  -0.663  -0.107  0.00  0.00    +0.011 A 
ATOM     17  C   UNL     1      -0.023   0.010  -0.089  0.00  0.00    +0.002 A 
ATOM     18 CL   UNL     1       3.837   2.331  -0.148  0.00  0.00    -0.084 Cl
ENDBRANCH   6  17
ENDBRANCH   1   8
BRANCH   5  19
ATOM     19  N   UNL     1      -5.636  -3.286   0.623  0.00  0.00    -0.295 N 
ATOM     20  H   UNL     1      -6.138  -2.968  -0.192  0.00  0.00    +0.163 HD
ATOM     21  H   UNL     1      -6.262  -3.716   1.288  0.00  0.00    +0.163 HD
ENDBRANCH   5  19
BRANCH   4  22
ATOM     22  S   UNL     1      -6.136  -6.495   0.418  0.00  0.00    -0.075 S 
BRANCH  22  23
ATOM     23  C   UNL     1      -5.559  -8.185   0.102  0.00  0.00    +0.173 C 
BRANCH  23  24
ATOM     24  C   UNL     1      -6.701  -9.150   0.297  0.00  0.00    +0.228 C 
ATOM     25  O   UNL     1      -7.796  -8.737   0.617  0.00  0.00    -0.275 OA
ATOM     26  N   UNL     1      -6.506 -10.471   0.115  0.00  0.00    -0.284 N 
ATOM     27  H   UNL     1      -5.649 -10.795  -0.204  0.00  0.00    +0.155 HD
BRANCH  26  28
ATOM     28  C   UNL     1      -7.540 -11.375   0.386  0.00  0.00    +0.052 A 
ATOM     29  C   UNL     1      -8.858 -11.018   0.140  0.00  0.00    +0.026 A 
ATOM     30  C   UNL     1      -9.877 -11.912   0.408  0.00  0.00    +0.022 A 
ATOM     31  C   UNL     1      -9.584 -13.163   0.922  0.00  0.00    +0.042 A 
ATOM     32  C   UNL     1      -8.271 -13.522   1.169  0.00  0.00    +0.041 A 
ATOM     33  C   UNL     1      -7.247 -12.634   0.897  0.00  0.00    +0.064 A 
ATOM     34 CL   UNL     1      -5.599 -13.087   1.200  0.00  0.00    -0.082 Cl
ATOM     35 CL   UNL     1     -10.866 -14.283   1.259  0.00  0.00    -0.083 Cl
ENDBRANCH  26  28
ENDBRANCH  23  24
ENDBRANCH  22  23
ENDBRANCH   4  22
TORSDOF 7
