REMARK  Name = ZINC44690238
REMARK  7 active torsions:
REMARK  status: ('A' for Active; 'I' for Inactive)
REMARK    1  A    between atoms: C_1  and  C_2
REMARK    2  A    between atoms: C_2  and  C_3
REMARK    3  A    between atoms: C_2  and  C_4
REMARK    4  A    between atoms: N_6  and  C_7
REMARK    5  A    between atoms: C_16  and  C_17
REMARK    6  A    between atoms: C_17  and  C_19
REMARK    7  A    between atoms: C_17  and  N_22
REMARK                            x       y       z     vdW  Elec       q    Type
REMARK                         _______ _______ _______ _____ _____    ______ ____
ROOT
ATOM      1  C   UNL     1      -8.108  -3.825   0.463  0.00  0.00    +0.080 C 
ENDROOT
BRANCH   1   2
ATOM      2  N   UNL     1      -8.921  -4.834   1.156  0.00  0.00    +0.392 N 
ATOM      3  C   UNL     1     -10.318  -4.393   1.191  0.00  0.00    -0.072 C 
ATOM      4  C   UNL     1     -11.198  -5.410   1.903  0.00  0.00    -0.007 C 
ATOM      5  C   UNL     1     -10.675  -5.682   3.317  0.00  0.00    +0.011 C 
ATOM      6  C   UNL     1      -9.219  -6.144   3.187  0.00  0.00    +0.020 C 
ATOM      7  C   UNL     1      -8.418  -5.009   2.526  0.00  0.00    -0.068 C 
ATOM      8  C   UNL     1      -9.162  -7.348   2.273  0.00  0.00    +0.023 A 
ATOM      9  C   UNL     1      -8.160  -8.243   2.475  0.00  0.00    +0.022 A 
ATOM     10  C   UNL     1      -8.010  -9.345   1.626  0.00  0.00    +0.007 A 
ATOM     11  C   UNL     1      -8.871  -9.492   0.578  0.00  0.00    +0.070 A 
ATOM     12  C   UNL     1      -9.892  -8.548   0.396  0.00  0.00    +0.251 A 
ATOM     13  O   UNL     1     -10.629  -8.635  -0.573  0.00  0.00    -0.268 OA
ATOM     14  N   UNL     1     -10.068  -7.540   1.286  0.00  0.00    -0.312 N 
ATOM     15  C   UNL     1     -11.270  -6.724   1.143  0.00  0.00    +0.126 C 
ATOM     16  H   UNL     1      -8.859  -5.711   0.661  0.00  0.00    -0.080 HD
ENDBRANCH   1   2
BRANCH   1  26
ATOM     17  C   UNL     1      -2.930  -2.389   0.108  0.00  0.00    +0.035 A 
ATOM     18  C   UNL     1      -4.034  -1.538   0.111  0.00  0.00    +0.024 A 
ATOM     19  C   UNL     1      -5.298  -2.044   0.207  0.00  0.00    +0.012 A 
ATOM     20  C   UNL     1      -5.489  -3.424   0.304  0.00  0.00    +0.002 A 
ATOM     21  C   UNL     1      -4.381  -4.290   0.302  0.00  0.00    +0.048 A 
ATOM     22  C   UNL     1      -3.099  -3.759   0.197  0.00  0.00    +0.049 A 
ATOM     23  N   UNL     1      -4.868  -5.574   0.407  0.00  0.00    -0.360 N 
ATOM     24  H   UNL     1      -4.324  -6.376   0.430  0.00  0.00    +0.165 HD
ATOM     25  C   UNL     1      -6.235  -5.548   0.476  0.00  0.00    +0.086 A 
ATOM     26  C   UNL     1      -6.672  -4.281   0.418  0.00  0.00    -0.025 A 
BRANCH  17  29
ATOM     27  C   UNL     1      -1.351  -0.677   0.597  0.00  0.00    +0.220 C 
ATOM     28  O   UNL     1      -2.228  -0.041   1.143  0.00  0.00    -0.275 OA
ATOM     29  N   UNL     1      -1.640  -1.854   0.008  0.00  0.00    -0.285 N 
ATOM     30  H   UNL     1      -0.954  -2.330  -0.486  0.00  0.00    +0.155 HD
BRANCH  27  32
ATOM     31  C   UNL     1       0.115   1.191   1.311  0.00  0.00    +0.017 C 
ATOM     32  C   UNL     1       0.061  -0.151   0.579  0.00  0.00    +0.069 C 
ATOM     33  C   UNL     1       0.986  -1.150   1.276  0.00  0.00    +0.017 C 
ENDBRANCH  27  32
ENDBRANCH  17  29
ENDBRANCH   1  26
BRANCH   1  34
ATOM     34  C   UNL     1      -8.622  -3.644  -0.942  0.00  0.00    +0.347 C 
ATOM     35  O   UNL     1      -9.452  -4.416  -1.391  0.00  0.00    -0.248 OA
ATOM     36  O   UNL     1      -8.208  -2.726  -1.629  0.00  0.00    -0.248 OA
ENDBRANCH   1  34
TORSDOF 5
