REMARK  Name = ZINC15945210
REMARK  9 active torsions:
REMARK  status: ('A' for Active; 'I' for Inactive)
REMARK    1  A    between atoms: C_1  and  C_2
REMARK    2  A    between atoms: C_2  and  O_3
REMARK    3  A    between atoms: O_3  and  C_4
REMARK    4  A    between atoms: C_6  and  C_12
REMARK    5  A    between atoms: C_9  and  O_10
REMARK    6  A    between atoms: C_21  and  C_25
REMARK    7  A    between atoms: C_25  and  C_26
REMARK    8  A    between atoms: C_25  and  C_27
REMARK    9  A    between atoms: C_25  and  C_28
REMARK                            x       y       z     vdW  Elec       q    Type
REMARK                         _______ _______ _______ _____ _____    ______ ____
ROOT
ATOM      1  C   UNL     1      -0.228  -4.963  -0.530  0.00  0.00    +0.190 C 
ATOM      2  N   UNL     1       0.542  -6.220  -0.558  0.00  0.00    -0.316 N 
ATOM      3  C   UNL     1       1.692  -6.221  -1.306  0.00  0.00    +0.080 A 
ATOM      4  C   UNL     1       1.912  -5.333  -2.370  0.00  0.00    +0.068 A 
ATOM      5  C   UNL     1       3.182  -5.477  -3.062  0.00  0.00    -0.023 A 
ATOM      6  C   UNL     1       3.998  -6.447  -2.593  0.00  0.00    -0.004 A 
ATOM      7  S   UNL     1       3.109  -7.179  -1.244  0.00  0.00    -0.078 S 
ATOM      8  C   UNL     1       5.354  -6.816  -3.108  0.00  0.00    +0.046 C 
ATOM      9  C   UNL     1       5.538  -6.178  -4.492  0.00  0.00    -0.000 C 
ATOM     10  C   UNL     1       5.118  -4.707  -4.415  0.00  0.00    +0.009 C 
ATOM     11  C   UNL     1       3.601  -4.607  -4.242  0.00  0.00    +0.037 C 
ATOM     12  C   UNL     1       0.844  -4.353  -2.676  0.00  0.00    +0.248 C 
ATOM     13  O   UNL     1       0.911  -3.627  -3.650  0.00  0.00    -0.270 OA
ATOM     14  N   UNL     1      -0.205  -4.298  -1.829  0.00  0.00    -0.289 N 
ATOM     15  H   UNL     1       0.250  -7.007  -0.072  0.00  0.00    +0.149 HD
ATOM     16  H   UNL     1      -0.986  -3.790  -2.099  0.00  0.00    +0.151 HD
ENDROOT
BRANCH   1  19
ATOM     17  C   UNL     1       0.802  -1.825   1.306  0.00  0.00    +0.163 A 
ATOM     18  C   UNL     1       0.251  -2.673   0.358  0.00  0.00    +0.056 A 
ATOM     19  C   UNL     1       0.367  -4.043   0.505  0.00  0.00    -0.005 A 
ATOM     20  C   UNL     1       1.023  -4.571   1.601  0.00  0.00    +0.026 A 
ATOM     21  C   UNL     1       1.571  -3.730   2.554  0.00  0.00    +0.063 A 
ATOM     22  C   UNL     1       1.462  -2.356   2.409  0.00  0.00    +0.173 A 
ATOM     23 BR   UNL     1       2.468  -4.456   4.052  0.00  0.00    -0.046 Br
BRANCH  22  24
ATOM     24  O   UNL     1       2.000  -1.528   3.345  0.00  0.00    -0.503 OA
ATOM     25  H   UNL     1       1.395  -1.301   4.064  0.00  0.00    +0.292 HD
ENDBRANCH  22  24
BRANCH  17  26
ATOM     26  O   UNL     1       0.693  -0.477   1.160  0.00  0.00    -0.489 OA
BRANCH  26  28
ATOM     27  C   UNL     1      -0.019   1.526   0.010  0.00  0.00    +0.048 C 
ATOM     28  C   UNL     1       0.002  -0.004   0.002  0.00  0.00    +0.226 C 
ENDBRANCH  26  28
ENDBRANCH  17  26
ENDBRANCH   1  19
BRANCH   9  29
ATOM     29  C   UNL     1       7.007  -6.270  -4.909  0.00  0.00    -0.035 C 
ATOM     30  C   UNL     1       7.429  -7.740  -4.967  0.00  0.00    +0.011 C 
ATOM     31  C   UNL     1       7.186  -5.633  -6.289  0.00  0.00    +0.011 C 
ATOM     32  C   UNL     1       7.875  -5.531  -3.889  0.00  0.00    +0.011 C 
ENDBRANCH   9  29
TORSDOF 5
