REMARK  Name = ZINC40983438
REMARK  10 active torsions:
REMARK  status: ('A' for Active; 'I' for Inactive)
REMARK    1  A    between atoms: C_1  and  C_2
REMARK    2  A    between atoms: C_2  and  C_3
REMARK    3  A    between atoms: C_3  and  C_4
REMARK    4  A    between atoms: C_4  and  S_5
REMARK    5  A    between atoms: S_5  and  C_6
REMARK    6  A    between atoms: C_11  and  C_27
REMARK    7  A    between atoms: C_13  and  C_17
REMARK    8  A    between atoms: C_14  and  C_16
REMARK    9  A    between atoms: N_19  and  C_20
REMARK   10  A    between atoms: C_23  and  C_26
REMARK                            x       y       z     vdW  Elec       q    Type
REMARK                         _______ _______ _______ _____ _____    ______ ____
ROOT
ATOM      1  C   UNL     1       1.621  -4.410   2.651  0.00  0.00    +0.210 A 
ATOM      2  N   UNL     1       1.016  -5.049   1.639  0.00  0.00    -0.187 NA
ATOM      3  C   UNL     1       1.145  -6.338   1.798  0.00  0.00    +0.220 A 
ATOM      4  N   UNL     1       1.844  -6.554   2.940  0.00  0.00    -0.217 N 
ATOM      5  N   UNL     1       2.146  -5.299   3.466  0.00  0.00    -0.141 NA
ATOM      6  C   UNL     1       2.174  -7.883   3.446  0.00  0.00    +0.213 C 
ATOM      7  C   UNL     1       1.892  -8.910   2.382  0.00  0.00    +0.063 C 
ATOM      8  C   UNL     1       1.196  -8.637   1.268  0.00  0.00    +0.018 C 
ATOM      9  N   UNL     1       0.694  -7.386   1.008  0.00  0.00    -0.287 N 
ATOM     10  C   UNL     1       0.959  -9.740   0.270  0.00  0.00    +0.061 C 
ATOM     11  H   UNL     1       0.048  -7.240   0.298  0.00  0.00    +0.155 HD
ENDROOT
BRANCH   6  12
ATOM     12  C   UNL     1       1.337  -8.179   4.664  0.00  0.00    +0.134 A 
ATOM     13  C   UNL     1       1.807  -8.441   5.897  0.00  0.00    +0.047 A 
ATOM     14  C   UNL     1       0.683  -8.658   6.726  0.00  0.00    +0.041 A 
ATOM     15  C   UNL     1      -0.407  -8.516   5.951  0.00  0.00    +0.195 A 
ATOM     16  O   UNL     1      -0.004  -8.220   4.704  0.00  0.00    -0.465 OA
ENDBRANCH   6  12
BRANCH   7  17
ATOM     17  C   UNL     1       2.384 -10.223   2.565  0.00  0.00    +0.248 C 
ATOM     18  O   UNL     1       3.549 -10.477   2.319  0.00  0.00    -0.270 OA
ATOM     19  N   UNL     1       1.563 -11.194   3.011  0.00  0.00    -0.282 N 
ATOM     20  H   UNL     1       0.617 -11.014   3.126  0.00  0.00    +0.155 HD
BRANCH  19  21
ATOM     21  C   UNL     1       2.075 -12.462   3.308  0.00  0.00    +0.034 A 
ATOM     22  C   UNL     1       3.406 -12.606   3.676  0.00  0.00    +0.023 A 
ATOM     23  C   UNL     1       3.909 -13.858   3.968  0.00  0.00    +0.005 A 
ATOM     24  C   UNL     1       3.088 -14.969   3.894  0.00  0.00    -0.050 A 
ATOM     25  C   UNL     1       1.762 -14.829   3.528  0.00  0.00    +0.005 A 
ATOM     26  C   UNL     1       1.251 -13.578   3.240  0.00  0.00    +0.023 A 
ATOM     27  C   UNL     1       3.639 -16.334   4.213  0.00  0.00    +0.044 C 
ENDBRANCH  19  21
ENDBRANCH   7  17
BRANCH   1  28
ATOM     28  S   UNL     1       1.704  -2.661   2.853  0.00  0.00    -0.084 S 
BRANCH  28  29
ATOM     29  C   UNL     1       0.802  -2.011   1.420  0.00  0.00    +0.077 C 
BRANCH  29  30
ATOM     30  C   UNL     1       0.797  -0.482   1.471  0.00  0.00    +0.011 C 
BRANCH  30  32
ATOM     31  C   UNL     1       0.032   1.596   0.314  0.00  0.00    +0.004 C 
ATOM     32  C   UNL     1       0.036   0.067   0.263  0.00  0.00    -0.003 C 
ENDBRANCH  30  32
ENDBRANCH  29  30
ENDBRANCH  28  29
ENDBRANCH   1  28
TORSDOF 7
