REMARK  Name = ZINC35747180
REMARK  11 active torsions:
REMARK  status: ('A' for Active; 'I' for Inactive)
REMARK    1  A    between atoms: C_4  and  C_7
REMARK    2  A    between atoms: C_7  and  N_8
REMARK    3  A    between atoms: N_8  and  C_9
REMARK    4  A    between atoms: N_8  and  C_27
REMARK    5  A    between atoms: C_9  and  C_10
REMARK    6  A    between atoms: C_16  and  C_21
REMARK    7  A    between atoms: C_27  and  C_28
REMARK    8  A    between atoms: C_28  and  C_30
REMARK    9  A    between atoms: C_28  and  O_38
REMARK   10  A    between atoms: C_30  and  O_31
REMARK   11  A    between atoms: O_31  and  C_32
REMARK                            x       y       z     vdW  Elec       q    Type
REMARK                         _______ _______ _______ _____ _____    ______ ____
ROOT
ATOM      1  N   UNL     1       4.033  -0.806   1.549  0.00  0.00    +0.389 N 
ATOM      2  H   UNL     1       3.760   0.060   1.988  0.00  0.00    -0.081 HD
ENDROOT
BRANCH   1   3
ATOM      3  C   UNL     1       4.016  -0.643   0.089  0.00  0.00    -0.042 C 
BRANCH   3   7
ATOM      4  C   UNL     1       5.601  -4.153  -1.758  0.00  0.00    +0.000 A 
ATOM      5  C   UNL     1       4.256  -4.083  -1.446  0.00  0.00    +0.000 A 
ATOM      6  C   UNL     1       3.743  -2.947  -0.849  0.00  0.00    +0.002 A 
ATOM      7  C   UNL     1       4.575  -1.881  -0.562  0.00  0.00    -0.064 A 
ATOM      8  C   UNL     1       5.920  -1.952  -0.873  0.00  0.00    +0.002 A 
ATOM      9  C   UNL     1       6.433  -3.087  -1.472  0.00  0.00    +0.000 A 
ENDBRANCH   3   7
ENDBRANCH   1   3
BRANCH   1  10
ATOM     10  C   UNL     1       5.389  -1.169   1.984  0.00  0.00    -0.003 C 
BRANCH  10  11
ATOM     11  C   UNL     1       6.330  -0.027   1.700  0.00  0.00    +0.094 A 
ATOM     12  N   UNL     1       7.644  -0.150   2.020  0.00  0.00    -0.312 N 
ATOM     13  H   UNL     1       7.959  -0.972   2.428  0.00  0.00    +0.170 HD
ATOM     14  C   UNL     1       8.518   0.845   1.782  0.00  0.00    +0.260 A 
ATOM     15  O   UNL     1       9.694   0.719   2.074  0.00  0.00    -0.267 OA
ATOM     16  C   UNL     1       8.044   2.055   1.179  0.00  0.00    +0.080 A 
ATOM     17  C   UNL     1       8.784   3.260   0.826  0.00  0.00    +0.004 A 
ATOM     18  C   UNL     1       8.115   4.292   0.257  0.00  0.00    +0.056 A 
ATOM     19  S   UNL     1       6.438   3.695   0.165  0.00  0.00    -0.076 S 
ATOM     20  C   UNL     1       6.672   2.090   0.884  0.00  0.00    +0.116 A 
ATOM     21  N   UNL     1       5.870   1.061   1.145  0.00  0.00    -0.229 NA
BRANCH  17  22
ATOM     22  C   UNL     1      10.241   3.355   1.083  0.00  0.00    -0.017 A 
ATOM     23  C   UNL     1      10.752   3.030   2.339  0.00  0.00    +0.008 A 
ATOM     24  C   UNL     1      12.109   3.120   2.573  0.00  0.00    +0.001 A 
ATOM     25  C   UNL     1      12.962   3.532   1.565  0.00  0.00    +0.000 A 
ATOM     26  C   UNL     1      12.460   3.856   0.317  0.00  0.00    +0.001 A 
ATOM     27  C   UNL     1      11.106   3.765   0.070  0.00  0.00    +0.008 A 
ENDBRANCH  17  22
ENDBRANCH  10  11
ENDBRANCH   1  10
BRANCH   1  28
ATOM     28  C   UNL     1       3.095  -1.868   1.934  0.00  0.00    -0.043 C 
BRANCH  28  29
ATOM     29  C   UNL     1       1.661  -1.344   1.829  0.00  0.00    +0.135 C 
BRANCH  29  30
ATOM     30  O   UNL     1       1.344  -1.093   0.459  0.00  0.00    -0.390 OA
ATOM     31  H   UNL     1       1.294  -1.890  -0.086  0.00  0.00    +0.210 HD
ENDBRANCH  29  30
BRANCH  29  32
ATOM     32  C   UNL     1       0.694  -2.388   2.393  0.00  0.00    +0.258 C 
BRANCH  32  33
ATOM     33  O   UNL     1      -0.631  -1.853   2.403  0.00  0.00    -0.489 OA
BRANCH  33  34
ATOM     34  C   UNL     1      -1.618  -2.658   2.877  0.00  0.00    +0.121 A 
ATOM     35  C   UNL     1      -1.316  -3.934   3.329  0.00  0.00    +0.045 A 
ATOM     36  C   UNL     1      -2.321  -4.751   3.812  0.00  0.00    +0.004 A 
ATOM     37  C   UNL     1      -3.626  -4.297   3.844  0.00  0.00    +0.000 A 
ATOM     38  C   UNL     1      -3.930  -3.025   3.393  0.00  0.00    +0.004 A 
ATOM     39  C   UNL     1      -2.928  -2.203   2.916  0.00  0.00    +0.045 A 
ENDBRANCH  33  34
ENDBRANCH  32  33
ENDBRANCH  29  32
ENDBRANCH  28  29
ENDBRANCH   1  28
TORSDOF 11
