REMARK  Name = ZINC35808790
REMARK  4 active torsions:
REMARK  status: ('A' for Active; 'I' for Inactive)
REMARK    1  A    between atoms: C_8  and  C_27
REMARK    2  A    between atoms: C_10  and  C_18
REMARK    3  A    between atoms: C_22  and  N_24
REMARK    4  A    between atoms: C_27  and  C_29
REMARK                            x       y       z     vdW  Elec       q    Type
REMARK                         _______ _______ _______ _____ _____    ______ ____
ROOT
ATOM      1  C   UNL     1      -0.156   1.356  -0.265  0.00  0.00    +0.000 A 
ATOM      2  C   UNL     1       1.022   2.078  -0.314  0.00  0.00    +0.002 A 
ATOM      3  C   UNL     1       2.239   1.429  -0.276  0.00  0.00    +0.023 A 
ATOM      4  C   UNL     1       2.290   0.040  -0.189  0.00  0.00    +0.039 A 
ATOM      5  C   UNL     1       1.098  -0.676  -0.140  0.00  0.00    +0.004 A 
ATOM      6  C   UNL     1      -0.115  -0.024  -0.178  0.00  0.00    +0.008 A 
ATOM      7  C   UNL     1       1.490  -2.125  -0.048  0.00  0.00    +0.137 C 
ATOM      8  C   UNL     1       0.935  -2.928  -1.229  0.00  0.00    +0.103 C 
ATOM      9  C   UNL     1      -0.403  -3.495  -0.708  0.00  0.00    +0.049 C 
ATOM     10  C   UNL     1      -0.346  -3.355   0.818  0.00  0.00    +0.066 C 
ATOM     11  N   UNL     1       0.959  -2.750   1.172  0.00  0.00    -0.281 NA
ATOM     12  C   UNL     1       1.842  -3.877   1.569  0.00  0.00    +0.086 C 
ATOM     13  C   UNL     1       0.892  -4.857   2.298  0.00  0.00    +0.017 C 
ATOM     14  C   UNL     1      -0.421  -4.736   1.485  0.00  0.00    +0.021 C 
ATOM     15  C   UNL     1       2.995  -2.120  -0.052  0.00  0.00    +0.243 C 
ATOM     16  O   UNL     1       3.722  -3.089   0.008  0.00  0.00    -0.273 OA
ATOM     17  N   UNL     1       3.379  -0.832  -0.137  0.00  0.00    -0.283 N 
ATOM     18  H   UNL     1       4.305  -0.543  -0.160  0.00  0.00    +0.155 HD
ENDROOT
BRANCH   9  19
ATOM     19  C   UNL     1      -1.556  -2.699  -1.263  0.00  0.00    -0.040 A 
ATOM     20  C   UNL     1      -1.482  -2.171  -2.539  0.00  0.00    +0.004 A 
ATOM     21  C   UNL     1      -2.540  -1.441  -3.047  0.00  0.00    +0.002 A 
ATOM     22  C   UNL     1      -3.672  -1.239  -2.280  0.00  0.00    +0.033 A 
ATOM     23  C   UNL     1      -3.746  -1.767  -1.005  0.00  0.00    +0.126 A 
ATOM     24  C   UNL     1      -2.690  -2.501  -0.498  0.00  0.00    +0.036 A 
BRANCH  23  25
ATOM     25  N   UNL     1      -4.958  -1.550  -0.183  0.00  0.00    +0.056 N 
ATOM     26  O   UNL     1      -5.883  -0.911  -0.628  0.00  0.00    -0.126 OA
ATOM     27  O   UNL     1      -5.024  -2.012   0.932  0.00  0.00    -0.126 OA
ENDBRANCH  23  25
ENDBRANCH   9  19
BRANCH   8  28
ATOM     28  C   UNL     1       1.877  -4.046  -1.595  0.00  0.00    +0.170 C 
ATOM     29  O   UNL     1       1.738  -5.140  -1.100  0.00  0.00    -0.292 OA
BRANCH  28  30
ATOM     30  C   UNL     1       2.968  -3.805  -2.558  0.00  0.00    +0.021 A 
ATOM     31  C   UNL     1       3.150  -2.545  -3.140  0.00  0.00    +0.031 A 
ATOM     32  C   UNL     1       4.185  -2.365  -4.037  0.00  0.00    +0.111 A 
ATOM     33  N   UNL     1       4.994  -3.359  -4.347  0.00  0.00    -0.263 NA
ATOM     34  C   UNL     1       4.858  -4.561  -3.823  0.00  0.00    +0.111 A 
ATOM     35  C   UNL     1       3.855  -4.830  -2.913  0.00  0.00    +0.031 A 
ENDBRANCH  28  30
ENDBRANCH   8  28
TORSDOF 4
