REMARK  Name = ZINC11372754
REMARK  6 active torsions:
REMARK  status: ('A' for Active; 'I' for Inactive)
REMARK    1  A    between atoms: C_1  and  C_2
REMARK    2  A    between atoms: C_2  and  C_4
REMARK    3  A    between atoms: C_2  and  S_20
REMARK    4  A    between atoms: C_10  and  C_15
REMARK    5  A    between atoms: S_20  and  C_21
REMARK    6  A    between atoms: N_25  and  C_26
REMARK                            x       y       z     vdW  Elec       q    Type
REMARK                         _______ _______ _______ _____ _____    ______ ____
ROOT
ATOM      1  C   UNL     1       1.340   8.351  -1.498  0.00  0.00    +0.027 C 
ATOM      2  C   UNL     1       1.933   8.331  -0.088  0.00  0.00    +0.117 C 
ENDROOT
BRANCH   2   3
ATOM      3  C   UNL     1       2.666   9.623   0.168  0.00  0.00    +0.124 A 
ATOM      4  N   UNL     1       4.006   9.683  -0.042  0.00  0.00    -0.309 N 
ATOM      5  H   UNL     1       4.474   8.892  -0.354  0.00  0.00    +0.170 HD
ATOM      6  C   UNL     1       4.697  10.818   0.169  0.00  0.00    +0.260 A 
ATOM      7  O   UNL     1       5.899  10.857  -0.029  0.00  0.00    -0.267 OA
ATOM      8  C   UNL     1       3.999  11.978   0.635  0.00  0.00    +0.083 A 
ATOM      9  C   UNL     1       4.519  13.307   0.939  0.00  0.00    +0.039 A 
ATOM     10  C   UNL     1       3.655  14.260   1.373  0.00  0.00    +0.059 A 
ATOM     11  S   UNL     1       2.086  13.415   1.395  0.00  0.00    -0.076 S 
ATOM     12  C   UNL     1       2.618  11.820   0.829  0.00  0.00    +0.116 A 
ATOM     13  N   UNL     1       2.002  10.664   0.593  0.00  0.00    -0.225 NA
BRANCH   9  14
ATOM     14  C   UNL     1       5.956  13.609   0.779  0.00  0.00    +0.136 A 
ATOM     15  C   UNL     1       6.478  14.670   0.106  0.00  0.00    +0.050 A 
ATOM     16  C   UNL     1       7.880  14.566   0.209  0.00  0.00    +0.042 A 
ATOM     17  C   UNL     1       8.142  13.455   0.925  0.00  0.00    +0.196 A 
ATOM     18  O   UNL     1       6.976  12.879   1.268  0.00  0.00    -0.463 OA
ENDBRANCH   9  14
ENDBRANCH   2   3
BRANCH   2  19
ATOM     19  S   UNL     1       3.088   6.941   0.063  0.00  0.00    -0.075 S 
BRANCH  19  20
ATOM     20  C   UNL     1       2.066   5.516  -0.113  0.00  0.00    +0.194 A 
ATOM     21  N   UNL     1       0.769   5.517  -0.306  0.00  0.00    -0.121 NA
ATOM     22  N   UNL     1       0.344   4.185  -0.392  0.00  0.00    -0.112 NA
ATOM     23  C   UNL     1       1.393   3.414  -0.248  0.00  0.00    +0.221 A 
ATOM     24  N   UNL     1       2.485   4.216  -0.066  0.00  0.00    -0.287 N 
ATOM     25  N   UNL     1       1.395   2.026  -0.270  0.00  0.00    -0.300 N 
ATOM     26  C   UNL     1       0.418   1.513  -1.239  0.00  0.00    +0.108 C 
ATOM     27  C   UNL     1       0.549  -0.008  -1.342  0.00  0.00    +0.019 C 
ATOM     28  C   UNL     1       0.306  -0.631   0.035  0.00  0.00    +0.003 C 
ATOM     29  C   UNL     1       1.305  -0.045   1.036  0.00  0.00    +0.019 C 
ATOM     30  C   UNL     1       1.152   1.477   1.070  0.00  0.00    +0.108 C 
BRANCH  24  31
ATOM     31  C   UNL     1       3.862   3.762   0.140  0.00  0.00    +0.093 C 
ATOM     32  C   UNL     1       4.957   4.426  -0.697  0.00  0.00    +0.027 C 
ATOM     33  C   UNL     1       4.528   2.988  -1.000  0.00  0.00    +0.027 C 
ENDBRANCH  24  31
ENDBRANCH  19  20
ENDBRANCH   2  19
TORSDOF 5
