REMARK  Name = ZINC65182710
REMARK  11 active torsions:
REMARK  status: ('A' for Active; 'I' for Inactive)
REMARK    1  A    between atoms: C_1  and  C_2
REMARK    2  A    between atoms: C_7  and  C_13
REMARK    3  A    between atoms: C_9  and  C_12
REMARK    4  A    between atoms: C_16  and  C_19
REMARK    5  A    between atoms: C_19  and  C_20
REMARK    6  A    between atoms: C_20  and  N_21
REMARK    7  A    between atoms: N_21  and  C_22
REMARK    8  A    between atoms: C_23  and  C_25
REMARK    9  A    between atoms: C_28  and  C_31
REMARK   10  A    between atoms: C_31  and  C_32
REMARK   11  A    between atoms: C_31  and  C_33
REMARK                            x       y       z     vdW  Elec       q    Type
REMARK                         _______ _______ _______ _____ _____    ______ ____
ROOT
ATOM      1  C   UNL     1      -0.992  -5.196   1.920  0.00  0.00    +0.318 C 
ATOM      2  N   UNL     1      -1.038  -6.499   1.238  0.00  0.00    -0.291 N 
ATOM      3  C   UNL     1      -1.030  -7.462   2.219  0.00  0.00    +0.139 C 
ATOM      4  N   UNL     1      -0.986  -6.941   3.391  0.00  0.00    -0.072 NA
ATOM      5  O   UNL     1      -0.961  -5.525   3.318  0.00  0.00    -0.367 OA
ATOM      6  H   UNL     1      -1.068  -6.649   0.280  0.00  0.00    +0.151 HD
ENDROOT
BRANCH   1  13
ATOM      7  C   UNL     1       0.360   1.497   0.122  0.00  0.00    +0.044 C 
ATOM      8  C   UNL     1       0.331  -0.010   0.099  0.00  0.00    -0.050 A 
ATOM      9  C   UNL     1       0.297  -0.673  -1.135  0.00  0.00    +0.005 A 
ATOM     10  C   UNL     1       0.269  -2.018  -1.240  0.00  0.00    +0.026 A 
ATOM     11  C   UNL     1       0.274  -2.830  -0.072  0.00  0.00    +0.043 A 
ATOM     12  N   UNL     1       0.251  -4.131   0.086  0.00  0.00    -0.373 N 
ATOM     13  C   UNL     1       0.271  -4.428   1.523  0.00  0.00    +0.168 C 
ATOM     14  C   UNL     1       0.309  -3.088   2.223  0.00  0.00    -0.036 C 
ATOM     15  C   UNL     1       0.311  -2.154   1.244  0.00  0.00    -0.001 A 
ATOM     16  C   UNL     1       0.345  -0.687   1.270  0.00  0.00    +0.013 A 
ATOM     17  C   UNL     1       0.339  -2.842   3.709  0.00  0.00    +0.042 C 
ATOM     18  H   UNL     1       0.226  -4.788  -0.627  0.00  0.00    +0.160 HD
ENDBRANCH   1  13
BRANCH   3  19
ATOM     19  C   UNL     1      -1.068  -8.945   1.952  0.00  0.00    +0.094 C 
BRANCH  19  20
ATOM     20  C   UNL     1      -1.046  -9.704   3.281  0.00  0.00    +0.115 C 
BRANCH  20  21
ATOM     21  N   UNL     1      -1.083 -11.145   3.021  0.00  0.00    -0.300 N 
ATOM     22  C   UNL     1       0.166 -11.892   2.855  0.00  0.00    +0.132 C 
ATOM     23  C   UNL     1      -2.267 -11.784   2.934  0.00  0.00    +0.246 C 
ATOM     24  O   UNL     1      -3.303 -11.150   2.966  0.00  0.00    -0.270 OA
BRANCH  23  25
ATOM     25  C   UNL     1      -2.304 -13.256   2.802  0.00  0.00    +0.037 A 
ATOM     26  C   UNL     1      -1.353 -14.043   3.453  0.00  0.00    +0.013 A 
ATOM     27  C   UNL     1      -1.394 -15.416   3.325  0.00  0.00    +0.004 A 
ATOM     28  C   UNL     1      -2.375 -16.013   2.553  0.00  0.00    -0.045 A 
ATOM     29  C   UNL     1      -3.320 -15.239   1.905  0.00  0.00    +0.004 A 
ATOM     30  C   UNL     1      -3.294 -13.865   2.029  0.00  0.00    +0.013 A 
BRANCH  28  31
ATOM     31  C   UNL     1      -2.413 -17.513   2.418  0.00  0.00    +0.013 C 
ATOM     32  C   UNL     1      -3.749 -18.039   2.946  0.00  0.00    +0.012 C 
ATOM     33  C   UNL     1      -2.261 -17.896   0.945  0.00  0.00    +0.012 C 
ENDBRANCH  28  31
ENDBRANCH  23  25
ENDBRANCH  20  21
ENDBRANCH  19  20
ENDBRANCH   3  19
TORSDOF 6
