REMARK  Name = ZINC11094685
REMARK  16 active torsions:
REMARK  status: ('A' for Active; 'I' for Inactive)
REMARK    1  A    between atoms: C_1  and  C_2
REMARK    2  A    between atoms: C_2  and  C_3
REMARK    3  A    between atoms: C_3  and  C_5
REMARK    4  A    between atoms: C_3  and  C_6
REMARK    5  A    between atoms: C_9  and  C_12
REMARK    6  A    between atoms: C_12  and  C_14
REMARK    7  A    between atoms: C_12  and  N_71
REMARK    8  A    between atoms: C_14  and  C_15
REMARK    9  A    between atoms: C_14  and  C_16
REMARK   10  A    between atoms: C_17  and  C_19
REMARK   11  A    between atoms: C_17  and  C_20
REMARK   12  A    between atoms: C_17  and  N_71
REMARK   13  A    between atoms: N_22  and  C_23
REMARK   14  A    between atoms: C_24  and  C_36
REMARK   15  A    between atoms: N_25  and  C_35
REMARK   16  A    between atoms: N_26  and  C_29
REMARK                            x       y       z     vdW  Elec       q    Type
REMARK                         _______ _______ _______ _____ _____    ______ ____
ROOT
ATOM      1  C   UNL     1      -3.416   7.082  -0.145  0.00  0.00    +0.014 C 
ATOM      2  C   UNL     1      -2.672   7.662   1.058  0.00  0.00    -0.004 C 
ENDROOT
BRANCH   1   3
ATOM      3  C   UNL     1      -3.192   5.593  -0.204  0.00  0.00    +0.203 C 
ATOM      4  O   UNL     1      -4.136   4.834  -0.141  0.00  0.00    -0.277 OA
ATOM      5  N   UNL     1      -1.942   5.104  -0.328  0.00  0.00    -0.281 N 
ATOM      6  H   UNL     1      -1.196   5.709  -0.460  0.00  0.00    +0.155 HD
BRANCH   5   7
ATOM      7  C   UNL     1      -1.720   3.714  -0.264  0.00  0.00    +0.121 A 
ATOM      8  C   UNL     1      -0.858   3.076   0.560  0.00  0.00    +0.059 A 
ATOM      9  N   UNL     1      -0.935   1.730   0.316  0.00  0.00    -0.282 N 
ATOM     10  N   UNL     1      -1.874   1.500  -0.696  0.00  0.00    -0.216 N 
ATOM     11  C   UNL     1      -2.374   2.692  -1.082  0.00  0.00    +0.293 A 
ATOM     12  O   UNL     1      -3.213   2.881  -1.945  0.00  0.00    -0.264 OA
ATOM     13  C   UNL     1      -0.156   0.697   1.003  0.00  0.00    +0.171 C 
ATOM     14  C   UNL     1       0.037   3.736   1.577  0.00  0.00    +0.067 C 
BRANCH  10  15
ATOM     15  C   UNL     1      -2.228   0.252  -1.219  0.00  0.00    +0.067 A 
ATOM     16  C   UNL     1      -3.567  -0.083  -1.375  0.00  0.00    +0.028 A 
ATOM     17  C   UNL     1      -3.913  -1.313  -1.898  0.00  0.00    +0.002 A 
ATOM     18  C   UNL     1      -2.929  -2.216  -2.254  0.00  0.00    +0.000 A 
ATOM     19  C   UNL     1      -1.595  -1.888  -2.095  0.00  0.00    +0.002 A 
ATOM     20  C   UNL     1      -1.242  -0.657  -1.578  0.00  0.00    +0.028 A 
ENDBRANCH  10  15
ENDBRANCH   5   7
ENDBRANCH   1   3
BRANCH   1  21
ATOM     21  N   UNL     1      -4.860   7.349  -0.006  0.00  0.00    +0.391 N 
ATOM     22  H   UNL     1      -5.389   6.605  -0.477  0.00  0.00    -0.084 HD
ATOM     23  H   UNL     1      -5.107   7.366   0.990  0.00  0.00    -0.084 HD
BRANCH  21  24
ATOM     24  C   UNL     1      -5.202   8.648  -0.615  0.00  0.00    -0.037 C 
BRANCH  24  28
ATOM     25  C   UNL     1      -4.823  11.736   2.312  0.00  0.00    -0.045 A 
ATOM     26  C   UNL     1      -4.408  11.961   1.013  0.00  0.00    +0.004 A 
ATOM     27  C   UNL     1      -4.531  10.962   0.065  0.00  0.00    +0.002 A 
ATOM     28  C   UNL     1      -5.068   9.738   0.418  0.00  0.00    -0.061 A 
ATOM     29  C   UNL     1      -5.487   9.514   1.716  0.00  0.00    +0.002 A 
ATOM     30  C   UNL     1      -5.359  10.512   2.664  0.00  0.00    +0.004 A 
BRANCH  25  31
ATOM     31  C   UNL     1      -4.689  12.826   3.345  0.00  0.00    +0.016 C 
ATOM     32  C   UNL     1      -3.790  12.342   4.484  0.00  0.00    +0.012 C 
BRANCH  31  34
ATOM     33  C   UNL     1      -5.953  14.363   4.855  0.00  0.00    +0.004 C 
ATOM     34  C   UNL     1      -6.072  13.174   3.900  0.00  0.00    +0.004 C 
ENDBRANCH  31  34
ENDBRANCH  25  31
ENDBRANCH  24  28
BRANCH  24  35
ATOM     35  C   UNL     1      -6.644   8.602  -1.123  0.00  0.00    -0.027 C 
ATOM     36  C   UNL     1      -7.025   9.966  -1.701  0.00  0.00    +0.006 C 
ATOM     37  C   UNL     1      -6.767   7.534  -2.212  0.00  0.00    +0.006 C 
ENDBRANCH  24  35
ENDBRANCH  21  24
ENDBRANCH   1  21
TORSDOF 9
