REMARK  Name = ZINC19770581
REMARK  11 active torsions:
REMARK  status: ('A' for Active; 'I' for Inactive)
REMARK    1  A    between atoms: C_1  and  C_2
REMARK    2  A    between atoms: C_2  and  C_3
REMARK    3  A    between atoms: C_2  and  C_4
REMARK    4  A    between atoms: C_4  and  C_6
REMARK    5  A    between atoms: C_4  and  N_29
REMARK    6  A    between atoms: N_13  and  C_16
REMARK    7  A    between atoms: C_16  and  C_17
REMARK    8  A    between atoms: C_20  and  C_22
REMARK    9  A    between atoms: C_22  and  N_23
REMARK   10  A    between atoms: N_29  and  S_30
REMARK   11  A    between atoms: S_30  and  C_33
REMARK                            x       y       z     vdW  Elec       q    Type
REMARK                         _______ _______ _______ _____ _____    ______ ____
ROOT
ATOM      1  C   UNL     1      -2.425  -7.869  -6.601  0.00  0.00    +0.152 A 
ATOM      2  N   UNL     1      -3.405  -7.405  -7.332  0.00  0.00    -0.133 NA
ATOM      3  N   UNL     1      -4.093  -6.558  -6.648  0.00  0.00    -0.134 NA
ATOM      4  C   UNL     1      -3.589  -6.451  -5.454  0.00  0.00    +0.132 A 
ATOM      5  N   UNL     1      -2.507  -7.265  -5.396  0.00  0.00    -0.315 N 
ATOM      6  C   UNL     1      -1.609  -7.424  -4.252  0.00  0.00    +0.106 C 
ATOM      7  C   UNL     1      -2.381  -7.129  -2.962  0.00  0.00    -0.056 C 
ATOM      8  N   UNL     1      -2.295  -5.699  -2.647  0.00  0.00    +0.384 N 
ATOM      9  C   UNL     1      -2.894  -4.864  -3.690  0.00  0.00    -0.071 C 
ATOM     10  C   UNL     1      -4.086  -5.596  -4.316  0.00  0.00    +0.058 C 
ATOM     11  H   UNL     1      -2.882  -5.535  -1.731  0.00  0.00    -0.081 HD
ENDROOT
BRANCH   1  12
ATOM     12  C   UNL     1      -1.397  -8.886  -7.024  0.00  0.00    +0.146 C 
BRANCH  12  14
ATOM     13  C   UNL     1      -1.019 -11.295  -7.568  0.00  0.00    +0.009 C 
ATOM     14  C   UNL     1      -2.035 -10.277  -7.047  0.00  0.00    +0.009 C 
ATOM     15  C   UNL     1      -2.464 -10.664  -5.630  0.00  0.00    +0.009 C 
ENDBRANCH  12  14
BRANCH  12  16
ATOM     16  N   UNL     1      -0.903  -8.553  -8.363  0.00  0.00    -0.184 NA
ATOM     17  H   UNL     1      -1.359  -9.020  -9.249  0.00  0.00    +0.148 HD
BRANCH  16  18
ATOM     18  S   UNL     1       0.491  -7.676  -8.537  0.00  0.00    +0.027 S 
ATOM     19  O   UNL     1       0.647  -7.518  -9.940  0.00  0.00    -0.158 OA
ATOM     20  O   UNL     1       0.314  -6.545  -7.695  0.00  0.00    -0.158 OA
ATOM     21  C   UNL     1       1.800  -8.745  -7.879  0.00  0.00    +0.214 C 
ENDBRANCH  16  18
ENDBRANCH  12  16
ENDBRANCH   1  12
BRANCH   8  22
ATOM     22  C   UNL     1      -0.905  -5.300  -2.387  0.00  0.00    -0.036 C 
BRANCH  22  23
ATOM     23  C   UNL     1      -0.883  -3.914  -1.794  0.00  0.00    -0.027 A 
ATOM     24  C   UNL     1      -0.934  -3.542  -0.492  0.00  0.00    +0.009 A 
ATOM     25  C   UNL     1      -0.899  -2.196  -0.177  0.00  0.00    +0.009 A 
ATOM     26  C   UNL     1      -0.817  -1.289  -1.181  0.00  0.00    -0.027 A 
ATOM     27  S   UNL     1      -0.791  -2.337  -2.626  0.00  0.00    -0.102 S 
BRANCH  26  28
ATOM     28  C   UNL     1      -0.766   0.215  -1.098  0.00  0.00    -0.036 C 
BRANCH  28  29
ATOM     29  N   UNL     1       0.632   0.653  -1.003  0.00  0.00    +0.383 N 
ATOM     30  C   UNL     1       0.739   2.110  -1.159  0.00  0.00    -0.078 C 
ATOM     31  C   UNL     1       2.215   2.513  -1.200  0.00  0.00    -0.019 C 
ATOM     32  C   UNL     1       2.897   2.068   0.096  0.00  0.00    -0.004 C 
ATOM     33  C   UNL     1       2.729   0.555   0.259  0.00  0.00    -0.019 C 
ATOM     34  C   UNL     1       1.239   0.209   0.258  0.00  0.00    -0.078 C 
ATOM     35  H   UNL     1       1.192   0.186  -1.827  0.00  0.00    -0.081 HD
ENDBRANCH  28  29
ENDBRANCH  26  28
ENDBRANCH  22  23
ENDBRANCH   8  22
TORSDOF 8
