REMARK  Name = ZINC17139755
REMARK  4 active torsions:
REMARK  status: ('A' for Active; 'I' for Inactive)
REMARK    1  A    between atoms: C_4  and  N_22
REMARK    2  A    between atoms: C_6  and  N_9
REMARK    3  A    between atoms: C_10  and  C_12
REMARK    4  A    between atoms: C_23  and  C_25
REMARK                            x       y       z     vdW  Elec       q    Type
REMARK                         _______ _______ _______ _____ _____    ______ ____
ROOT
ATOM      1  C   UNL     1      -0.013   1.086   0.008  0.00  0.00    +0.002 C 
ATOM      2  C   UNL     1      -0.729   1.579   1.267  0.00  0.00    +0.002 C 
ATOM      3  C   UNL     1      -2.164   1.050   1.278  0.00  0.00    +0.024 C 
ATOM      4  C   UNL     1      -2.904   1.556   0.038  0.00  0.00    +0.093 C 
ATOM      5  C   UNL     1      -2.188   1.063  -1.221  0.00  0.00    +0.093 C 
ATOM      6  C   UNL     1      -0.753   1.593  -1.232  0.00  0.00    +0.024 C 
ENDROOT
BRANCH   5   7
ATOM      7  N   UNL     1      -2.168  -0.402  -1.229  0.00  0.00    -0.310 N 
ATOM      8  C   UNL     1      -2.068  -1.068  -2.396  0.00  0.00    +0.219 C 
ATOM      9  O   UNL     1      -1.995  -0.455  -3.440  0.00  0.00    -0.275 OA
ATOM     10  H   UNL     1      -2.235  -0.958  -0.282  0.00  0.00    +0.149 HD
BRANCH   8  11
ATOM     11  C   UNL     1      -2.048  -2.575  -2.404  0.00  0.00    +0.048 C 
ATOM     12  C   UNL     1      -3.342  -3.106  -1.785  0.00  0.00    +0.019 C 
ATOM     13  C   UNL     1      -3.322  -4.636  -1.794  0.00  0.00    -0.009 C 
ATOM     14  C   UNL     1      -3.203  -5.136  -3.235  0.00  0.00    +0.007 C 
ATOM     15  C   UNL     1      -1.908  -4.605  -3.854  0.00  0.00    -0.009 C 
ATOM     16  C   UNL     1      -1.929  -3.075  -3.845  0.00  0.00    +0.019 C 
ATOM     17  C   UNL     1      -0.712  -5.103  -3.040  0.00  0.00    +0.007 C 
ATOM     18  C   UNL     1      -0.831  -4.603  -1.599  0.00  0.00    -0.009 C 
ATOM     19  C   UNL     1      -2.125  -5.134  -0.980  0.00  0.00    +0.007 C 
ATOM     20  C   UNL     1      -0.852  -3.073  -1.591  0.00  0.00    +0.019 C 
ENDBRANCH   8  11
ENDBRANCH   5   7
BRANCH   4  21
ATOM     21  N   UNL     1      -4.279   1.049   0.049  0.00  0.00    -0.310 N 
ATOM     22  C   UNL     1      -5.235   1.710   0.731  0.00  0.00    +0.219 C 
ATOM     23  O   UNL     1      -4.958   2.723   1.336  0.00  0.00    -0.275 OA
ATOM     24  H   UNL     1      -4.530   0.130  -0.500  0.00  0.00    +0.149 HD
BRANCH  22  25
ATOM     25  C   UNL     1      -6.649   1.188   0.741  0.00  0.00    +0.048 C 
ATOM     26  C   UNL     1      -7.185   1.137  -0.691  0.00  0.00    +0.019 C 
ATOM     27  C   UNL     1      -8.620   0.608  -0.680  0.00  0.00    -0.009 C 
ATOM     28  C   UNL     1      -9.500   1.535   0.161  0.00  0.00    +0.007 C 
ATOM     29  C   UNL     1      -8.964   1.586   1.593  0.00  0.00    -0.009 C 
ATOM     30  C   UNL     1      -7.529   2.115   1.582  0.00  0.00    +0.019 C 
ATOM     31  C   UNL     1      -8.984   0.180   2.195  0.00  0.00    +0.007 C 
ATOM     32  C   UNL     1      -8.105  -0.748   1.355  0.00  0.00    -0.009 C 
ATOM     33  C   UNL     1      -8.640  -0.799  -0.078  0.00  0.00    +0.007 C 
ATOM     34  C   UNL     1      -6.669  -0.218   1.344  0.00  0.00    +0.019 C 
ENDBRANCH  22  25
ENDBRANCH   4  21
TORSDOF 4
