REMARK  Name = ZINC58603485
REMARK  3 active torsions:
REMARK  status: ('A' for Active; 'I' for Inactive)
REMARK    1  A    between atoms: C_1  and  C_2
REMARK    2  A    between atoms: C_6  and  C_23
REMARK    3  A    between atoms: C_16  and  C_17
REMARK                            x       y       z     vdW  Elec       q    Type
REMARK                         _______ _______ _______ _____ _____    ______ ____
ROOT
ATOM      1  C   UNL     1       0.010   1.250  -0.656  0.00  0.00    +0.008 C 
ATOM      2  C   UNL     1      -0.041  -0.243  -0.325  0.00  0.00    -0.005 C 
ATOM      3  C   UNL     1      -1.482  -0.651  -0.030  0.00  0.00    +0.041 C 
ATOM      4  C   UNL     1      -1.560  -2.079   0.432  0.00  0.00    -0.009 A 
ATOM      5  C   UNL     1      -2.761  -2.762   0.296  0.00  0.00    +0.051 A 
ATOM      6  C   UNL     1      -2.810  -4.149   0.760  0.00  0.00    +0.013 A 
ATOM      7  C   UNL     1      -3.977  -4.912   0.662  0.00  0.00    +0.011 A 
ATOM      8  C   UNL     1      -3.979  -6.201   1.108  0.00  0.00    +0.001 A 
ATOM      9  C   UNL     1      -2.833  -6.767   1.660  0.00  0.00    +0.002 A 
ATOM     10  C   UNL     1      -1.680  -6.052   1.770  0.00  0.00    +0.028 A 
ATOM     11  C   UNL     1      -1.639  -4.719   1.321  0.00  0.00    +0.072 A 
ATOM     12  N   UNL     1      -0.525  -3.994   1.415  0.00  0.00    -0.247 NA
ATOM     13  C   UNL     1      -0.454  -2.739   0.999  0.00  0.00    +0.072 A 
ATOM     14  C   UNL     1       0.830  -2.020   1.133  0.00  0.00    -0.018 C 
ATOM     15  C   UNL     1       1.968  -2.677   1.444  0.00  0.00    +0.052 C 
ATOM     16  C   UNL     1       0.828  -0.524   0.909  0.00  0.00    +0.041 C 
ENDROOT
BRANCH  15  17
ATOM     17  C   UNL     1       1.993  -4.140   1.437  0.00  0.00    +0.128 A 
ATOM     18  C   UNL     1       2.715  -4.934   2.284  0.00  0.00    +0.049 A 
ATOM     19  C   UNL     1       2.441  -6.264   1.921  0.00  0.00    +0.042 A 
ATOM     20  C   UNL     1       1.577  -6.224   0.885  0.00  0.00    +0.195 A 
ATOM     21  O   UNL     1       1.304  -4.941   0.599  0.00  0.00    -0.464 OA
ENDBRANCH  15  17
BRANCH   5  22
ATOM     22  C   UNL     1      -3.949  -2.111  -0.297  0.00  0.00    +0.242 C 
ATOM     23  O   UNL     1      -4.141  -2.173  -1.495  0.00  0.00    -0.270 OA
ATOM     24  N   UNL     1      -4.818  -1.448   0.492  0.00  0.00    -0.325 N 
ATOM     25  H   UNL     1      -4.665  -1.399   1.449  0.00  0.00    +0.145 HD
ATOM     26  H   UNL     1      -5.598  -1.021   0.103  0.00  0.00    +0.145 HD
ENDBRANCH   5  22
TORSDOF 2
