REMARK  Name = ZINC35191141
REMARK  17 active torsions:
REMARK  status: ('A' for Active; 'I' for Inactive)
REMARK    1  A    between atoms: C_1  and  C_2
REMARK    2  A    between atoms: C_9  and  C_20
REMARK    3  A    between atoms: C_10  and  N_11
REMARK    4  A    between atoms: N_11  and  C_12
REMARK    5  A    between atoms: C_12  and  C_13
REMARK    6  A    between atoms: C_12  and  C_14
REMARK    7  A    between atoms: C_12  and  C_15
REMARK    8  A    between atoms: C_15  and  C_16
REMARK    9  A    between atoms: C_16  and  C_17
REMARK   10  A    between atoms: C_16  and  C_18
REMARK   11  A    between atoms: C_16  and  C_19
REMARK   12  A    between atoms: C_24  and  O_26
REMARK   13  A    between atoms: O_26  and  C_27
REMARK   14  A    between atoms: C_27  and  C_29
REMARK   15  A    between atoms: C_29  and  O_30
REMARK   16  A    between atoms: O_30  and  C_31
REMARK   17  A    between atoms: C_31  and  C_32
REMARK                            x       y       z     vdW  Elec       q    Type
REMARK                         _______ _______ _______ _____ _____    ______ ____
ROOT
ATOM      1  C   UNL     1      -0.908   1.288  -4.540  0.00  0.00    +0.044 C 
ATOM      2  C   UNL     1      -0.621   0.001  -3.810  0.00  0.00    -0.046 A 
ATOM      3  C   UNL     1      -1.153  -1.212  -4.284  0.00  0.00    +0.021 A 
ATOM      4  C   UNL     1      -0.899  -2.366  -3.635  0.00  0.00    +0.094 A 
ATOM      5  N   UNL     1      -0.124  -2.376  -2.506  0.00  0.00    -0.289 N 
ATOM      6  C   UNL     1       0.410  -1.204  -2.019  0.00  0.00    +0.117 A 
ATOM      7  C   UNL     1       0.155   0.009  -2.694  0.00  0.00    +0.048 A 
ATOM      8  N   UNL     1       1.111  -1.481  -0.932  0.00  0.00    -0.338 N 
ATOM      9  C   UNL     1       1.054  -2.804  -0.692  0.00  0.00    +0.087 A 
ATOM     10  C   UNL     1       0.279  -3.383  -1.674  0.00  0.00    +0.129 A 
ATOM     11  H   UNL     1       1.592  -0.833  -0.394  0.00  0.00    +0.167 HD
ENDROOT
BRANCH   9  12
ATOM     12  C   UNL     1       1.708  -3.513   0.433  0.00  0.00    +0.005 A 
ATOM     13  C   UNL     1       2.368  -4.721   0.208  0.00  0.00    +0.010 A 
ATOM     14  C   UNL     1       2.976  -5.380   1.258  0.00  0.00    +0.004 A 
ATOM     15  C   UNL     1       2.933  -4.846   2.533  0.00  0.00    +0.046 A 
ATOM     16  C   UNL     1       2.278  -3.644   2.765  0.00  0.00    +0.132 A 
ATOM     17  C   UNL     1       1.670  -2.973   1.717  0.00  0.00    +0.056 A 
BRANCH  16  18
ATOM     18  O   UNL     1       2.238  -3.123   4.020  0.00  0.00    -0.424 OA
BRANCH  18  19
ATOM     19  C   UNL     1       1.086  -3.214   4.703  0.00  0.00    +0.338 C 
ATOM     20  O   UNL     1       0.153  -3.825   4.237  0.00  0.00    -0.248 OA
BRANCH  19  21
ATOM     21  C   UNL     1       0.956  -2.553   6.051  0.00  0.00    +0.281 C 
BRANCH  21  22
ATOM     22  O   UNL     1      -0.353  -2.790   6.574  0.00  0.00    -0.364 OA
BRANCH  22  23
ATOM     23  C   UNL     1      -0.582  -2.203   7.856  0.00  0.00    +0.195 C 
BRANCH  23  24
ATOM     24  C   UNL     1      -1.986  -2.514   8.308  0.00  0.00    -0.022 A 
ATOM     25  C   UNL     1      -3.022  -1.659   7.982  0.00  0.00    +0.006 A 
ATOM     26  C   UNL     1      -4.310  -1.945   8.396  0.00  0.00    +0.000 A 
ATOM     27  C   UNL     1      -4.561  -3.085   9.135  0.00  0.00    +0.000 A 
ATOM     28  C   UNL     1      -3.525  -3.941   9.460  0.00  0.00    +0.000 A 
ATOM     29  C   UNL     1      -2.238  -3.658   9.043  0.00  0.00    +0.006 A 
ENDBRANCH  23  24
ENDBRANCH  22  23
ENDBRANCH  21  22
ENDBRANCH  19  21
ENDBRANCH  18  19
ENDBRANCH  16  18
ENDBRANCH   9  12
BRANCH  10  30
ATOM     30  N   UNL     1      -0.034  -4.737  -1.796  0.00  0.00    -0.323 N 
ATOM     31  H   UNL     1       0.188  -5.352  -1.080  0.00  0.00    +0.148 HD
BRANCH  30  32
ATOM     32  C   UNL     1      -0.697  -5.230  -3.006  0.00  0.00    +0.028 C 
ATOM     33  C   UNL     1      -2.108  -4.643  -3.089  0.00  0.00    +0.031 C 
ATOM     34  C   UNL     1       0.105  -4.804  -4.237  0.00  0.00    +0.031 C 
BRANCH  32  35
ATOM     35  C   UNL     1      -0.782  -6.756  -2.955  0.00  0.00    +0.031 C 
BRANCH  35  36
ATOM     36  C   UNL     1       0.507  -7.319  -2.354  0.00  0.00    -0.036 C 
ATOM     37  C   UNL     1       0.329  -7.506  -0.846  0.00  0.00    +0.010 C 
ATOM     38  C   UNL     1       0.825  -8.669  -3.001  0.00  0.00    +0.010 C 
ATOM     39  C   UNL     1       1.659  -6.346  -2.615  0.00  0.00    +0.010 C 
ENDBRANCH  35  36
ENDBRANCH  32  35
ENDBRANCH  30  32
ENDBRANCH  10  30
TORSDOF 11
