REMARK  Name = ZINC40756219
REMARK  7 active torsions:
REMARK  status: ('A' for Active; 'I' for Inactive)
REMARK    1  A    between atoms: C_1  and  C_2
REMARK    2  A    between atoms: C_4  and  C_23
REMARK    3  A    between atoms: C_8  and  N_22
REMARK    4  A    between atoms: C_9  and  N_13
REMARK    5  A    between atoms: N_13  and  C_14
REMARK    6  A    between atoms: C_14  and  C_15
REMARK    7  A    between atoms: C_15  and  C_16
REMARK                            x       y       z     vdW  Elec       q    Type
REMARK                         _______ _______ _______ _____ _____    ______ ____
ROOT
ATOM      1  C   UNL     1       1.388   1.132  -0.486  0.00  0.00    +0.067 C 
ATOM      2  C   UNL     1       0.681  -0.173  -0.224  0.00  0.00    +0.061 A 
ATOM      3  C   UNL     1      -0.412  -0.671  -0.943  0.00  0.00    +0.048 A 
ATOM      4  C   UNL     1      -0.757  -1.863  -0.405  0.00  0.00    +0.044 A 
ATOM      5  N   UNL     1       0.093  -2.111   0.625  0.00  0.00    -0.217 N 
ATOM      6  N   UNL     1       0.988  -1.036   0.710  0.00  0.00    -0.170 NA
ATOM      7  C   UNL     1       0.082  -3.240   1.449  0.00  0.00    +0.180 A 
ATOM      8  C   UNL     1       0.156  -3.106   2.834  0.00  0.00    +0.110 A 
ATOM      9  C   UNL     1       0.140  -4.268   3.612  0.00  0.00    +0.145 A 
ATOM     10  N   UNL     1       0.057  -5.448   3.004  0.00  0.00    -0.219 NA
ATOM     11  C   UNL     1      -0.011  -5.529   1.690  0.00  0.00    +0.225 A 
ATOM     12  N   UNL     1      -0.005  -4.459   0.923  0.00  0.00    -0.215 NA
ATOM     13  C   UNL     1      -1.883  -2.754  -0.864  0.00  0.00    +0.066 C 
ENDROOT
BRANCH   8  14
ATOM     14  N   UNL     1       0.244  -1.841   3.432  0.00  0.00    -0.352 N 
ATOM     15  H   UNL     1       0.160  -1.041   2.889  0.00  0.00    +0.143 HD
ATOM     16  H   UNL     1       0.388  -1.765   4.388  0.00  0.00    +0.143 HD
ENDBRANCH   8  14
BRANCH   9  17
ATOM     17  N   UNL     1       0.212  -4.192   4.997  0.00  0.00    -0.327 N 
ATOM     18  H   UNL     1       0.273  -3.327   5.433  0.00  0.00    +0.148 HD
BRANCH  17  19
ATOM     19  C   UNL     1       0.195  -5.417   5.800  0.00  0.00    +0.107 C 
BRANCH  19  20
ATOM     20  C   UNL     1       0.284  -5.055   7.284  0.00  0.00    +0.049 C 
BRANCH  20  21
ATOM     21  C   UNL     1       0.267  -6.315   8.110  0.00  0.00    -0.072 C 
ATOM     22  C   UNL     1       1.402  -6.818   8.475  0.00  0.00    -0.028 C 
ATOM     23  C   UNL     1       1.545  -8.071   9.289  0.00  0.00    +0.027 C 
ATOM     24  C   UNL     1       0.216  -8.413   9.967  0.00  0.00    +0.004 C 
ATOM     25  C   UNL     1      -0.895  -8.361   8.911  0.00  0.00    +0.005 C 
ATOM     26  C   UNL     1      -1.067  -6.906   8.464  0.00  0.00    +0.030 C 
ENDBRANCH  20  21
ENDBRANCH  19  20
ENDBRANCH  17  19
ENDBRANCH   9  17
TORSDOF 5
