REMARK  Name = ZINC39488317
REMARK  11 active torsions:
REMARK  status: ('A' for Active; 'I' for Inactive)
REMARK    1  A    between atoms: C_1  and  C_2
REMARK    2  A    between atoms: C_2  and  O_3
REMARK    3  A    between atoms: O_3  and  N_4
REMARK    4  A    between atoms: C_7  and  C_10
REMARK    5  A    between atoms: C_7  and  C_29
REMARK    6  A    between atoms: C_10  and  N_11
REMARK    7  A    between atoms: N_14  and  S_27
REMARK    8  A    between atoms: C_16  and  C_17
REMARK    9  A    between atoms: C_16  and  S_18
REMARK   10  A    between atoms: S_18  and  C_21
REMARK   11  A    between atoms: S_27  and  C_28
REMARK                            x       y       z     vdW  Elec       q    Type
REMARK                         _______ _______ _______ _____ _____    ______ ____
ROOT
ATOM      1  N   UNL     1      -6.331  -5.176   1.775  0.00  0.00    -0.258 N 
ATOM      2  C   UNL     1      -6.442  -6.448   1.371  0.00  0.00    +0.316 C 
ATOM      3  O   UNL     1      -5.701  -6.949   0.546  0.00  0.00    -0.251 OA
ATOM      4  N   UNL     1      -7.441  -7.120   1.958  0.00  0.00    -0.226 N 
ATOM      5  C   UNL     1      -8.136  -6.227   2.897  0.00  0.00    +0.172 C 
ATOM      6  C   UNL     1      -7.371  -4.895   2.776  0.00  0.00    +0.175 C 
ATOM      7  C   UNL     1      -8.303  -3.785   2.286  0.00  0.00    +0.059 C 
ENDROOT
BRANCH   6   8
ATOM      8  S   UNL     1      -6.619  -4.442   4.364  0.00  0.00    +0.020 S 
ATOM      9  O   UNL     1      -5.628  -5.394   4.725  0.00  0.00    -0.167 OA
ATOM     10  O   UNL     1      -6.331  -3.051   4.390  0.00  0.00    -0.167 OA
BRANCH   8  11
ATOM     11  C   UNL     1      -7.903  -4.659   5.551  0.00  0.00    +0.091 A 
ATOM     12  C   UNL     1      -8.752  -3.609   5.850  0.00  0.00    +0.027 A 
ATOM     13  C   UNL     1      -9.759  -3.779   6.781  0.00  0.00    +0.002 A 
ATOM     14  C   UNL     1      -9.918  -4.998   7.413  0.00  0.00    +0.000 A 
ATOM     15  C   UNL     1      -9.070  -6.048   7.113  0.00  0.00    +0.002 A 
ATOM     16  C   UNL     1      -8.066  -5.880   6.179  0.00  0.00    +0.027 A 
ENDBRANCH   8  11
ENDBRANCH   6   8
BRANCH   4  17
ATOM     17  S   UNL     1      -7.832  -8.703   1.671  0.00  0.00    -0.059 S 
ATOM     18  C   UNL     1      -7.006  -9.608   3.008  0.00  0.00    +0.107 C 
ENDBRANCH   4  17
BRANCH   1  19
ATOM     19  C   UNL     1      -5.330  -4.218   1.298  0.00  0.00    +0.118 C 
BRANCH  19  23
ATOM     20  N   UNL     1      -2.825  -1.906   2.179  0.00  0.00    -0.188 NA
ATOM     21  C   UNL     1      -2.945  -2.535   0.858  0.00  0.00    +0.115 C 
ATOM     22  C   UNL     1      -2.853  -4.056   1.006  0.00  0.00    +0.026 C 
ATOM     23  C   UNL     1      -3.974  -4.543   1.928  0.00  0.00    -0.008 C 
ATOM     24  C   UNL     1      -3.855  -3.836   3.281  0.00  0.00    +0.026 C 
ATOM     25  C   UNL     1      -3.918  -2.322   3.067  0.00  0.00    +0.115 C 
BRANCH  23  26
ATOM     26  C   UNL     1      -3.851  -6.055   2.128  0.00  0.00    -0.003 C 
ATOM     27  C   UNL     1      -4.561  -6.457   3.422  0.00  0.00    +0.004 C 
ATOM     28  C   UNL     1      -4.438  -7.969   3.623  0.00  0.00    +0.000 C 
ATOM     29  C   UNL     1      -2.959  -8.352   3.712  0.00  0.00    +0.000 C 
ATOM     30  C   UNL     1      -2.249  -7.950   2.418  0.00  0.00    +0.000 C 
ATOM     31  C   UNL     1      -2.372  -6.438   2.217  0.00  0.00    +0.004 C 
ENDBRANCH  23  26
BRANCH  20  32
ATOM     32  O   UNL     1      -2.770  -0.448   2.063  0.00  0.00    -0.297 OA
BRANCH  32  34
ATOM     33  C   UNL     1      -1.591   1.644   2.333  0.00  0.00    +0.036 C 
ATOM     34  C   UNL     1      -1.536   0.124   2.499  0.00  0.00    +0.182 C 
ENDBRANCH  32  34
ENDBRANCH  20  32
ENDBRANCH  19  23
ENDBRANCH   1  19
TORSDOF 8
