REMARK  Name = ZINC13174746
REMARK  11 active torsions:
REMARK  status: ('A' for Active; 'I' for Inactive)
REMARK    1  A    between atoms: C_1  and  C_2
REMARK    2  A    between atoms: C_2  and  C_3
REMARK    3  A    between atoms: C_2  and  C_4
REMARK    4  A    between atoms: C_7  and  N_10
REMARK    5  A    between atoms: C_11  and  C_13
REMARK    6  A    between atoms: C_13  and  S_14
REMARK    7  A    between atoms: S_14  and  C_15
REMARK    8  A    between atoms: C_16  and  C_34
REMARK    9  A    between atoms: C_17  and  C_29
REMARK   10  A    between atoms: C_22  and  C_26
REMARK   11  A    between atoms: C_22  and  C_27
REMARK                            x       y       z     vdW  Elec       q    Type
REMARK                         _______ _______ _______ _____ _____    ______ ____
ROOT
ATOM      1  C   UNL     1      -9.265  -4.419  -2.483  0.00  0.00    +0.112 C 
ATOM      2  C   UNL     1      -9.839  -5.138  -3.518  0.00  0.00    +0.073 C 
ATOM      3  C   UNL     1     -11.312  -5.482  -3.390  0.00  0.00    +0.104 C 
ATOM      4  C   UNL     1     -11.999  -4.995  -2.129  0.00  0.00    +0.029 C 
ATOM      5  C   UNL     1     -13.301  -5.256  -1.930  0.00  0.00    +0.162 C 
ATOM      6  C   UNL     1     -14.013  -4.785  -0.689  0.00  0.00    +0.086 C 
ATOM      7  C   UNL     1     -13.013  -4.706   0.468  0.00  0.00    -0.023 C 
ATOM      8  C   UNL     1     -11.871  -3.767   0.072  0.00  0.00    +0.062 C 
ATOM      9  C   UNL     1     -11.229  -4.274  -1.198  0.00  0.00    +0.051 C 
ATOM     10  N   UNL     1      -9.958  -4.038  -1.408  0.00  0.00    -0.244 NA
ATOM     11  C   UNL     1     -12.453  -6.100   0.758  0.00  0.00    +0.011 C 
ATOM     12  C   UNL     1     -13.714  -4.163   1.715  0.00  0.00    +0.011 C 
ATOM     13  O   UNL     1     -13.984  -5.953  -2.859  0.00  0.00    -0.292 OA
ENDROOT
BRANCH   3  14
ATOM     14  C   UNL     1     -12.037  -4.894  -4.574  0.00  0.00    +0.002 A 
ATOM     15  C   UNL     1     -12.767  -5.524  -5.526  0.00  0.00    +0.012 A 
ATOM     16  C   UNL     1     -13.350  -4.773  -6.530  0.00  0.00    +0.008 A 
ATOM     17  C   UNL     1     -13.173  -3.429  -6.532  0.00  0.00    +0.045 A 
ATOM     18  S   UNL     1     -12.163  -3.187  -5.080  0.00  0.00    -0.101 S 
ENDBRANCH   3  14
BRANCH   2  19
ATOM     19  C   UNL     1      -9.075  -5.541  -4.660  0.00  0.00    +0.098 C 
ATOM     20  N   UNL     1      -8.470  -5.860  -5.566  0.00  0.00    -0.191 NA
ENDBRANCH   2  19
BRANCH   1  21
ATOM     21  S   UNL     1      -7.557  -3.997  -2.587  0.00  0.00    -0.096 S 
BRANCH  21  22
ATOM     22  C   UNL     1      -7.236  -3.087  -1.052  0.00  0.00    +0.172 C 
BRANCH  22  24
ATOM     23  N   UNL     1      -5.320  -1.968   0.042  0.00  0.00    -0.285 N 
ATOM     24  C   UNL     1      -5.790  -2.663  -1.013  0.00  0.00    +0.227 C 
ATOM     25  O   UNL     1      -5.050  -2.946  -1.931  0.00  0.00    -0.275 OA
ATOM     26  H   UNL     1      -5.891  -1.807   0.810  0.00  0.00    +0.155 HD
BRANCH  23  30
ATOM     27  C   UNL     1      -1.418  -0.509   0.005  0.00  0.00    -0.045 A 
ATOM     28  C   UNL     1      -2.137  -0.586  -1.174  0.00  0.00    +0.006 A 
ATOM     29  C   UNL     1      -3.431  -1.069  -1.165  0.00  0.00    +0.023 A 
ATOM     30  C   UNL     1      -4.010  -1.478   0.030  0.00  0.00    +0.033 A 
ATOM     31  C   UNL     1      -3.284  -1.400   1.212  0.00  0.00    +0.023 A 
ATOM     32  C   UNL     1      -1.989  -0.920   1.195  0.00  0.00    +0.006 A 
BRANCH  27  34
ATOM     33  C   UNL     1       0.857  -0.856  -0.919  0.00  0.00    +0.012 C 
ATOM     34  C   UNL     1      -0.007   0.019  -0.009  0.00  0.00    +0.013 C 
ATOM     35  C   UNL     1      -0.005   1.457  -0.532  0.00  0.00    +0.012 C 
ENDBRANCH  27  34
ENDBRANCH  23  30
ENDBRANCH  22  24
ENDBRANCH  21  22
ENDBRANCH   1  21
TORSDOF 7
