REMARK  Name = ZINC61405776
REMARK  6 active torsions:
REMARK  status: ('A' for Active; 'I' for Inactive)
REMARK    1  A    between atoms: C_1  and  C_2
REMARK    2  A    between atoms: C_2  and  C_4
REMARK    3  A    between atoms: C_2  and  N_23
REMARK    4  A    between atoms: C_4  and  C_6
REMARK    5  A    between atoms: C_4  and  S_13
REMARK    6  A    between atoms: S_13  and  C_14
REMARK                            x       y       z     vdW  Elec       q    Type
REMARK                         _______ _______ _______ _____ _____    ______ ____
ROOT
ATOM      1  C   UNL     1       0.842  -0.527   1.171  0.00  0.00    +0.069 C 
ENDROOT
BRANCH   1   2
ATOM      2  C   UNL     1       1.002  -2.024   1.111  0.00  0.00    -0.036 A 
ATOM      3  C   UNL     1      -0.112  -2.841   1.171  0.00  0.00    +0.006 A 
ATOM      4  C   UNL     1       0.034  -4.214   1.116  0.00  0.00    +0.020 A 
ATOM      5  C   UNL     1       1.296  -4.771   1.002  0.00  0.00    +0.041 A 
ATOM      6  C   UNL     1       2.410  -3.954   0.943  0.00  0.00    +0.020 A 
ATOM      7  C   UNL     1       2.262  -2.580   0.991  0.00  0.00    +0.006 A 
ATOM      8 CL   UNL     1       1.480  -6.496   0.934  0.00  0.00    -0.084 Cl
ENDBRANCH   1   2
BRANCH   1  10
ATOM      9  C   UNL     1      -0.144   1.465   0.030  0.00  0.00    -0.013 C 
ATOM     10  C   UNL     1      -0.028  -0.060   0.002  0.00  0.00    -0.060 C 
BRANCH  10  11
ATOM     11  N   UNL     1       0.586  -0.481  -1.264  0.00  0.00    +0.381 N 
ATOM     12  H   UNL     1       1.505  -0.072  -1.345  0.00  0.00    -0.090 HD
ATOM     13  H   UNL     1       0.662  -1.487  -1.283  0.00  0.00    -0.090 HD
ATOM     14  H   UNL     1       0.012  -0.173  -2.035  0.00  0.00    -0.090 HD
ENDBRANCH  10  11
ENDBRANCH   1  10
BRANCH   1  15
ATOM     15  S   UNL     1       0.051  -0.065   2.736  0.00  0.00    -0.079 S 
BRANCH  15  16
ATOM     16  C   UNL     1       1.261  -0.454   3.957  0.00  0.00    +0.196 A 
ATOM     17  N   UNL     1       2.420  -1.036   3.746  0.00  0.00    -0.122 NA
ATOM     18  N   UNL     1       3.060  -1.170   4.854  0.00  0.00    -0.129 NA
ATOM     19  C   UNL     1       2.341  -0.678   5.846  0.00  0.00    +0.162 A 
ATOM     20  N   UNL     1       1.170  -0.201   5.293  0.00  0.00    -0.278 N 
ATOM     21  C   UNL     1       0.218   0.379   6.085  0.00  0.00    +0.095 A 
ATOM     22  C   UNL     1       0.411   0.495   7.414  0.00  0.00    +0.018 A 
ATOM     23  C   UNL     1       1.597   0.021   8.006  0.00  0.00    +0.005 A 
ATOM     24  C   UNL     1       2.551  -0.566   7.235  0.00  0.00    +0.049 A 
ENDBRANCH  15  16
ENDBRANCH   1  15
TORSDOF 5
