REMARK  Name = ZINC33115466
REMARK  8 active torsions:
REMARK  status: ('A' for Active; 'I' for Inactive)
REMARK    1  A    between atoms: C_1  and  C_2
REMARK    2  A    between atoms: C_5  and  N_8
REMARK    3  A    between atoms: C_9  and  C_11
REMARK    4  A    between atoms: C_11  and  C_14
REMARK    5  A    between atoms: C_17  and  N_20
REMARK    6  A    between atoms: N_20  and  S_21
REMARK    7  A    between atoms: S_21  and  C_24
REMARK    8  A    between atoms: C_27  and  C_30
REMARK                            x       y       z     vdW  Elec       q    Type
REMARK                         _______ _______ _______ _____ _____    ______ ____
ROOT
ATOM      1  C   UNL     1      -3.446   4.782  -4.265  0.00  0.00    -0.032 A 
ATOM      2  C   UNL     1      -4.433   5.545  -4.861  0.00  0.00    +0.006 A 
ATOM      3  C   UNL     1      -5.742   5.104  -4.861  0.00  0.00    +0.025 A 
ATOM      4  C   UNL     1      -6.068   3.899  -4.251  0.00  0.00    +0.048 A 
ATOM      5  C   UNL     1      -5.074   3.139  -3.649  0.00  0.00    +0.025 A 
ATOM      6  C   UNL     1      -3.766   3.582  -3.658  0.00  0.00    +0.006 A 
ENDROOT
BRANCH   1   7
ATOM      7  C   UNL     1      -2.017   5.263  -4.273  0.00  0.00    +0.072 C 
ATOM      8  C   UNL     1      -1.321   5.386  -5.630  0.00  0.00    +0.022 C 
ATOM      9  C   UNL     1      -1.740   6.645  -4.868  0.00  0.00    +0.022 C 
BRANCH   7  11
ATOM     10  N   UNL     1      -1.587   5.107  -1.842  0.00  0.00    -0.312 N 
ATOM     11  C   UNL     1      -1.180   4.832  -3.097  0.00  0.00    +0.224 C 
ATOM     12  O   UNL     1      -0.139   4.236  -3.280  0.00  0.00    -0.275 OA
ATOM     13  H   UNL     1      -2.487   5.718  -1.678  0.00  0.00    +0.149 HD
BRANCH  10  18
ATOM     14  C   UNL     1       0.974   4.366   3.229  0.00  0.00    +0.007 C 
ATOM     15  C   UNL     1       0.185   4.902   2.033  0.00  0.00    -0.014 C 
ATOM     16  C   UNL     1      -0.967   3.947   1.712  0.00  0.00    +0.005 C 
ATOM     17  C   UNL     1      -1.756   4.484   0.517  0.00  0.00    +0.022 C 
ATOM     18  C   UNL     1      -0.831   4.594  -0.697  0.00  0.00    +0.073 C 
ATOM     19  C   UNL     1       0.320   5.549  -0.376  0.00  0.00    +0.022 C 
ATOM     20  C   UNL     1       1.110   5.012   0.820  0.00  0.00    +0.005 C 
ENDBRANCH  10  18
ENDBRANCH   7  11
ENDBRANCH   1   7
BRANCH   4  21
ATOM     21  N   UNL     1      -7.392   3.454  -4.244  0.00  0.00    -0.216 N 
ATOM     22  H   UNL     1      -7.622   2.410  -4.502  0.00  0.00    +0.174 HD
BRANCH  21  23
ATOM     23  S   UNL     1      -8.614   4.497  -3.845  0.00  0.00    +0.072 S 
ATOM     24  O   UNL     1      -8.452   5.646  -4.665  0.00  0.00    -0.150 OA
ATOM     25  O   UNL     1      -9.812   3.733  -3.832  0.00  0.00    -0.150 OA
BRANCH  23  26
ATOM     26  C   UNL     1      -8.333   5.020  -2.186  0.00  0.00    +0.109 A 
ATOM     27  C   UNL     1      -8.789   4.250  -1.132  0.00  0.00    +0.029 A 
ATOM     28  C   UNL     1      -8.564   4.658   0.170  0.00  0.00    +0.006 A 
ATOM     29  C   UNL     1      -7.892   5.840   0.417  0.00  0.00    -0.044 A 
ATOM     30  C   UNL     1      -7.440   6.612  -0.636  0.00  0.00    +0.006 A 
ATOM     31  C   UNL     1      -7.660   6.202  -1.938  0.00  0.00    +0.029 A 
BRANCH  29  32
ATOM     32  C   UNL     1      -7.651   6.287   1.837  0.00  0.00    +0.019 C 
ATOM     33  C   UNL     1      -6.824   5.230   2.571  0.00  0.00    +0.008 C 
ATOM     34  C   UNL     1      -6.580   5.684   4.012  0.00  0.00    +0.001 C 
ATOM     35  C   UNL     1      -7.922   5.866   4.723  0.00  0.00    +0.000 C 
ATOM     36  C   UNL     1      -8.749   6.923   3.989  0.00  0.00    +0.001 C 
ATOM     37  C   UNL     1      -8.993   6.469   2.548  0.00  0.00    +0.008 C 
ENDBRANCH  29  32
ENDBRANCH  23  26
ENDBRANCH  21  23
ENDBRANCH   4  21
TORSDOF 7
