REMARK  Name = ZINC11856025
REMARK  3 active torsions:
REMARK  status: ('A' for Active; 'I' for Inactive)
REMARK    1  A    between atoms: C_10  and  C_12
REMARK    2  A    between atoms: N_14  and  C_15
REMARK    3  A    between atoms: C_17  and  C_32
REMARK                            x       y       z     vdW  Elec       q    Type
REMARK                         _______ _______ _______ _____ _____    ______ ____
ROOT
ATOM      1  C   UNL     1       2.297   6.891   0.019  0.00  0.00    +0.133 A 
ATOM      2  C   UNL     1       2.267   5.534   0.016  0.00  0.00    +0.074 A 
ATOM      3  C   UNL     1       0.915   5.132   0.021  0.00  0.00    +0.102 A 
ATOM      4  N   UNL     1       0.163   6.215   0.035  0.00  0.00    -0.162 NA
ATOM      5  N   UNL     1       1.004   7.335   0.034  0.00  0.00    -0.185 N 
ATOM      6  C   UNL     1       0.599   8.655   0.047  0.00  0.00    +0.234 A 
ATOM      7  N   UNL     1      -0.729   8.947   0.061  0.00  0.00    -0.291 N 
ATOM      8  H   UNL     1      -1.386   8.233   0.066  0.00  0.00    +0.172 HD
ATOM      9  C   UNL     1      -1.125  10.235   0.069  0.00  0.00    +0.256 A 
ATOM     10  O   UNL     1      -2.312  10.517   0.084  0.00  0.00    -0.267 OA
ATOM     11  C   UNL     1      -0.147  11.255   0.060  0.00  0.00    +0.038 A 
ATOM     12  C   UNL     1       1.164  10.904   0.054  0.00  0.00    +0.053 A 
ATOM     13  N   UNL     1       1.501   9.608   0.050  0.00  0.00    -0.217 NA
ATOM     14  C   UNL     1       2.276  11.919   0.067  0.00  0.00    +0.056 C 
ATOM     15  C   UNL     1       1.758  13.290  -0.364  0.00  0.00    +0.006 C 
ATOM     16  C   UNL     1       0.516  13.622   0.472  0.00  0.00    +0.005 C 
ATOM     17  C   UNL     1      -0.614  12.685   0.048  0.00  0.00    +0.042 C 
ENDROOT
BRANCH   3  18
ATOM     18  C   UNL     1       0.425   3.737   0.018  0.00  0.00    +0.039 A 
ATOM     19  C   UNL     1      -0.864   3.276   0.028  0.00  0.00    +0.018 A 
ATOM     20  C   UNL     1      -1.080   1.915   0.017  0.00  0.00    +0.008 A 
ATOM     21  C   UNL     1      -0.013   1.076   0.008  0.00  0.00    +0.046 A 
ATOM     22  S   UNL     1       1.360   2.217   0.001  0.00  0.00    -0.095 S 
ENDBRANCH   3  18
BRANCH   1  25
ATOM     23  C   UNL     1       4.658   7.116  -0.002  0.00  0.00    +0.285 C 
ATOM     24  O   UNL     1       4.762   5.905  -0.011  0.00  0.00    -0.266 OA
ATOM     25  N   UNL     1       3.438   7.687   0.013  0.00  0.00    -0.264 N 
ATOM     26  H   UNL     1       3.355   8.654   0.020  0.00  0.00    +0.157 HD
BRANCH  23  36
ATOM     27  C   UNL     1       8.935  11.894  -0.014  0.00  0.00    +0.001 A 
ATOM     28  C   UNL     1       7.637  12.385   0.001  0.00  0.00    +0.004 A 
ATOM     29  C   UNL     1       6.559  11.526   0.006  0.00  0.00    +0.047 A 
ATOM     30  C   UNL     1       6.770  10.151  -0.004  0.00  0.00    +0.139 A 
ATOM     31  C   UNL     1       8.088   9.662  -0.020  0.00  0.00    +0.064 A 
ATOM     32  C   UNL     1       9.166  10.547  -0.025  0.00  0.00    +0.015 A 
ATOM     33  C   UNL     1       8.294   8.201  -0.030  0.00  0.00    +0.193 A 
ATOM     34  O   UNL     1       9.410   7.714  -0.045  0.00  0.00    -0.287 OA
ATOM     35  C   UNL     1       7.087   7.361  -0.024  0.00  0.00    +0.103 A 
ATOM     36  C   UNL     1       5.873   7.963  -0.008  0.00  0.00    +0.194 A 
ATOM     37  O   UNL     1       5.729   9.296  -0.004  0.00  0.00    -0.450 OA
ENDBRANCH  23  36
ENDBRANCH   1  25
TORSDOF 3
