REMARK  Name = ZINC10013632
REMARK  9 active torsions:
REMARK  status: ('A' for Active; 'I' for Inactive)
REMARK    1  A    between atoms: C_1  and  C_2
REMARK    2  A    between atoms: C_3  and  C_31
REMARK    3  A    between atoms: C_4  and  C_21
REMARK    4  A    between atoms: C_10  and  C_15
REMARK    5  A    between atoms: C_25  and  O_29
REMARK    6  A    between atoms: C_26  and  O_27
REMARK    7  A    between atoms: O_27  and  C_28
REMARK    8  A    between atoms: O_29  and  C_30
REMARK    9  A    between atoms: N_33  and  C_34
REMARK                            x       y       z     vdW  Elec       q    Type
REMARK                         _______ _______ _______ _____ _____    ______ ____
ROOT
ATOM      1  C   UNL     1      -2.079  -0.670  -5.279  0.00  0.00    +0.061 C 
ATOM      2  C   UNL     1      -0.811  -0.708  -4.466  0.00  0.00    +0.014 C 
ATOM      3  C   UNL     1      -0.631   0.171  -3.467  0.00  0.00    +0.043 C 
ATOM      4  C   UNL     1       0.615   0.157  -2.631  0.00  0.00    +0.094 C 
ATOM      5  C   UNL     1       1.717  -0.612  -3.315  0.00  0.00    +0.024 C 
ATOM      6  C   UNL     1       1.440  -1.461  -4.327  0.00  0.00    +0.016 C 
ATOM      7  N   UNL     1       0.151  -1.639  -4.751  0.00  0.00    -0.321 N 
ATOM      8  C   UNL     1       2.538  -2.232  -5.017  0.00  0.00    +0.059 C 
ATOM      9  C   UNL     1       3.672  -2.509  -4.028  0.00  0.00    +0.032 C 
ATOM     10  C   UNL     1       4.184  -1.169  -3.489  0.00  0.00    +0.088 C 
ATOM     11  C   UNL     1       3.036  -0.420  -2.869  0.00  0.00    +0.162 C 
ATOM     12  O   UNL     1       3.253   0.364  -1.966  0.00  0.00    -0.292 OA
ATOM     13  H   UNL     1      -0.109  -2.540  -5.326  0.00  0.00    +0.152 HD
ENDROOT
BRANCH   9  14
ATOM     14  C   UNL     1       4.791  -3.233  -4.731  0.00  0.00    -0.044 A 
ATOM     15  C   UNL     1       5.423  -2.646  -5.812  0.00  0.00    +0.004 A 
ATOM     16  C   UNL     1       6.452  -3.309  -6.454  0.00  0.00    +0.000 A 
ATOM     17  C   UNL     1       6.844  -4.562  -6.021  0.00  0.00    +0.000 A 
ATOM     18  C   UNL     1       6.209  -5.151  -4.943  0.00  0.00    +0.000 A 
ATOM     19  C   UNL     1       5.183  -4.486  -4.298  0.00  0.00    +0.004 A 
ENDBRANCH   9  14
BRANCH   4  20
ATOM     20  C   UNL     1       0.312  -0.488  -1.303  0.00  0.00    +0.010 A 
ATOM     21  C   UNL     1       0.709   0.127  -0.129  0.00  0.00    +0.008 A 
ATOM     22  C   UNL     1       0.439  -0.465   1.090  0.00  0.00    +0.004 A 
ATOM     23  C   UNL     1      -0.235  -1.671   1.142  0.00  0.00    +0.049 A 
ATOM     24  C   UNL     1      -0.641  -2.289  -0.029  0.00  0.00    +0.162 A 
ATOM     25  C   UNL     1      -0.369  -1.693  -1.257  0.00  0.00    +0.166 A 
BRANCH  25  26
ATOM     26  O   UNL     1      -0.765  -2.296  -2.410  0.00  0.00    -0.491 OA
ATOM     27  C   UNL     1      -2.160  -2.260  -2.715  0.00  0.00    +0.277 C 
ENDBRANCH  25  26
BRANCH  24  28
ATOM     28  O   UNL     1      -1.304  -3.476   0.020  0.00  0.00    -0.491 OA
ATOM     29  C   UNL     1      -1.549  -4.028   1.315  0.00  0.00    +0.277 C 
ENDBRANCH  24  28
ENDBRANCH   4  20
BRANCH   3  30
ATOM     30  C   UNL     1      -1.638   1.130  -3.197  0.00  0.00    +0.247 C 
ATOM     31  O   UNL     1      -2.654   1.152  -3.868  0.00  0.00    -0.270 OA
ATOM     32  N   UNL     1      -1.472   2.019  -2.197  0.00  0.00    -0.279 N 
ATOM     33  H   UNL     1      -0.590   1.952  -1.543  0.00  0.00    +0.155 HD
BRANCH  32  34
ATOM     34  C   UNL     1      -2.421   3.026  -1.992  0.00  0.00    +0.069 A 
ATOM     35  C   UNL     1      -3.764   2.780  -2.247  0.00  0.00    +0.026 A 
ATOM     36  C   UNL     1      -4.698   3.777  -2.042  0.00  0.00    +0.002 A 
ATOM     37  C   UNL     1      -4.300   5.019  -1.584  0.00  0.00    +0.003 A 
ATOM     38  C   UNL     1      -2.964   5.269  -1.329  0.00  0.00    +0.040 A 
ATOM     39  C   UNL     1      -2.023   4.275  -1.526  0.00  0.00    +0.144 A 
ATOM     40  F   UNL     1      -0.719   4.517  -1.271  0.00  0.00    -0.204 F 
ENDBRANCH  32  34
ENDBRANCH   3  30
TORSDOF 6
