REMARK  Name = ZINC37631904
REMARK  0 active torsions:
REMARK  status: ('A' for Active; 'I' for Inactive)
REMARK                            x       y       z     vdW  Elec       q    Type
REMARK                         _______ _______ _______ _____ _____    ______ ____
ROOT
ATOM      1  C   UNL     1      -0.019   1.539   0.011  0.00  0.00    +0.005 C 
ATOM      2  C   UNL     1       1.456   1.984  -0.001  0.00  0.00    +0.005 C 
ATOM      3  C   UNL     1       2.292   0.687  -0.016  0.00  0.00    +0.042 C 
ATOM      4  C   UNL     1       1.354  -0.361  -0.607  0.00  0.00    +0.013 C 
ATOM      5  C   UNL     1       1.640  -1.330  -1.435  0.00  0.00    +0.123 C 
ATOM      6  O   UNL     1       1.905  -2.227  -2.200  0.00  0.00    -0.232 OA
ATOM      7  C   UNL     1       0.002  -0.004   0.002  0.00  0.00    +0.042 C 
ENDROOT
TORSDOF 0
