REMARK  Name = ZINC38777057
REMARK  5 active torsions:
REMARK  status: ('A' for Active; 'I' for Inactive)
REMARK    1  A    between atoms: C_1  and  C_2
REMARK    2  A    between atoms: C_13  and  C_15
REMARK    3  A    between atoms: C_15  and  C_16
REMARK    4  A    between atoms: C_16  and  N_18
REMARK    5  A    between atoms: C_32  and  C_33
REMARK                            x       y       z     vdW  Elec       q    Type
REMARK                         _______ _______ _______ _____ _____    ______ ____
ROOT
ATOM      1  C   UNL     1      -0.022   1.559   0.027  0.00  0.00    +0.013 C 
ATOM      2  C   UNL     1      -0.017   0.029   0.020  0.00  0.00    +0.034 C 
ATOM      3  C   UNL     1       0.676  -0.464  -1.226  0.00  0.00    -0.001 A 
ATOM      4  C   UNL     1       0.443   0.203  -2.403  0.00  0.00    +0.019 A 
ATOM      5  C   UNL     1       1.053  -0.219  -3.578  0.00  0.00    +0.028 A 
ATOM      6  C   UNL     1       1.911  -1.330  -3.568  0.00  0.00    +0.139 A 
ATOM      7  C   UNL     1       2.141  -1.994  -2.372  0.00  0.00    +0.093 A 
ATOM      8  C   UNL     1       1.527  -1.560  -1.205  0.00  0.00    +0.139 A 
ATOM      9  O   UNL     1       1.798  -2.234  -0.053  0.00  0.00    -0.425 OA
ATOM     10  C   UNL     1       1.049  -1.943   1.029  0.00  0.00    +0.317 C 
ATOM     11  O   UNL     1       0.659  -2.807   1.779  0.00  0.00    -0.250 OA
ATOM     12  C   UNL     1       0.722  -0.482   1.261  0.00  0.00    +0.114 C 
ATOM     13  O   UNL     1       2.354  -1.513  -4.829  0.00  0.00    -0.462 OA
ATOM     14  C   UNL     1       1.842  -0.591  -5.661  0.00  0.00    +0.204 A 
ATOM     15  C   UNL     1       1.030   0.247  -4.977  0.00  0.00    +0.028 A 
ENDROOT
BRANCH  15  16
ATOM     16  C   UNL     1       0.271   1.398  -5.523  0.00  0.00    -0.014 A 
ATOM     17  C   UNL     1      -1.087   1.537  -5.242  0.00  0.00    +0.008 A 
ATOM     18  C   UNL     1      -1.788   2.611  -5.752  0.00  0.00    +0.001 A 
ATOM     19  C   UNL     1      -1.146   3.548  -6.540  0.00  0.00    +0.000 A 
ATOM     20  C   UNL     1       0.202   3.416  -6.822  0.00  0.00    +0.001 A 
ATOM     21  C   UNL     1       0.915   2.349  -6.313  0.00  0.00    +0.008 A 
ENDBRANCH  15  16
BRANCH  12  22
ATOM     22  C   UNL     1       2.012   0.315   1.462  0.00  0.00    +0.113 C 
BRANCH  22  23
ATOM     23  C   UNL     1       2.669  -0.110   2.750  0.00  0.00    +0.240 C 
ATOM     24  O   UNL     1       2.155  -0.969   3.441  0.00  0.00    -0.274 OA
BRANCH  23  25
ATOM     25  N   UNL     1       3.812   0.453   3.131  0.00  0.00    -0.147 NA
ATOM     26  C   UNL     1       4.338   0.154   4.316  0.00  0.00    +0.198 A 
ATOM     27  N   UNL     1       3.866  -0.791   5.171  0.00  0.00    -0.326 N 
ATOM     28  H   UNL     1       3.095  -1.359   5.021  0.00  0.00    +0.169 HD
ATOM     29  C   UNL     1       4.681  -0.805   6.298  0.00  0.00    +0.065 A 
ATOM     30  C   UNL     1       4.670  -1.554   7.466  0.00  0.00    +0.028 A 
ATOM     31  C   UNL     1       5.633  -1.338   8.431  0.00  0.00    +0.002 A 
ATOM     32  C   UNL     1       6.611  -0.377   8.239  0.00  0.00    +0.002 A 
ATOM     33  C   UNL     1       6.631   0.374   7.081  0.00  0.00    +0.028 A 
ATOM     34  C   UNL     1       5.668   0.164   6.104  0.00  0.00    +0.065 A 
ATOM     35  N   UNL     1       5.435   0.743   4.861  0.00  0.00    -0.326 N 
ATOM     36  H   UNL     1       5.963   1.447   4.454  0.00  0.00    +0.169 HD
ENDBRANCH  23  25
ENDBRANCH  22  23
ENDBRANCH  12  22
TORSDOF 4
