REMARK  Name = ZINC03043937
REMARK  8 active torsions:
REMARK  status: ('A' for Active; 'I' for Inactive)
REMARK    1  A    between atoms: C_1  and  C_2
REMARK    2  A    between atoms: C_5  and  N_8
REMARK    3  A    between atoms: N_8  and  C_9
REMARK    4  A    between atoms: C_9  and  N_11
REMARK    5  A    between atoms: N_11  and  N_12
REMARK    6  A    between atoms: N_20  and  C_23
REMARK    7  A    between atoms: C_23  and  C_24
REMARK    8  A    between atoms: C_29  and  C_30
REMARK                            x       y       z     vdW  Elec       q    Type
REMARK                         _______ _______ _______ _____ _____    ______ ____
ROOT
ATOM      1  N   UNL     1       0.068  -7.271  -0.701  0.00  0.00    -0.175 NA
ATOM      2  C   UNL     1       0.325  -8.554  -0.608  0.00  0.00    +0.153 C 
ATOM      3  C   UNL     1       0.627  -9.496  -1.711  0.00  0.00    +0.029 A 
ATOM      4  C   UNL     1       0.728  -9.346  -3.089  0.00  0.00    +0.027 A 
ATOM      5  C   UNL     1       1.031 -10.440  -3.876  0.00  0.00    +0.019 A 
ATOM      6  C   UNL     1       1.234 -11.680  -3.293  0.00  0.00    +0.017 A 
ATOM      7  C   UNL     1       1.135 -11.838  -1.925  0.00  0.00    +0.025 A 
ATOM      8  C   UNL     1       0.831 -10.748  -1.117  0.00  0.00    +0.046 A 
ATOM      9  N   UNL     1       0.676 -10.634   0.261  0.00  0.00    -0.261 N 
ATOM     10  C   UNL     1       0.384  -9.372   0.619  0.00  0.00    +0.272 C 
ATOM     11  O   UNL     1       0.199  -8.975   1.755  0.00  0.00    -0.268 OA
ATOM     12 BR   UNL     1       1.169 -10.245  -5.752  0.00  0.00    -0.050 Br
ENDROOT
BRANCH   1  13
ATOM     13  N   UNL     1      -0.192  -6.523   0.455  0.00  0.00    -0.217 N 
ATOM     14  H   UNL     1      -0.182  -6.954   1.324  0.00  0.00    +0.176 HD
BRANCH  13  15
ATOM     15  C   UNL     1      -0.457  -5.205   0.360  0.00  0.00    +0.154 C 
ATOM     16  S   UNL     1      -0.775  -4.291   1.772  0.00  0.00    -0.017 S 
BRANCH  15  17
ATOM     17  N   UNL     1      -0.472  -4.607  -0.848  0.00  0.00    -0.296 N 
ATOM     18  H   UNL     1      -0.374  -5.138  -1.654  0.00  0.00    +0.154 HD
BRANCH  17  23
ATOM     19  C   UNL     1      -1.104   1.018  -1.219  0.00  0.00    +0.044 C 
ATOM     20  C   UNL     1      -0.936  -0.476  -1.120  0.00  0.00    -0.050 A 
ATOM     21  C   UNL     1      -0.122  -1.016  -0.141  0.00  0.00    +0.005 A 
ATOM     22  C   UNL     1       0.034  -2.385  -0.048  0.00  0.00    +0.023 A 
ATOM     23  C   UNL     1      -0.628  -3.220  -0.939  0.00  0.00    +0.033 A 
ATOM     24  C   UNL     1      -1.446  -2.675  -1.921  0.00  0.00    +0.023 A 
ATOM     25  C   UNL     1      -1.601  -1.305  -2.005  0.00  0.00    +0.005 A 
ENDBRANCH  17  23
ENDBRANCH  15  17
ENDBRANCH  13  15
ENDBRANCH   1  13
BRANCH   9  26
ATOM     26  C   UNL     1       0.817 -11.748   1.202  0.00  0.00    +0.149 C 
BRANCH  26  27
ATOM     27  C   UNL     1       2.251 -11.844   1.654  0.00  0.00    -0.027 A 
ATOM     28  C   UNL     1       3.213 -11.034   1.079  0.00  0.00    +0.005 A 
ATOM     29  C   UNL     1       4.529 -11.123   1.494  0.00  0.00    +0.000 A 
ATOM     30  C   UNL     1       4.883 -12.021   2.483  0.00  0.00    +0.000 A 
ATOM     31  C   UNL     1       3.921 -12.830   3.059  0.00  0.00    +0.003 A 
ATOM     32  C   UNL     1       2.604 -12.738   2.647  0.00  0.00    -0.046 A 
ATOM     33  C   UNL     1       1.555 -13.617   3.278  0.00  0.00    +0.044 C 
ENDBRANCH  26  27
ENDBRANCH   9  26
TORSDOF 6
