REMARK  Name = ZINC39574784
REMARK  4 active torsions:
REMARK  status: ('A' for Active; 'I' for Inactive)
REMARK    1  A    between atoms: C_7  and  C_10
REMARK    2  A    between atoms: N_11  and  N_12
REMARK    3  A    between atoms: C_13  and  C_15
REMARK    4  A    between atoms: C_17  and  C_21
REMARK                            x       y       z     vdW  Elec       q    Type
REMARK                         _______ _______ _______ _____ _____    ______ ____
ROOT
ATOM      1  N   UNL     1       0.256  -5.438  -0.029  0.00  0.00    -0.202 N 
ATOM      2  C   UNL     1       0.733  -6.698  -0.040  0.00  0.00    +0.283 C 
ATOM      3  O   UNL     1       1.933  -6.893  -0.052  0.00  0.00    -0.267 OA
ATOM      4  H   UNL     1      -0.702  -5.282  -0.020  0.00  0.00    +0.178 HD
ENDROOT
BRANCH   2   5
ATOM      5  C   UNL     1      -0.201  -7.841  -0.037  0.00  0.00    +0.147 C 
ATOM      6  C   UNL     1       0.170  -9.141  -0.042  0.00  0.00    +0.041 C 
ATOM      7  C   UNL     1      -1.149  -9.894  -0.036  0.00  0.00    +0.190 C 
ATOM      8  N   UNL     1      -2.151  -8.817  -0.028  0.00  0.00    -0.174 NA
ATOM      9  N   UNL     1      -1.556  -7.737  -0.024  0.00  0.00    -0.149 NA
BRANCH   7  10
ATOM     10  C   UNL     1      -1.283 -10.742  -1.275  0.00  0.00    +0.021 A 
ATOM     11  C   UNL     1      -1.074 -12.072  -1.425  0.00  0.00    +0.015 A 
ATOM     12  C   UNL     1      -1.260 -12.644  -2.670  0.00  0.00    +0.023 A 
ATOM     13  C   UNL     1      -1.647 -11.856  -3.704  0.00  0.00    +0.055 A 
ATOM     14  S   UNL     1      -1.767 -10.255  -2.923  0.00  0.00    -0.084 S 
ATOM     15 BR   UNL     1      -1.981 -12.330  -5.503  0.00  0.00    -0.043 Br
ENDBRANCH   7  10
ENDBRANCH   2   5
BRANCH   1  17
ATOM     16  C   UNL     1       0.678  -3.128  -0.021  0.00  0.00    +0.136 C 
ATOM     17  N   UNL     1       1.142  -4.352  -0.032  0.00  0.00    -0.188 NA
BRANCH  16  24
ATOM     18  C   UNL     1      -0.016   1.353   0.009  0.00  0.00    +0.001 A 
ATOM     19  C   UNL     1       1.164   2.102   0.002  0.00  0.00    +0.002 A 
ATOM     20  C   UNL     1       2.384   1.513  -0.013  0.00  0.00    +0.026 A 
ATOM     21  C   UNL     1       2.485   0.097  -0.021  0.00  0.00    +0.043 A 
ATOM     22  N   UNL     1       3.531  -0.702  -0.035  0.00  0.00    -0.380 N 
ATOM     23  C   UNL     1       3.076  -2.096  -0.039  0.00  0.00    +0.150 C 
ATOM     24  C   UNL     1       1.564  -2.042  -0.024  0.00  0.00    +0.000 C 
ATOM     25  C   UNL     1       1.238  -0.688  -0.013  0.00  0.00    +0.004 A 
ATOM     26  C   UNL     1       0.002  -0.004   0.002  0.00  0.00    +0.010 A 
ATOM     27  H   UNL     1       4.457  -0.414  -0.043  0.00  0.00    +0.160 HD
ENDBRANCH  16  24
ENDBRANCH   1  17
TORSDOF 4
