REMARK  Name = ZINC40984062
REMARK  11 active torsions:
REMARK  status: ('A' for Active; 'I' for Inactive)
REMARK    1  A    between atoms: C_1  and  C_2
REMARK    2  A    between atoms: C_3  and  C_16
REMARK    3  A    between atoms: C_5  and  C_7
REMARK    4  A    between atoms: C_12  and  O_13
REMARK    5  A    between atoms: O_13  and  C_14
REMARK    6  A    between atoms: C_16  and  N_17
REMARK    7  A    between atoms: C_20  and  C_23
REMARK    8  A    between atoms: N_28  and  C_31
REMARK    9  A    between atoms: C_31  and  C_32
REMARK   10  A    between atoms: C_32  and  C_33
REMARK   11  A    between atoms: C_32  and  C_34
REMARK                            x       y       z     vdW  Elec       q    Type
REMARK                         _______ _______ _______ _____ _____    ______ ____
ROOT
ATOM      1  N   UNL     1      -3.936  -0.260  -1.451  0.00  0.00    +0.383 N 
ATOM      2  C   UNL     1      -3.089   0.795  -2.022  0.00  0.00    -0.078 C 
ATOM      3  C   UNL     1      -3.380   0.935  -3.517  0.00  0.00    -0.006 C 
ATOM      4  C   UNL     1      -4.854   1.301  -3.713  0.00  0.00    +0.072 C 
ATOM      5  C   UNL     1      -5.727   0.232  -3.049  0.00  0.00    -0.006 C 
ATOM      6  C   UNL     1      -5.349   0.118  -1.571  0.00  0.00    -0.078 C 
ATOM      7  H   UNL     1      -3.776  -1.123  -1.949  0.00  0.00    -0.081 HD
ENDROOT
BRANCH   4   8
ATOM      8  C   UNL     1      -5.167   1.364  -5.186  0.00  0.00    +0.219 C 
ATOM      9  O   UNL     1      -5.470   0.354  -5.785  0.00  0.00    -0.275 OA
ATOM     10  N   UNL     1      -5.109   2.542  -5.837  0.00  0.00    -0.299 N 
ATOM     11  C   UNL     1      -4.635   3.758  -5.158  0.00  0.00    +0.123 C 
ATOM     12  C   UNL     1      -3.549   4.407  -6.022  0.00  0.00    +0.103 C 
ATOM     13  N   UNL     1      -4.069   4.617  -7.380  0.00  0.00    -0.299 NA
ATOM     14  C   UNL     1      -4.398   3.340  -8.028  0.00  0.00    +0.103 C 
ATOM     15  C   UNL     1      -5.513   2.646  -7.247  0.00  0.00    +0.123 C 
BRANCH  13  16
ATOM     16  C   UNL     1      -3.122   5.391  -8.193  0.00  0.00    +0.087 C 
BRANCH  16  17
ATOM     17  C   UNL     1      -3.011   6.811  -7.633  0.00  0.00    -0.003 C 
ATOM     18  C   UNL     1      -1.964   7.592  -8.429  0.00  0.00    +0.008 C 
ATOM     19  C   UNL     1      -4.367   7.511  -7.749  0.00  0.00    +0.008 C 
ENDBRANCH  16  17
ENDBRANCH  13  16
ENDBRANCH   4   8
BRANCH   1  20
ATOM     20  C   UNL     1      -3.598  -0.444  -0.034  0.00  0.00    -0.019 C 
BRANCH  20  23
ATOM     21  C   UNL     1      -1.026   1.314   0.218  0.00  0.00    +0.088 C 
ATOM     22  C   UNL     1      -1.077  -0.192   0.192  0.00  0.00    +0.124 A 
ATOM     23  C   UNL     1      -2.183  -0.950   0.084  0.00  0.00    +0.066 A 
ATOM     24  N   UNL     1      -1.803  -2.237   0.099  0.00  0.00    -0.216 NA
ATOM     25  C   UNL     1      -0.496  -2.287   0.213  0.00  0.00    +0.231 A 
ATOM     26  O   UNL     1      -0.024  -1.030   0.268  0.00  0.00    -0.440 OA
BRANCH  25  27
ATOM     27  C   UNL     1       0.319  -3.518   0.268  0.00  0.00    +0.079 A 
ATOM     28  C   UNL     1      -0.295  -4.769   0.190  0.00  0.00    +0.032 A 
ATOM     29  C   UNL     1       0.472  -5.915   0.241  0.00  0.00    +0.019 A 
ATOM     30  C   UNL     1       1.848  -5.829   0.370  0.00  0.00    +0.019 A 
ATOM     31  C   UNL     1       2.466  -4.596   0.448  0.00  0.00    +0.047 A 
ATOM     32  C   UNL     1       1.711  -3.435   0.392  0.00  0.00    +0.132 A 
ATOM     33 BR   UNL     1      -0.360  -7.610   0.135  0.00  0.00    -0.050 Br
BRANCH  32  34
ATOM     34  O   UNL     1       2.318  -2.223   0.463  0.00  0.00    -0.494 OA
ATOM     35  C   UNL     1       3.742  -2.216   0.588  0.00  0.00    +0.277 C 
ENDBRANCH  32  34
ENDBRANCH  25  27
ENDBRANCH  20  23
ENDBRANCH   1  20
TORSDOF 7
