REMARK  Name = ZINC51168655
REMARK  6 active torsions:
REMARK  status: ('A' for Active; 'I' for Inactive)
REMARK    1  A    between atoms: C_1  and  C_2
REMARK    2  A    between atoms: C_2  and  C_3
REMARK    3  A    between atoms: C_3  and  C_4
REMARK    4  A    between atoms: C_6  and  N_17
REMARK    5  A    between atoms: C_8  and  C_10
REMARK    6  A    between atoms: N_17  and  N_18
REMARK                            x       y       z     vdW  Elec       q    Type
REMARK                         _______ _______ _______ _____ _____    ______ ____
ROOT
ATOM      1  C   UNL     1       0.762  -2.018   1.233  0.00  0.00    +0.047 A 
ATOM      2  C   UNL     1       1.961  -2.700   1.328  0.00  0.00    +0.068 A 
ATOM      3  C   UNL     1       1.937  -4.097   1.317  0.00  0.00    +0.136 A 
ATOM      4  N   UNL     1       0.769  -4.722   1.217  0.00  0.00    -0.209 NA
ATOM      5  C   UNL     1      -0.362  -4.030   1.128  0.00  0.00    +0.198 A 
ATOM      6  N   UNL     1      -0.367  -2.701   1.141  0.00  0.00    -0.230 NA
ENDROOT
BRANCH   5   7
ATOM      7  C   UNL     1      -1.642  -4.754   1.017  0.00  0.00    +0.174 A 
ATOM      8  C   UNL     1      -1.796  -6.106   1.001  0.00  0.00    +0.069 A 
ATOM      9  C   UNL     1      -3.176  -6.356   0.883  0.00  0.00    +0.071 A 
ATOM     10  C   UNL     1      -3.793  -5.155   0.833  0.00  0.00    +0.185 A 
ATOM     11  O   UNL     1      -2.863  -4.191   0.920  0.00  0.00    -0.444 OA
ATOM     12 BR   UNL     1      -5.657  -4.879   0.674  0.00  0.00    -0.007 Br
ATOM     13 BR   UNL     1      -4.009  -8.052   0.807  0.00  0.00    -0.046 Br
ENDBRANCH   5   7
BRANCH   3  14
ATOM     14  N   UNL     1       3.115  -4.821   1.409  0.00  0.00    -0.267 N 
ATOM     15  H   UNL     1       3.964  -4.358   1.482  0.00  0.00    +0.167 HD
BRANCH  14  16
ATOM     16  N   UNL     1       3.080  -6.187   1.398  0.00  0.00    -0.255 NA
ATOM     17  H   UNL     1       2.610  -6.530   0.573  0.00  0.00    +0.140 HD
ATOM     18  H   UNL     1       4.009  -6.573   1.472  0.00  0.00    +0.140 HD
ENDBRANCH  14  16
ENDBRANCH   3  14
BRANCH   1  19
ATOM     19  C   UNL     1       0.742  -0.511   1.242  0.00  0.00    +0.055 C 
BRANCH  19  21
ATOM     20  C   UNL     1      -0.019   1.526   0.010  0.00  0.00    +0.004 C 
ATOM     21  C   UNL     1       0.002  -0.004   0.002  0.00  0.00    +0.003 C 
ENDBRANCH  19  21
ENDBRANCH   1  19
TORSDOF 5
