REMARK  Name = ZINC08295614
REMARK  7 active torsions:
REMARK  status: ('A' for Active; 'I' for Inactive)
REMARK    1  A    between atoms: C_6  and  C_7
REMARK    2  A    between atoms: C_7  and  N_8
REMARK    3  A    between atoms: C_13  and  C_22
REMARK    4  A    between atoms: C_16  and  O_21
REMARK    5  A    between atoms: C_18  and  O_20
REMARK    6  A    between atoms: N_25  and  C_28
REMARK    7  A    between atoms: C_28  and  C_29
REMARK                            x       y       z     vdW  Elec       q    Type
REMARK                         _______ _______ _______ _____ _____    ______ ____
ROOT
ATOM      1  N   UNL     1      -0.889   2.959  -0.719  0.00  0.00    -0.301 N 
ATOM      2  C   UNL     1      -0.503   4.241  -0.080  0.00  0.00    +0.127 C 
ATOM      3  C   UNL     1       1.007   4.189  -0.103  0.00  0.00    +0.110 C 
ATOM      4  C   UNL     1       1.777   4.711   1.058  0.00  0.00    +0.099 C 
ATOM      5  C   UNL     1       1.091   4.616   2.398  0.00  0.00    +0.048 C 
ATOM      6  C   UNL     1      -0.355   5.061   2.327  0.00  0.00    +0.146 C 
ATOM      7  C   UNL     1      -1.140   4.303   1.288  0.00  0.00    +0.165 C 
ATOM      8  N   UNL     1       1.345   2.822  -0.499  0.00  0.00    -0.307 N 
ATOM      9  C   UNL     1       0.209   2.205  -0.870  0.00  0.00    +0.136 C 
ATOM     10  S   UNL     1       0.170   0.608  -1.485  0.00  0.00    -0.018 S 
ENDROOT
BRANCH   4  11
ATOM     11  C   UNL     1       3.082   3.960   1.135  0.00  0.00    +0.216 C 
ATOM     12  O   UNL     1       3.996   4.255   0.394  0.00  0.00    -0.276 OA
ATOM     13  N   UNL     1       3.233   2.961   2.026  0.00  0.00    -0.329 N 
ATOM     14  H   UNL     1       2.530   2.774   2.668  0.00  0.00    +0.145 HD
ATOM     15  H   UNL     1       4.045   2.430   2.027  0.00  0.00    +0.145 HD
ENDBRANCH   4  11
BRANCH   7  16
ATOM     16  O   UNL     1      -1.332   2.966   1.756  0.00  0.00    -0.387 OA
ATOM     17  H   UNL     1      -1.738   2.910   2.631  0.00  0.00    +0.210 HD
ENDBRANCH   7  16
BRANCH   6  18
ATOM     18  O   UNL     1      -0.395   6.454   2.012  0.00  0.00    -0.389 OA
ATOM     19  H   UNL     1       0.089   7.013   2.636  0.00  0.00    +0.210 HD
ENDBRANCH   6  18
BRANCH   1  20
ATOM     20  C   UNL     1      -2.247   2.579  -1.117  0.00  0.00    +0.142 C 
BRANCH  20  26
ATOM     21  C   UNL     1      -2.834   0.504   0.155  0.00  0.00    +0.008 A 
ATOM     22  C   UNL     1      -3.454  -0.139   1.209  0.00  0.00    +0.038 A 
ATOM     23  C   UNL     1      -4.179   0.592   2.135  0.00  0.00    +0.123 A 
ATOM     24  C   UNL     1      -4.278   1.967   2.006  0.00  0.00    +0.038 A 
ATOM     25  C   UNL     1      -3.652   2.608   0.954  0.00  0.00    +0.008 A 
ATOM     26  C   UNL     1      -2.928   1.878   0.030  0.00  0.00    -0.030 A 
ATOM     27  F   UNL     1      -4.790  -0.036   3.163  0.00  0.00    -0.205 F 
ENDBRANCH  20  26
ENDBRANCH   1  20
BRANCH   8  28
ATOM     28  C   UNL     1       2.685   2.229  -0.492  0.00  0.00    +0.110 C 
BRANCH  28  29
ATOM     29  C   UNL     1       3.541   2.891  -1.574  0.00  0.00    +0.006 C 
ATOM     30  C   UNL     1       2.979   2.541  -2.953  0.00  0.00    +0.005 C 
ATOM     31  C   UNL     1       3.835   3.203  -4.035  0.00  0.00    +0.000 C 
ATOM     32  C   UNL     1       5.275   2.696  -3.927  0.00  0.00    +0.000 C 
ATOM     33  C   UNL     1       5.836   3.046  -2.547  0.00  0.00    +0.000 C 
ATOM     34  C   UNL     1       4.980   2.384  -1.466  0.00  0.00    +0.005 C 
ENDBRANCH  28  29
ENDBRANCH   8  28
TORSDOF 7
