REMARK  Name = ZINC11662695
REMARK  2 active torsions:
REMARK  status: ('A' for Active; 'I' for Inactive)
REMARK    1  A    between atoms: C_6  and  C_7
REMARK    2  A    between atoms: C_16  and  N_42
REMARK                            x       y       z     vdW  Elec       q    Type
REMARK                         _______ _______ _______ _____ _____    ______ ____
ROOT
ATOM      1  C   UNL     1       3.933   4.443   0.544  0.00  0.00    +0.094 A 
ATOM      2  C   UNL     1       5.181   4.605   1.159  0.00  0.00    -0.016 A 
ATOM      3  C   UNL     1       5.416   5.936   1.285  0.00  0.00    +0.036 A 
ATOM      4  N   UNL     1       4.362   6.594   0.778  0.00  0.00    -0.281 N 
ATOM      5  H   UNL     1       4.254   7.587   0.737  0.00  0.00    +0.189 HD
ATOM      6  N   UNL     1       3.437   5.644   0.317  0.00  0.00    -0.173 NA
ATOM      7  C   UNL     1       6.670   6.497   1.908  0.00  0.00    +0.036 C 
ATOM      8  C   UNL     1       7.363   5.362   2.675  0.00  0.00    -0.072 C 
ATOM      9  C   UNL     1       6.154   3.543   1.607  0.00  0.00    -0.039 C 
ATOM     10  N   UNL     1       7.480   4.184   1.786  0.00  0.00    +0.385 N 
ATOM     11  H   UNL     1       7.827   4.493   0.870  0.00  0.00    -0.081 HD
ENDROOT
BRANCH   1  17
ATOM     12  C   UNL     1       4.053   2.065  -0.193  0.00  0.00    +0.014 A 
ATOM     13  C   UNL     1       3.447   0.864  -0.501  0.00  0.00    +0.050 A 
ATOM     14  C   UNL     1       2.070   0.734  -0.407  0.00  0.00    +0.166 A 
ATOM     15  C   UNL     1       1.293   1.818  -0.001  0.00  0.00    +0.167 A 
ATOM     16  C   UNL     1       1.897   3.023   0.309  0.00  0.00    +0.059 A 
ATOM     17  C   UNL     1       3.282   3.151   0.213  0.00  0.00    +0.006 A 
ATOM     18  O   UNL     1      -0.017   1.436   0.010  0.00  0.00    -0.453 OA
ATOM     19  C   UNL     1       0.002  -0.004   0.002  0.00  0.00    +0.466 C 
ATOM     20  O   UNL     1       1.244  -0.326  -0.651  0.00  0.00    -0.453 OA
ENDBRANCH   1  17
BRANCH  10  21
ATOM     21  C   UNL     1       8.436   3.214   2.358  0.00  0.00    -0.057 C 
ATOM     22  C   UNL     1       9.801   3.882   2.420  0.00  0.00    -0.004 C 
ATOM     23  C   UNL     1      10.408   3.933   3.840  0.00  0.00    +0.067 C 
ATOM     24  S   UNL     1       9.498   2.559   4.671  0.00  0.00    -0.162 S 
ATOM     25  C   UNL     1       7.920   2.716   3.727  0.00  0.00    +0.054 C 
ENDBRANCH  10  21
TORSDOF 2
