REMARK  Name = ZINC02719070
REMARK  9 active torsions:
REMARK  status: ('A' for Active; 'I' for Inactive)
REMARK    1  A    between atoms: C_1  and  C_2
REMARK    2  A    between atoms: C_3  and  C_30
REMARK    3  A    between atoms: C_4  and  C_21
REMARK    4  A    between atoms: C_10  and  S_12
REMARK    5  A    between atoms: S_12  and  C_13
REMARK    6  A    between atoms: C_13  and  C_14
REMARK    7  A    between atoms: C_24  and  C_27
REMARK    8  A    between atoms: C_27  and  C_28
REMARK    9  A    between atoms: C_27  and  C_29
REMARK                            x       y       z     vdW  Elec       q    Type
REMARK                         _______ _______ _______ _____ _____    ______ ____
ROOT
ATOM      1  C   UNL     1       0.457   1.363  -0.001  0.00  0.00    +0.064 C 
ATOM      2  C   UNL     1       0.265  -0.131   0.025  0.00  0.00    +0.026 C 
ATOM      3  C   UNL     1      -1.006  -0.637   0.005  0.00  0.00    +0.059 C 
ATOM      4  C   UNL     1      -1.151  -2.149   0.032  0.00  0.00    +0.166 C 
ATOM      5  N   UNL     1       0.099  -2.917   0.077  0.00  0.00    -0.187 N 
ATOM      6  C   UNL     1       1.296  -2.240   0.091  0.00  0.00    +0.217 C 
ATOM      7  N   UNL     1       1.331  -0.914   0.061  0.00  0.00    -0.330 N 
ATOM      8  N   UNL     1       2.274  -3.154   0.132  0.00  0.00    -0.190 NA
ATOM      9  C   UNL     1       1.763  -4.373   0.144  0.00  0.00    +0.197 C 
ATOM     10  N   UNL     1       0.398  -4.281   0.111  0.00  0.00    -0.118 NA
ATOM     11  H   UNL     1       2.202  -0.488   0.069  0.00  0.00    +0.168 HD
ENDROOT
BRANCH   4  12
ATOM     12  C   UNL     1      -1.969  -2.521   1.242  0.00  0.00    -0.021 A 
ATOM     13  C   UNL     1      -1.437  -2.373   2.509  0.00  0.00    +0.006 A 
ATOM     14  C   UNL     1      -2.187  -2.714   3.618  0.00  0.00    +0.004 A 
ATOM     15  C   UNL     1      -3.471  -3.202   3.461  0.00  0.00    -0.045 A 
ATOM     16  C   UNL     1      -4.004  -3.349   2.194  0.00  0.00    +0.004 A 
ATOM     17  C   UNL     1      -3.255  -3.004   1.084  0.00  0.00    +0.006 A 
BRANCH  15  18
ATOM     18  C   UNL     1      -4.289  -3.575   4.670  0.00  0.00    +0.013 C 
ATOM     19  C   UNL     1      -5.562  -2.728   4.705  0.00  0.00    +0.012 C 
ATOM     20  C   UNL     1      -4.663  -5.057   4.596  0.00  0.00    +0.012 C 
ENDBRANCH  15  18
ENDBRANCH   4  12
BRANCH   3  21
ATOM     21  C   UNL     1      -2.129   0.206  -0.037  0.00  0.00    +0.241 C 
ATOM     22  O   UNL     1      -1.989   1.413   0.058  0.00  0.00    -0.271 OA
ATOM     23  N   UNL     1      -3.361  -0.320  -0.183  0.00  0.00    -0.325 N 
ATOM     24  H   UNL     1      -3.480  -1.283  -0.189  0.00  0.00    +0.145 HD
ATOM     25  H   UNL     1      -4.130   0.264  -0.282  0.00  0.00    +0.145 HD
ENDBRANCH   3  21
BRANCH   9  26
ATOM     26  S   UNL     1       2.688  -5.871   0.196  0.00  0.00    -0.082 S 
BRANCH  26  27
ATOM     27  C   UNL     1       4.416  -5.319   0.226  0.00  0.00    +0.113 C 
BRANCH  27  28
ATOM     28  C   UNL     1       5.326  -6.519   0.272  0.00  0.00    -0.019 A 
ATOM     29  C   UNL     1       5.711  -7.050   1.489  0.00  0.00    +0.006 A 
ATOM     30  C   UNL     1       6.545  -8.151   1.530  0.00  0.00    +0.000 A 
ATOM     31  C   UNL     1       6.997  -8.722   0.355  0.00  0.00    +0.001 A 
ATOM     32  C   UNL     1       6.613  -8.192  -0.863  0.00  0.00    +0.020 A 
ATOM     33  C   UNL     1       5.773  -7.094  -0.905  0.00  0.00    +0.045 A 
ATOM     34 CL   UNL     1       5.285  -6.432  -2.434  0.00  0.00    -0.083 Cl
ENDBRANCH  27  28
ENDBRANCH  26  27
ENDBRANCH   9  26
TORSDOF 6
