REMARK  Name = ZINC39722962
REMARK  17 active torsions:
REMARK  status: ('A' for Active; 'I' for Inactive)
REMARK    1  A    between atoms: C_1  and  C_2
REMARK    2  A    between atoms: C_2  and  C_3
REMARK    3  A    between atoms: C_3  and  N_4
REMARK    4  A    between atoms: C_7  and  O_34
REMARK    5  A    between atoms: N_13  and  C_14
REMARK    6  A    between atoms: C_14  and  C_16
REMARK    7  A    between atoms: C_19  and  S_22
REMARK    8  A    between atoms: S_22  and  N_25
REMARK    9  A    between atoms: N_25  and  C_26
REMARK   10  A    between atoms: N_25  and  C_30
REMARK   11  A    between atoms: C_26  and  C_27
REMARK   12  A    between atoms: C_27  and  C_28
REMARK   13  A    between atoms: C_27  and  C_29
REMARK   14  A    between atoms: C_30  and  C_31
REMARK   15  A    between atoms: C_31  and  C_32
REMARK   16  A    between atoms: C_31  and  C_33
REMARK   17  A    between atoms: O_34  and  C_35
REMARK                            x       y       z     vdW  Elec       q    Type
REMARK                         _______ _______ _______ _____ _____    ______ ____
ROOT
ATOM      1  C   UNL     1      -4.222  -3.269  -4.473  0.00  0.00    +0.039 A 
ATOM      2  C   UNL     1      -4.007  -1.892  -4.510  0.00  0.00    +0.015 A 
ATOM      3  C   UNL     1      -4.999  -1.054  -4.977  0.00  0.00    +0.029 A 
ATOM      4  C   UNL     1      -6.205  -1.578  -5.408  0.00  0.00    +0.106 A 
ATOM      5  C   UNL     1      -6.424  -2.943  -5.373  0.00  0.00    +0.029 A 
ATOM      6  C   UNL     1      -5.438  -3.792  -4.914  0.00  0.00    +0.015 A 
ENDROOT
BRANCH   4   7
ATOM      7  S   UNL     1      -7.467  -0.501  -6.002  0.00  0.00    +0.061 S 
ATOM      8  O   UNL     1      -8.699  -1.189  -5.835  0.00  0.00    -0.153 OA
ATOM      9  O   UNL     1      -7.220   0.772  -5.423  0.00  0.00    -0.153 OA
BRANCH   7  10
ATOM     10  N   UNL     1      -7.237  -0.332  -7.633  0.00  0.00    -0.176 NA
BRANCH  10  11
ATOM     11  C   UNL     1      -7.889  -1.256  -8.565  0.00  0.00    +0.112 C 
BRANCH  11  12
ATOM     12  C   UNL     1      -9.221  -0.661  -9.025  0.00  0.00    -0.001 C 
ATOM     13  C   UNL     1      -8.959   0.595  -9.859  0.00  0.00    +0.008 C 
ATOM     14  C   UNL     1      -9.973  -1.688  -9.873  0.00  0.00    +0.008 C 
ENDBRANCH  11  12
ENDBRANCH  10  11
BRANCH  10  15
ATOM     15  C   UNL     1      -6.382   0.743  -8.145  0.00  0.00    +0.112 C 
BRANCH  15  16
ATOM     16  C   UNL     1      -4.961   0.211  -8.347  0.00  0.00    -0.001 C 
ATOM     17  C   UNL     1      -4.965  -0.847  -9.451  0.00  0.00    +0.008 C 
ATOM     18  C   UNL     1      -4.038   1.364  -8.748  0.00  0.00    +0.008 C 
ENDBRANCH  15  16
ENDBRANCH  10  15
ENDBRANCH   7  10
ENDBRANCH   4   7
BRANCH   1  19
ATOM     19  C   UNL     1      -3.161  -4.174  -3.973  0.00  0.00    +0.269 C 
ATOM     20  O   UNL     1      -3.350  -5.378  -3.947  0.00  0.00    -0.268 OA
BRANCH  19  30
ATOM     21  N   UNL     1       0.186  -4.146  -2.639  0.00  0.00    -0.321 N 
ATOM     22  C   UNL     1       1.050  -5.134  -2.204  0.00  0.00    +0.061 A 
ATOM     23  C   UNL     1       2.348  -5.010  -1.690  0.00  0.00    +0.072 A 
ATOM     24  C   UNL     1       3.061  -6.128  -1.307  0.00  0.00    +0.122 A 
ATOM     25  C   UNL     1       2.514  -7.400  -1.419  0.00  0.00    +0.047 A 
ATOM     26  C   UNL     1       1.234  -7.544  -1.924  0.00  0.00    +0.021 A 
ATOM     27  C   UNL     1       0.524  -6.430  -2.306  0.00  0.00    +0.039 A 
ATOM     28  S   UNL     1      -1.092  -6.159  -2.983  0.00  0.00    -0.052 S 
ATOM     29  C   UNL     1      -1.046  -4.483  -3.102  0.00  0.00    +0.167 A 
ATOM     30  N   UNL     1      -1.997  -3.671  -3.551  0.00  0.00    -0.152 NA
BRANCH  24  31
ATOM     31  O   UNL     1       4.318  -5.981  -0.811  0.00  0.00    -0.495 OA
ATOM     32  C   UNL     1       5.008  -7.173  -0.431  0.00  0.00    +0.277 C 
ENDBRANCH  24  31
BRANCH  21  33
ATOM     33  C   UNL     1       0.596  -2.740  -2.594  0.00  0.00    +0.124 C 
BRANCH  33  35
ATOM     34  C   UNL     1       0.632  -0.670  -1.196  0.00  0.00    +0.005 C 
ATOM     35  C   UNL     1       0.204  -2.138  -1.243  0.00  0.00    +0.018 C 
ENDBRANCH  33  35
ENDBRANCH  21  33
ENDBRANCH  19  30
ENDBRANCH   1  19
TORSDOF 11
