REMARK  Name = ZINC08216744
REMARK  5 active torsions:
REMARK  status: ('A' for Active; 'I' for Inactive)
REMARK    1  A    between atoms: C_1  and  C_2
REMARK    2  A    between atoms: C_2  and  C_4
REMARK    3  A    between atoms: C_2  and  S_21
REMARK    4  A    between atoms: C_10  and  C_15
REMARK    5  A    between atoms: S_21  and  C_22
REMARK                            x       y       z     vdW  Elec       q    Type
REMARK                         _______ _______ _______ _____ _____    ______ ____
ROOT
ATOM      1  C   UNL     1      -0.617  -2.214  -0.004  0.00  0.00    +0.124 A 
ATOM      2  N   UNL     1       0.681  -2.610  -0.019  0.00  0.00    -0.309 N 
ATOM      3  H   UNL     1       0.895  -3.587  -0.027  0.00  0.00    +0.170 HD
ATOM      4  C   UNL     1       1.686  -1.715  -0.024  0.00  0.00    +0.260 A 
ATOM      5  O   UNL     1       2.847  -2.087  -0.036  0.00  0.00    -0.267 OA
ATOM      6  C   UNL     1       1.371  -0.319  -0.013  0.00  0.00    +0.080 A 
ATOM      7  C   UNL     1       2.269   0.830  -0.015  0.00  0.00    +0.004 A 
ATOM      8  C   UNL     1       1.734   2.075  -0.003  0.00  0.00    +0.056 A 
ATOM      9  S   UNL     1      -0.022   1.770   0.012  0.00  0.00    -0.076 S 
ATOM     10  C   UNL     1       0.002  -0.004   0.002  0.00  0.00    +0.116 A 
ATOM     11  N   UNL     1      -0.936  -0.947   0.005  0.00  0.00    -0.225 NA
ENDROOT
BRANCH   7  12
ATOM     12  C   UNL     1       3.739   0.639  -0.030  0.00  0.00    -0.017 A 
ATOM     13  C   UNL     1       4.342  -0.220   0.888  0.00  0.00    +0.008 A 
ATOM     14  C   UNL     1       5.710  -0.397   0.866  0.00  0.00    +0.001 A 
ATOM     15  C   UNL     1       6.484   0.283  -0.057  0.00  0.00    +0.000 A 
ATOM     16  C   UNL     1       5.892   1.141  -0.966  0.00  0.00    +0.001 A 
ATOM     17  C   UNL     1       4.524   1.323  -0.957  0.00  0.00    +0.008 A 
ENDBRANCH   7  12
BRANCH   1  19
ATOM     18  C   UNL     1      -2.179  -3.506  -1.433  0.00  0.00    +0.027 C 
ATOM     19  C   UNL     1      -1.709  -3.253   0.001  0.00  0.00    +0.116 C 
BRANCH  19  20
ATOM     20  S   UNL     1      -3.103  -2.660   0.999  0.00  0.00    -0.086 S 
BRANCH  20  21
ATOM     21  C   UNL     1      -4.216  -4.025   1.030  0.00  0.00    +0.161 A 
ATOM     22  N   UNL     1      -4.099  -5.212   0.466  0.00  0.00    -0.133 NA
ATOM     23  N   UNL     1      -5.098  -6.145   0.622  0.00  0.00    -0.125 NA
ATOM     24  C   UNL     1      -6.172  -5.845   1.325  0.00  0.00    +0.180 A 
ATOM     25  S   UNL     1      -5.808  -4.170   1.827  0.00  0.00    -0.025 S 
ATOM     26  N   UNL     1      -7.289  -6.625   1.602  0.00  0.00    -0.336 N 
ATOM     27  H   UNL     1      -8.011  -6.264   2.141  0.00  0.00    +0.144 HD
ATOM     28  H   UNL     1      -7.348  -7.529   1.257  0.00  0.00    +0.144 HD
ENDBRANCH  20  21
ENDBRANCH  19  20
ENDBRANCH   1  19
TORSDOF 4
