REMARK  Name = ZINC39596292
REMARK  10 active torsions:
REMARK  status: ('A' for Active; 'I' for Inactive)
REMARK    1  A    between atoms: C_1  and  C_2
REMARK    2  A    between atoms: C_2  and  C_4
REMARK    3  A    between atoms: C_2  and  O_30
REMARK    4  A    between atoms: C_4  and  N_5
REMARK    5  A    between atoms: C_6  and  C_8
REMARK    6  A    between atoms: C_19  and  C_21
REMARK    7  A    between atoms: C_21  and  C_22
REMARK    8  A    between atoms: C_22  and  C_23
REMARK    9  A    between atoms: C_23  and  C_24
REMARK   10  A    between atoms: O_30  and  C_31
REMARK                            x       y       z     vdW  Elec       q    Type
REMARK                         _______ _______ _______ _____ _____    ______ ____
ROOT
ATOM      1  C   UNL     1      -1.833  -3.726   0.533  0.00  0.00    +0.100 C 
ATOM      2  C   UNL     1      -1.134  -3.965   1.890  0.00  0.00    +0.121 C 
ATOM      3  N   UNL     1      -2.238  -4.272   2.830  0.00  0.00    -0.300 N 
ATOM      4  C   UNL     1      -3.170  -5.114   2.043  0.00  0.00    +0.115 C 
ATOM      5  C   UNL     1      -3.167  -4.485   0.636  0.00  0.00    -0.004 C 
ATOM      6  C   UNL     1      -3.239  -5.574  -0.430  0.00  0.00    -0.010 C 
ATOM      7  C   UNL     1      -4.598  -6.275  -0.346  0.00  0.00    -0.082 C 
ATOM      8  N   UNL     1      -5.671  -5.294  -0.546  0.00  0.00    +0.379 N 
ATOM      9  C   UNL     1      -5.651  -4.303   0.536  0.00  0.00    -0.082 C 
ATOM     10  C   UNL     1      -4.338  -3.518   0.489  0.00  0.00    -0.010 C 
ATOM     11  C   UNL     1      -2.366  -3.874   4.112  0.00  0.00    +0.216 C 
ATOM     12  O   UNL     1      -3.336  -4.211   4.757  0.00  0.00    -0.276 OA
ATOM     13  H   UNL     1      -5.537  -4.827  -1.431  0.00  0.00    -0.086 HD
ATOM     14  H   UNL     1      -6.561  -5.768  -0.551  0.00  0.00    -0.086 HD
ENDROOT
BRANCH   1  16
ATOM     15  N   UNL     1      -2.134  -1.751  -0.926  0.00  0.00    -0.312 N 
ATOM     16  C   UNL     1      -2.082  -2.254   0.323  0.00  0.00    +0.218 C 
ATOM     17  O   UNL     1      -2.234  -1.523   1.278  0.00  0.00    -0.275 OA
ATOM     18  H   UNL     1      -2.012  -2.337  -1.690  0.00  0.00    +0.149 HD
BRANCH  15  19
ATOM     19  C   UNL     1      -2.376  -0.321  -1.131  0.00  0.00    +0.148 C 
BRANCH  19  21
ATOM     20  C   UNL     1      -2.640   1.480  -2.843  0.00  0.00    +0.053 C 
ATOM     21  C   UNL     1      -2.387  -0.014  -2.630  0.00  0.00    +0.187 C 
BRANCH  21  22
ATOM     22  O   UNL     1      -1.126  -0.370  -3.198  0.00  0.00    -0.488 OA
BRANCH  22  23
ATOM     23  C   UNL     1      -1.109  -0.667  -4.525  0.00  0.00    +0.121 A 
ATOM     24  C   UNL     1       0.057  -1.131  -5.118  0.00  0.00    +0.048 A 
ATOM     25  C   UNL     1       0.073  -1.432  -6.466  0.00  0.00    +0.042 A 
ATOM     26  C   UNL     1      -1.074  -1.272  -7.225  0.00  0.00    +0.124 A 
ATOM     27  C   UNL     1      -2.237  -0.809  -6.635  0.00  0.00    +0.042 A 
ATOM     28  C   UNL     1      -2.258  -0.513  -5.286  0.00  0.00    +0.048 A 
ATOM     29  F   UNL     1      -1.057  -1.566  -8.544  0.00  0.00    -0.205 F 
ENDBRANCH  22  23
ENDBRANCH  21  22
ENDBRANCH  19  21
ENDBRANCH  15  19
ENDBRANCH   1  16
BRANCH  11  30
ATOM     30  C   UNL     1      -1.303  -3.012   4.743  0.00  0.00    +0.096 C 
BRANCH  30  31
ATOM     31  C   UNL     1      -1.688  -2.706   6.191  0.00  0.00    +0.014 C 
BRANCH  31  32
ATOM     32  C   UNL     1      -0.610  -1.830   6.832  0.00  0.00    +0.035 C 
BRANCH  32  33
ATOM     33  C   UNL     1      -0.989  -1.529   8.259  0.00  0.00    -0.047 A 
ATOM     34  C   UNL     1      -1.750  -0.412   8.550  0.00  0.00    +0.003 A 
ATOM     35  C   UNL     1      -2.098  -0.135   9.859  0.00  0.00    +0.000 A 
ATOM     36  C   UNL     1      -1.686  -0.976  10.877  0.00  0.00    +0.000 A 
ATOM     37  C   UNL     1      -0.926  -2.093  10.585  0.00  0.00    +0.000 A 
ATOM     38  C   UNL     1      -0.581  -2.372   9.275  0.00  0.00    +0.003 A 
ENDBRANCH  32  33
ENDBRANCH  31  32
ENDBRANCH  30  31
ENDBRANCH  11  30
TORSDOF 9
