REMARK  Name = ZINC36634719
REMARK  8 active torsions:
REMARK  status: ('A' for Active; 'I' for Inactive)
REMARK    1  A    between atoms: C_1  and  O_2
REMARK    2  A    between atoms: O_2  and  C_3
REMARK    3  A    between atoms: C_6  and  N_11
REMARK    4  A    between atoms: C_8  and  O_9
REMARK    5  A    between atoms: O_9  and  C_10
REMARK    6  A    between atoms: C_25  and  S_26
REMARK    7  A    between atoms: S_26  and  C_27
REMARK    8  A    between atoms: C_27  and  C_28
REMARK                            x       y       z     vdW  Elec       q    Type
REMARK                         _______ _______ _______ _____ _____    ______ ____
ROOT
ATOM      1  N   UNL     1       2.461  -2.456  -4.307  0.00  0.00    -0.254 N 
ATOM      2  C   UNL     1       2.593  -3.799  -4.332  0.00  0.00    +0.283 A 
ATOM      3  O   UNL     1       2.176  -4.484  -3.413  0.00  0.00    -0.265 OA
ATOM      4  C   UNL     1       3.224  -4.395  -5.444  0.00  0.00    +0.132 A 
ATOM      5  C   UNL     1       3.683  -3.570  -6.470  0.00  0.00    +0.104 A 
ATOM      6  C   UNL     1       4.285  -4.454  -7.478  0.00  0.00    +0.026 A 
ATOM      7  C   UNL     1       4.904  -4.228  -8.708  0.00  0.00    +0.012 A 
ATOM      8  C   UNL     1       5.377  -5.283  -9.437  0.00  0.00    +0.001 A 
ATOM      9  C   UNL     1       5.245  -6.581  -8.963  0.00  0.00    +0.002 A 
ATOM     10  C   UNL     1       4.638  -6.827  -7.752  0.00  0.00    +0.026 A 
ATOM     11  C   UNL     1       4.150  -5.766  -6.992  0.00  0.00    +0.049 A 
ATOM     12  N   UNL     1       3.511  -5.711  -5.772  0.00  0.00    -0.349 N 
ATOM     13  H   UNL     1       3.295  -6.481  -5.222  0.00  0.00    +0.166 HD
ATOM     14  N   UNL     1       3.519  -2.240  -6.383  0.00  0.00    -0.221 NA
ATOM     15  C   UNL     1       2.925  -1.697  -5.344  0.00  0.00    +0.177 A 
ENDROOT
BRANCH   1  19
ATOM     16  C   UNL     1       0.601  -0.615  -1.056  0.00  0.00    +0.162 A 
ATOM     17  C   UNL     1      -0.150  -1.020  -2.147  0.00  0.00    +0.051 A 
ATOM     18  C   UNL     1       0.465  -1.629  -3.224  0.00  0.00    +0.030 A 
ATOM     19  C   UNL     1       1.838  -1.837  -3.214  0.00  0.00    +0.056 A 
ATOM     20  C   UNL     1       2.594  -1.433  -2.122  0.00  0.00    +0.075 A 
ATOM     21  C   UNL     1       1.978  -0.818  -1.045  0.00  0.00    +0.163 A 
BRANCH  16  23
ATOM     22  C   UNL     1      -1.423   0.160  -0.074  0.00  0.00    +0.277 C 
ATOM     23  O   UNL     1      -0.006  -0.016   0.004  0.00  0.00    -0.491 OA
ENDBRANCH  16  23
BRANCH  21  24
ATOM     24  O   UNL     1       2.717  -0.417   0.024  0.00  0.00    -0.491 OA
ATOM     25  C   UNL     1       4.125  -0.656  -0.034  0.00  0.00    +0.277 C 
ENDBRANCH  21  24
ENDBRANCH   1  19
BRANCH  15  26
ATOM     26  S   UNL     1       2.730   0.053  -5.283  0.00  0.00    -0.083 S 
BRANCH  26  27
ATOM     27  C   UNL     1       3.476   0.631  -6.832  0.00  0.00    +0.112 C 
BRANCH  27  28
ATOM     28  C   UNL     1       3.374   2.133  -6.909  0.00  0.00    -0.036 A 
ATOM     29  C   UNL     1       2.265   2.722  -7.486  0.00  0.00    +0.006 A 
ATOM     30  C   UNL     1       2.171   4.099  -7.557  0.00  0.00    +0.022 A 
ATOM     31  C   UNL     1       3.187   4.889  -7.050  0.00  0.00    +0.059 A 
ATOM     32  C   UNL     1       4.298   4.299  -6.471  0.00  0.00    +0.060 A 
ATOM     33  C   UNL     1       4.388   2.921  -6.396  0.00  0.00    +0.026 A 
ATOM     34 CL   UNL     1       5.574   5.289  -5.834  0.00  0.00    -0.082 Cl
ATOM     35 CL   UNL     1       3.069   6.619  -7.139  0.00  0.00    -0.082 Cl
ENDBRANCH  27  28
ENDBRANCH  26  27
ENDBRANCH  15  26
TORSDOF 6
