REMARK  Name = ZINC39944395
REMARK  9 active torsions:
REMARK  status: ('A' for Active; 'I' for Inactive)
REMARK    1  A    between atoms: C_1  and  C_2
REMARK    2  A    between atoms: C_10  and  C_14
REMARK    3  A    between atoms: C_14  and  S_15
REMARK    4  A    between atoms: S_15  and  C_16
REMARK    5  A    between atoms: C_19  and  C_23
REMARK    6  A    between atoms: N_21  and  N_22
REMARK    7  A    between atoms: C_23  and  C_24
REMARK    8  A    between atoms: C_24  and  C_26
REMARK    9  A    between atoms: C_24  and  C_27
REMARK                            x       y       z     vdW  Elec       q    Type
REMARK                         _______ _______ _______ _____ _____    ______ ____
ROOT
ATOM      1  C   UNL     1       9.800  -4.301  -0.357  0.00  0.00    +0.189 C 
ATOM      2  N   UNL     1      10.103  -4.641   0.851  0.00  0.00    -0.161 NA
ATOM      3  N   UNL     1      11.306  -5.356   0.895  0.00  0.00    -0.245 N 
ATOM      4  C   UNL     1      11.780  -5.450  -0.496  0.00  0.00    +0.193 C 
ATOM      5  N   UNL     1      10.745  -4.743  -1.270  0.00  0.00    -0.225 N 
ATOM      6  H   UNL     1      11.740  -5.717   1.684  0.00  0.00    +0.170 HD
ENDROOT
BRANCH   5   7
ATOM      7  N   UNL     1      10.723  -4.556  -2.623  0.00  0.00    -0.250 NA
ATOM      8  H   UNL     1       9.904  -4.037  -2.903  0.00  0.00    +0.141 HD
ATOM      9  H   UNL     1      11.566  -4.101  -2.940  0.00  0.00    +0.141 HD
ENDBRANCH   5   7
BRANCH   1  10
ATOM     10  S   UNL     1       8.355  -3.392  -0.793  0.00  0.00    -0.080 S 
BRANCH  10  11
ATOM     11  C   UNL     1       7.523  -3.104   0.793  0.00  0.00    +0.150 C 
BRANCH  11  20
ATOM     12  C   UNL     1      -0.019   1.526   0.010  0.00  0.00    +0.007 C 
ATOM     13  C   UNL     1       0.002  -0.004   0.002  0.00  0.00    -0.012 C 
ATOM     14  C   UNL     1       0.702  -0.489  -1.265  0.00  0.00    +0.008 C 
ATOM     15  C   UNL     1       2.123   0.085  -1.344  0.00  0.00    +0.033 C 
ATOM     16  C   UNL     1       2.809  -0.264  -0.025  0.00  0.00    -0.042 C 
ATOM     17  C   UNL     1       3.969  -0.911   0.083  0.00  0.00    +0.071 C 
ATOM     18  C   UNL     1       4.411  -1.344   1.435  0.00  0.00    +0.111 C 
ATOM     19  N   UNL     1       5.516  -2.025   1.629  0.00  0.00    -0.227 NA
ATOM     20  C   UNL     1       6.254  -2.325   0.560  0.00  0.00    +0.134 C 
ATOM     21  N   UNL     1       5.969  -1.998  -0.674  0.00  0.00    -0.160 NA
ATOM     22  C   UNL     1       4.875  -1.309  -1.047  0.00  0.00    +0.271 C 
ATOM     23  O   UNL     1       4.637  -1.030  -2.210  0.00  0.00    -0.268 OA
ATOM     24  S   UNL     1       3.169  -0.735   2.531  0.00  0.00    -0.097 S 
ATOM     25  C   UNL     1       2.124   0.120   1.289  0.00  0.00    +0.080 C 
ATOM     26  C   UNL     1       0.729  -0.504   1.254  0.00  0.00    +0.022 C 
ENDBRANCH  11  20
ENDBRANCH  10  11
ENDBRANCH   1  10
BRANCH   4  27
ATOM     27  C   UNL     1      13.138  -4.762  -0.648  0.00  0.00    +0.052 C 
BRANCH  27  28
ATOM     28  C   UNL     1      14.193  -5.537   0.145  0.00  0.00    +0.019 C 
ATOM     29  C   UNL     1      14.373  -6.927  -0.468  0.00  0.00    +0.012 C 
BRANCH  28  30
ATOM     30  C   UNL     1      15.504  -4.794   0.096  0.00  0.00    -0.044 A 
ATOM     31  C   UNL     1      16.111  -4.542  -1.120  0.00  0.00    +0.004 A 
ATOM     32  C   UNL     1      17.313  -3.861  -1.164  0.00  0.00    +0.000 A 
ATOM     33  C   UNL     1      17.907  -3.430   0.008  0.00  0.00    +0.000 A 
ATOM     34  C   UNL     1      17.299  -3.681   1.224  0.00  0.00    +0.000 A 
ATOM     35  C   UNL     1      16.095  -4.359   1.268  0.00  0.00    +0.004 A 
ENDBRANCH  28  30
ENDBRANCH  27  28
ENDBRANCH   4  27
TORSDOF 7
