REMARK  Name = ZINC30952921
REMARK  2 active torsions:
REMARK  status: ('A' for Active; 'I' for Inactive)
REMARK    1  A    between atoms: C_9  and  C_16
REMARK    2  A    between atoms: C_17  and  N_24
REMARK                            x       y       z     vdW  Elec       q    Type
REMARK                         _______ _______ _______ _____ _____    ______ ____
ROOT
ATOM      1  C   UNL     1       1.137   4.412  -4.634  0.00  0.00    +0.021 A 
ATOM      2  C   UNL     1       2.435   4.586  -4.189  0.00  0.00    +0.013 A 
ATOM      3  C   UNL     1       2.936   3.748  -3.207  0.00  0.00    +0.021 A 
ATOM      4  C   UNL     1       2.131   2.730  -2.656  0.00  0.00    +0.040 A 
ATOM      5  C   UNL     1       0.838   2.567  -3.118  0.00  0.00    +0.043 A 
ATOM      6  C   UNL     1       0.346   3.407  -4.103  0.00  0.00    +0.043 A 
ATOM      7 CL   UNL     1      -1.279   3.198  -4.678  0.00  0.00    -0.083 Cl
ATOM      8  N   UNL     1       2.653   1.922  -1.647  0.00  0.00    -0.318 N 
ATOM      9  C   UNL     1       4.092   1.632  -1.577  0.00  0.00    +0.226 C 
ATOM     10  N   UNL     1       4.842   2.846  -1.908  0.00  0.00    -0.238 N 
ATOM     11  C   UNL     1       4.312   3.850  -2.684  0.00  0.00    +0.073 A 
ATOM     12  C   UNL     1       5.254   4.809  -2.814  0.00  0.00    +0.049 A 
ATOM     13  C   UNL     1       6.384   4.394  -2.099  0.00  0.00    +0.135 A 
ATOM     14  N   UNL     1       6.133   3.225  -1.558  0.00  0.00    -0.177 NA
ATOM     15  H   UNL     1       2.057   1.546  -0.980  0.00  0.00    +0.148 HD
ENDROOT
BRANCH   9  16
ATOM     16  C   UNL     1       4.435   0.542  -2.560  0.00  0.00    +0.044 A 
ATOM     17  C   UNL     1       5.755   0.303  -2.894  0.00  0.00    +0.134 A 
ATOM     18  C   UNL     1       6.070  -0.696  -3.796  0.00  0.00    +0.034 A 
ATOM     19  C   UNL     1       5.066  -1.458  -4.364  0.00  0.00    +0.024 A 
ATOM     20  C   UNL     1       3.745  -1.220  -4.030  0.00  0.00    +0.060 A 
ATOM     21  C   UNL     1       3.429  -0.223  -3.123  0.00  0.00    +0.068 A 
ATOM     22 CL   UNL     1       1.772   0.072  -2.697  0.00  0.00    -0.082 Cl
ATOM     23 CL   UNL     1       2.483  -2.176  -4.743  0.00  0.00    -0.082 Cl
BRANCH  17  24
ATOM     24  N   UNL     1       6.831   1.118  -2.288  0.00  0.00    +0.057 N 
ATOM     25  O   UNL     1       7.628   1.689  -2.995  0.00  0.00    -0.126 OA
ATOM     26  O   UNL     1       6.912   1.213  -1.085  0.00  0.00    -0.126 OA
ENDBRANCH  17  24
ENDBRANCH   9  16
TORSDOF 2
