REMARK  Name = ZINC39685786
REMARK  15 active torsions:
REMARK  status: ('A' for Active; 'I' for Inactive)
REMARK    1  A    between atoms: C_1  and  C_2
REMARK    2  A    between atoms: C_2  and  C_3
REMARK    3  A    between atoms: C_3  and  C_4
REMARK    4  A    between atoms: C_3  and  C_6
REMARK    5  A    between atoms: C_4  and  C_5
REMARK    6  A    between atoms: C_10  and  C_19
REMARK    7  A    between atoms: N_21  and  C_22
REMARK    8  A    between atoms: C_22  and  C_24
REMARK    9  A    between atoms: C_22  and  C_27
REMARK   10  A    between atoms: C_24  and  C_25
REMARK   11  A    between atoms: C_24  and  C_26
REMARK   12  A    between atoms: N_29  and  C_30
REMARK   13  A    between atoms: C_30  and  C_31
REMARK   14  A    between atoms: C_30  and  C_32
REMARK   15  A    between atoms: C_30  and  C_33
REMARK                            x       y       z     vdW  Elec       q    Type
REMARK                         _______ _______ _______ _____ _____    ______ ____
ROOT
ATOM      1  C   UNL     1       0.118  -2.045  -1.201  0.00  0.00    +0.219 C 
ATOM      2  O   UNL     1       0.999  -2.837  -0.942  0.00  0.00    -0.275 OA
ATOM      3  N   UNL     1      -1.173  -2.406  -1.069  0.00  0.00    -0.300 N 
ATOM      4  C   UNL     1      -2.378  -1.588  -1.341  0.00  0.00    +0.121 C 
ATOM      5  C   UNL     1      -3.375  -2.567  -2.000  0.00  0.00    +0.100 C 
ATOM      6  C   UNL     1      -2.933  -3.960  -1.519  0.00  0.00    -0.004 C 
ATOM      7  C   UNL     1      -1.710  -3.715  -0.623  0.00  0.00    +0.115 C 
ATOM      8  C   UNL     1      -2.541  -4.830  -2.710  0.00  0.00    -0.010 C 
ATOM      9  C   UNL     1      -2.159  -6.226  -2.212  0.00  0.00    -0.082 C 
ATOM     10  N   UNL     1      -3.296  -6.821  -1.499  0.00  0.00    +0.379 N 
ATOM     11  C   UNL     1      -3.607  -6.029  -0.303  0.00  0.00    -0.082 C 
ATOM     12  C   UNL     1      -4.050  -4.623  -0.720  0.00  0.00    -0.010 C 
ATOM     13  H   UNL     1      -4.101  -6.839  -2.107  0.00  0.00    -0.086 HD
ATOM     14  H   UNL     1      -3.063  -7.764  -1.224  0.00  0.00    -0.086 HD
ENDROOT
BRANCH   5  15
ATOM     15  C   UNL     1      -4.780  -2.274  -1.541  0.00  0.00    +0.219 C 
ATOM     16  O   UNL     1      -4.970  -1.770  -0.454  0.00  0.00    -0.275 OA
ATOM     17  N   UNL     1      -5.826  -2.571  -2.338  0.00  0.00    -0.303 N 
ATOM     18  H   UNL     1      -5.673  -2.974  -3.207  0.00  0.00    +0.149 HD
BRANCH  17  19
ATOM     19  C   UNL     1      -7.191  -2.285  -1.892  0.00  0.00    +0.161 C 
BRANCH  19  20
ATOM     20  C   UNL     1      -8.153  -3.206  -2.597  0.00  0.00    +0.234 C 
ATOM     21  O   UNL     1      -7.813  -3.777  -3.612  0.00  0.00    -0.274 OA
ATOM     22  N   UNL     1      -9.392  -3.396  -2.101  0.00  0.00    -0.309 N 
ATOM     23  H   UNL     1      -9.689  -2.886  -1.331  0.00  0.00    +0.149 HD
BRANCH  22  24
ATOM     24  C   UNL     1     -10.290  -4.370  -2.725  0.00  0.00    +0.026 C 
ATOM     25  C   UNL     1      -9.653  -5.760  -2.668  0.00  0.00    +0.031 C 
ATOM     26  C   UNL     1     -11.623  -4.389  -1.974  0.00  0.00    +0.031 C 
ATOM     27  C   UNL     1     -10.532  -3.980  -4.184  0.00  0.00    +0.031 C 
ENDBRANCH  22  24
ENDBRANCH  19  20
BRANCH  19  28
ATOM     28  C   UNL     1      -7.542  -0.833  -2.220  0.00  0.00    +0.012 C 
ATOM     29  C   UNL     1      -6.656   0.104  -1.398  0.00  0.00    +0.009 C 
ATOM     30  C   UNL     1      -7.310  -0.577  -3.711  0.00  0.00    +0.009 C 
ENDBRANCH  19  28
ENDBRANCH  17  19
ENDBRANCH   5  15
BRANCH   1  31
ATOM     31  C   UNL     1       0.468  -0.657  -1.672  0.00  0.00    +0.075 C 
BRANCH  31  33
ATOM     32  C   UNL     1       0.103   1.780  -1.258  0.00  0.00    +0.004 C 
ATOM     33  C   UNL     1      -0.105   0.372  -0.696  0.00  0.00    +0.009 C 
ENDBRANCH  31  33
BRANCH  31  34
ATOM     34  C   UNL     1       1.989  -0.508  -1.735  0.00  0.00    +0.009 C 
ATOM     35  C   UNL     1       2.546  -1.421  -2.829  0.00  0.00    +0.004 C 
ENDBRANCH  31  34
ENDBRANCH   1  31
TORSDOF 8
