REMARK  Name = ZINC06149264
REMARK  13 active torsions:
REMARK  status: ('A' for Active; 'I' for Inactive)
REMARK    1  A    between atoms: C_1  and  C_2
REMARK    2  A    between atoms: C_2  and  C_3
REMARK    3  A    between atoms: C_3  and  C_4
REMARK    4  A    between atoms: C_3  and  C_5
REMARK    5  A    between atoms: C_3  and  N_6
REMARK    6  A    between atoms: C_7  and  C_11
REMARK    7  A    between atoms: C_11  and  C_13
REMARK    8  A    between atoms: C_11  and  N_69
REMARK    9  A    between atoms: C_18  and  C_25
REMARK   10  A    between atoms: C_26  and  C_27
REMARK   11  A    between atoms: C_26  and  N_69
REMARK   12  A    between atoms: C_34  and  C_35
REMARK   13  A    between atoms: C_34  and  N_69
REMARK                            x       y       z     vdW  Elec       q    Type
REMARK                         _______ _______ _______ _____ _____    ______ ____
ROOT
ATOM      1  C   UNL     1       3.841  -0.702  -0.673  0.00  0.00    +0.040 C 
ENDROOT
BRANCH   1   2
ATOM      2  C   UNL     1       4.144  -1.220   0.710  0.00  0.00    +0.011 A 
ATOM      3  C   UNL     1       3.449  -0.749   1.774  0.00  0.00    +0.017 A 
ATOM      4  C   UNL     1       3.767  -1.273   3.104  0.00  0.00    -0.001 A 
ATOM      5  C   UNL     1       3.084  -0.826   4.240  0.00  0.00    +0.010 A 
ATOM      6  C   UNL     1       3.405  -1.335   5.467  0.00  0.00    +0.004 A 
ATOM      7  C   UNL     1       4.403  -2.291   5.596  0.00  0.00    -0.048 A 
ATOM      8  C   UNL     1       5.088  -2.746   4.491  0.00  0.00    +0.029 A 
ATOM      9  C   UNL     1       4.780  -2.243   3.231  0.00  0.00    +0.049 A 
ATOM     10  N   UNL     1       5.449  -2.680   2.108  0.00  0.00    -0.322 N 
ATOM     11  H   UNL     1       6.170  -3.366   2.201  0.00  0.00    +0.169 HD
ATOM     12  C   UNL     1       5.146  -2.197   0.891  0.00  0.00    +0.251 A 
ATOM     13  O   UNL     1       5.756  -2.611  -0.081  0.00  0.00    -0.268 OA
ATOM     14  C   UNL     1       4.739  -2.838   6.960  0.00  0.00    +0.044 C 
ENDBRANCH   1   2
BRANCH   1  16
ATOM     15  N   UNL     1       2.592   1.502  -0.959  0.00  0.00    -0.225 N 
ATOM     16  C   UNL     1       2.636   0.201  -0.618  0.00  0.00    +0.143 A 
ATOM     17  N   UNL     1       1.428  -0.128  -0.231  0.00  0.00    -0.115 NA
ATOM     18  N   UNL     1       0.681   0.916  -0.328  0.00  0.00    -0.023 NA
ATOM     19  N   UNL     1       1.380   1.903  -0.767  0.00  0.00    -0.043 NA
BRANCH  15  20
ATOM     20  C   UNL     1       3.708   2.311  -1.454  0.00  0.00    +0.061 C 
ATOM     21  C   UNL     1       4.814   2.354  -0.397  0.00  0.00    +0.036 C 
ATOM     22  C   UNL     1       4.256   1.691  -2.741  0.00  0.00    +0.036 C 
BRANCH  20  24
ATOM     23  C   UNL     1       4.387   4.578  -2.256  0.00  0.00    +0.006 C 
ATOM     24  C   UNL     1       3.220   3.733  -1.740  0.00  0.00    +0.026 C 
ENDBRANCH  20  24
ENDBRANCH  15  20
ENDBRANCH   1  16
BRANCH   1  25
ATOM     25  N   UNL     1       3.587  -1.852  -1.567  0.00  0.00    +0.397 N 
ATOM     26  H   UNL     1       4.340  -2.540  -1.448  0.00  0.00    -0.079 HD
BRANCH  25  27
ATOM     27  C   UNL     1       3.565  -1.402  -2.974  0.00  0.00    -0.041 C 
BRANCH  27  28
ATOM     28  C   UNL     1       3.462  -2.610  -3.870  0.00  0.00    -0.064 A 
ATOM     29  C   UNL     1       4.601  -3.317  -4.209  0.00  0.00    +0.004 A 
ATOM     30  C   UNL     1       4.507  -4.427  -5.027  0.00  0.00    +0.038 A 
ATOM     31  C   UNL     1       3.274  -4.826  -5.514  0.00  0.00    +0.123 A 
ATOM     32  C   UNL     1       2.135  -4.114  -5.177  0.00  0.00    +0.038 A 
ATOM     33  C   UNL     1       2.230  -3.007  -4.355  0.00  0.00    +0.004 A 
ATOM     34  F   UNL     1       3.182  -5.909  -6.316  0.00  0.00    -0.205 F 
ENDBRANCH  27  28
ENDBRANCH  25  27
BRANCH  25  35
ATOM     35  C   UNL     1       2.298  -2.486  -1.218  0.00  0.00    -0.001 C 
BRANCH  35  36
ATOM     36  C   UNL     1       2.493  -3.330   0.015  0.00  0.00    +0.089 A 
ATOM     37  C   UNL     1       2.102  -3.005   1.260  0.00  0.00    +0.042 A 
ATOM     38  C   UNL     1       2.482  -4.076   2.101  0.00  0.00    +0.041 A 
ATOM     39  C   UNL     1       3.083  -4.992   1.320  0.00  0.00    +0.195 A 
ATOM     40  O   UNL     1       3.081  -4.537   0.056  0.00  0.00    -0.470 OA
ENDBRANCH  35  36
ENDBRANCH  25  35
ENDBRANCH   1  25
TORSDOF 9
