REMARK  Name = ZINC06149139
REMARK  10 active torsions:
REMARK  status: ('A' for Active; 'I' for Inactive)
REMARK    1  A    between atoms: C_1  and  C_2
REMARK    2  A    between atoms: C_2  and  C_3
REMARK    3  A    between atoms: C_3  and  C_4
REMARK    4  A    between atoms: C_3  and  C_5
REMARK    5  A    between atoms: C_3  and  N_6
REMARK    6  A    between atoms: C_7  and  C_11
REMARK    7  A    between atoms: C_11  and  C_13
REMARK    8  A    between atoms: C_11  and  N_66
REMARK    9  A    between atoms: C_17  and  C_26
REMARK   10  A    between atoms: C_19  and  C_25
REMARK                            x       y       z     vdW  Elec       q    Type
REMARK                         _______ _______ _______ _____ _____    ______ ____
ROOT
ATOM      1  C   UNL     1      -1.219  -0.918  -0.080  0.00  0.00    +0.039 C 
ENDROOT
BRANCH   1   2
ATOM      2  C   UNL     1      -1.802  -1.055   1.303  0.00  0.00    +0.011 A 
ATOM      3  C   UNL     1      -1.788  -2.259   1.926  0.00  0.00    +0.017 A 
ATOM      4  C   UNL     1      -2.363  -2.359   3.269  0.00  0.00    -0.001 A 
ATOM      5  C   UNL     1      -2.377  -3.574   3.961  0.00  0.00    +0.013 A 
ATOM      6  C   UNL     1      -2.921  -3.634   5.213  0.00  0.00    -0.050 A 
ATOM      7  C   UNL     1      -3.459  -2.499   5.804  0.00  0.00    +0.008 A 
ATOM      8  C   UNL     1      -3.456  -1.291   5.141  0.00  0.00    -0.026 A 
ATOM      9  C   UNL     1      -2.908  -1.206   3.865  0.00  0.00    +0.052 A 
ATOM     10  N   UNL     1      -2.892  -0.011   3.178  0.00  0.00    -0.322 N 
ATOM     11  H   UNL     1      -3.284   0.806   3.601  0.00  0.00    +0.169 HD
ATOM     12  C   UNL     1      -2.357   0.072   1.947  0.00  0.00    +0.251 A 
ATOM     13  O   UNL     1      -2.355   1.146   1.371  0.00  0.00    -0.268 OA
ATOM     14  C   UNL     1      -4.044  -0.067   5.795  0.00  0.00    +0.046 C 
ATOM     15  C   UNL     1      -2.936  -4.943   5.959  0.00  0.00    +0.044 C 
ENDBRANCH   1   2
BRANCH   1  25
ATOM     16  C   UNL     1      -3.409  -1.219  -1.073  0.00  0.00    -0.072 C 
ATOM     17  C   UNL     1      -4.550  -0.426  -1.710  0.00  0.00    +0.017 C 
ATOM     18  C   UNL     1      -4.074   0.230  -2.981  0.00  0.00    -0.048 A 
ATOM     19  C   UNL     1      -5.021   0.693  -3.882  0.00  0.00    +0.004 A 
ATOM     20  C   UNL     1      -4.628   1.307  -5.054  0.00  0.00    +0.000 A 
ATOM     21  C   UNL     1      -3.283   1.462  -5.331  0.00  0.00    +0.000 A 
ATOM     22  C   UNL     1      -2.339   1.000  -4.436  0.00  0.00    +0.002 A 
ATOM     23  C   UNL     1      -2.732   0.381  -3.259  0.00  0.00    -0.061 A 
ATOM     24  C   UNL     1      -1.665  -0.111  -2.316  0.00  0.00    -0.041 C 
ATOM     25  N   UNL     1      -2.237  -0.325  -0.976  0.00  0.00    +0.392 N 
ATOM     26  H   UNL     1      -2.536   0.579  -0.591  0.00  0.00    -0.080 HD
ENDBRANCH   1  25
BRANCH   1  28
ATOM     27  N   UNL     1       1.269  -0.369  -0.198  0.00  0.00    -0.225 N 
ATOM     28  C   UNL     1      -0.017  -0.010  -0.030  0.00  0.00    +0.143 A 
ATOM     29  N   UNL     1      -0.021   1.283   0.187  0.00  0.00    -0.115 NA
ATOM     30  N   UNL     1       1.199   1.696   0.153  0.00  0.00    -0.023 NA
ATOM     31  N   UNL     1       1.981   0.700  -0.079  0.00  0.00    -0.043 NA
BRANCH  27  32
ATOM     32  C   UNL     1       1.767  -1.721  -0.465  0.00  0.00    +0.061 C 
ATOM     33  C   UNL     1       1.312  -2.662   0.652  0.00  0.00    +0.036 C 
ATOM     34  C   UNL     1       1.214  -2.213  -1.804  0.00  0.00    +0.036 C 
BRANCH  32  36
ATOM     35  C   UNL     1       3.816  -3.111  -0.800  0.00  0.00    +0.006 C 
ATOM     36  C   UNL     1       3.296  -1.699  -0.522  0.00  0.00    +0.026 C 
ENDBRANCH  32  36
ENDBRANCH  27  32
ENDBRANCH   1  28
TORSDOF 5
