REMARK  Name = ZINC20877697
REMARK  9 active torsions:
REMARK  status: ('A' for Active; 'I' for Inactive)
REMARK    1  A    between atoms: C_1  and  C_2
REMARK    2  A    between atoms: C_3  and  C_32
REMARK    3  A    between atoms: C_5  and  C_7
REMARK    4  A    between atoms: C_7  and  C_8
REMARK    5  A    between atoms: C_8  and  N_9
REMARK    6  A    between atoms: C_10  and  C_12
REMARK    7  A    between atoms: C_12  and  C_13
REMARK    8  A    between atoms: N_20  and  C_21
REMARK    9  A    between atoms: C_21  and  C_22
REMARK                            x       y       z     vdW  Elec       q    Type
REMARK                         _______ _______ _______ _____ _____    ______ ____
ROOT
ATOM      1  C   UNL     1       5.619   2.345  -1.638  0.00  0.00    +0.028 C 
ATOM      2  C   UNL     1       6.388   2.008  -2.884  0.00  0.00    +0.200 C 
ATOM      3  O   UNL     1       7.458   1.448  -2.773  0.00  0.00    -0.278 OA
ATOM      4  N   UNL     1       5.942   2.300  -4.110  0.00  0.00    -0.318 N 
ATOM      5  C   UNL     1       4.652   2.939  -4.355  0.00  0.00    +0.085 C 
ATOM      6  C   UNL     1       4.146   3.604  -3.073  0.00  0.00    -0.058 C 
ATOM      7  N   UNL     1       4.217   2.627  -1.974  0.00  0.00    +0.391 N 
ATOM      8  H   UNL     1       6.594   2.036  -4.956  0.00  0.00    +0.149 HD
ATOM      9  H   UNL     1       3.744   1.692  -2.306  0.00  0.00    -0.080 HD
ENDROOT
BRANCH   1  10
ATOM     10  C   UNL     1       5.680   1.163  -0.668  0.00  0.00    +0.089 C 
BRANCH  10  12
ATOM     11  N   UNL     1       5.040  -1.227  -0.665  0.00  0.00    -0.315 N 
ATOM     12  C   UNL     1       5.011  -0.035  -1.293  0.00  0.00    +0.212 C 
ATOM     13  O   UNL     1       4.447   0.075  -2.361  0.00  0.00    -0.276 OA
ATOM     14  H   UNL     1       5.551  -1.326   0.304  0.00  0.00    +0.149 HD
BRANCH  11  15
ATOM     15  C   UNL     1       4.389  -2.390  -1.272  0.00  0.00    +0.111 C 
BRANCH  15  16
ATOM     16  C   UNL     1       4.568  -3.607  -0.362  0.00  0.00    +0.081 C 
BRANCH  16  21
ATOM     17  C   UNL     1       4.270  -7.704  -3.218  0.00  0.00    +0.066 C 
ATOM     18  C   UNL     1       3.678  -6.691  -2.272  0.00  0.00    +0.049 A 
ATOM     19  C   UNL     1       2.383  -6.786  -1.874  0.00  0.00    +0.009 A 
ATOM     20  S   UNL     1       2.267  -5.366  -0.794  0.00  0.00    -0.077 S 
ATOM     21  C   UNL     1       3.899  -4.804  -0.987  0.00  0.00    +0.080 A 
ATOM     22  N   UNL     1       4.402  -5.693  -1.812  0.00  0.00    -0.249 NA
ATOM     23  C   UNL     1       1.337  -7.808  -2.236  0.00  0.00    +0.053 C 
ENDBRANCH  16  21
ENDBRANCH  15  16
ENDBRANCH  11  15
ENDBRANCH  10  12
ENDBRANCH   1  10
BRANCH   7  24
ATOM     24  C   UNL     1       3.479   3.104  -0.797  0.00  0.00    -0.041 C 
BRANCH  24  25
ATOM     25  C   UNL     1       2.077   3.481  -1.202  0.00  0.00    -0.056 A 
ATOM     26  C   UNL     1       1.752   4.786  -1.410  0.00  0.00    +0.002 A 
ATOM     27  C   UNL     1       0.461   5.153  -1.785  0.00  0.00    +0.001 A 
ATOM     28  C   UNL     1      -0.513   4.217  -1.954  0.00  0.00    +0.008 A 
ATOM     29  C   UNL     1      -0.215   2.859  -1.748  0.00  0.00    -0.018 A 
ATOM     30  C   UNL     1       1.098   2.486  -1.367  0.00  0.00    -0.017 A 
ATOM     31  C   UNL     1       1.396   1.128  -1.161  0.00  0.00    +0.009 A 
ATOM     32  C   UNL     1       0.423   0.192  -1.329  0.00  0.00    +0.001 A 
ATOM     33  C   UNL     1      -0.867   0.559  -1.709  0.00  0.00    +0.001 A 
ATOM     34  C   UNL     1      -1.194   1.864  -1.912  0.00  0.00    +0.008 A 
ENDBRANCH  24  25
ENDBRANCH   7  24
TORSDOF 7
