REMARK  Name = ZINC39509936
REMARK  4 active torsions:
REMARK  status: ('A' for Active; 'I' for Inactive)
REMARK    1  A    between atoms: C_4  and  C_7
REMARK    2  A    between atoms: C_7  and  C_8
REMARK    3  A    between atoms: C_14  and  C_21
REMARK    4  A    between atoms: C_26  and  O_27
REMARK                            x       y       z     vdW  Elec       q    Type
REMARK                         _______ _______ _______ _____ _____    ______ ____
ROOT
ATOM      1  C   UNL     1       4.880  -2.253   0.452  0.00  0.00    -0.005 C 
ATOM      2  C   UNL     1       4.592  -0.837   1.011  0.00  0.00    +0.006 C 
ATOM      3  C   UNL     1       5.239  -0.844   2.412  0.00  0.00    +0.024 C 
ATOM      4  C   UNL     1       6.330  -1.926   2.383  0.00  0.00    +0.040 C 
ATOM      5  C   UNL     1       6.309  -2.547   0.972  0.00  0.00    +0.027 C 
ATOM      6  C   UNL     1       7.695  -1.298   2.653  0.00  0.00    +0.044 C 
ATOM      7  C   UNL     1       8.769  -2.389   2.627  0.00  0.00    +0.011 C 
ATOM      8  C   UNL     1       8.417  -3.465   3.657  0.00  0.00    +0.017 C 
ATOM      9  C   UNL     1       7.034  -4.037   3.339  0.00  0.00    +0.098 C 
ATOM     10  N   UNL     1       6.036  -2.959   3.380  0.00  0.00    -0.235 NA
ATOM     11 BR   UNL     1       4.326  -3.630   3.156  0.00  0.00    +0.013 Br
ENDROOT
BRANCH   6  12
ATOM     12  C   UNL     1       7.994  -0.270   1.592  0.00  0.00    -0.001 A 
ATOM     13  C   UNL     1       7.578   1.037   1.758  0.00  0.00    +0.007 A 
ATOM     14  C   UNL     1       7.852   1.980   0.785  0.00  0.00    +0.001 A 
ATOM     15  C   UNL     1       8.543   1.617  -0.357  0.00  0.00    +0.004 A 
ATOM     16  C   UNL     1       8.962   0.312  -0.527  0.00  0.00    +0.046 A 
ATOM     17  C   UNL     1       8.693  -0.635   0.450  0.00  0.00    +0.120 A 
BRANCH  17  18
ATOM     18  O   UNL     1       9.108  -1.918   0.287  0.00  0.00    -0.506 OA
ATOM     19  H   UNL     1       8.511  -2.460  -0.247  0.00  0.00    +0.292 HD
ENDBRANCH  17  18
ENDBRANCH   6  12
BRANCH   1  20
ATOM     20  C   UNL     1       4.849  -2.249  -1.077  0.00  0.00    +0.038 C 
BRANCH  20  24
ATOM     21  C   UNL     1       0.846  -1.603  -2.422  0.00  0.00    +0.000 A 
ATOM     22  C   UNL     1       1.685  -0.526  -2.204  0.00  0.00    +0.000 A 
ATOM     23  C   UNL     1       2.980  -0.735  -1.769  0.00  0.00    +0.003 A 
ATOM     24  C   UNL     1       3.437  -2.021  -1.551  0.00  0.00    -0.047 A 
ATOM     25  C   UNL     1       2.598  -3.099  -1.768  0.00  0.00    +0.003 A 
ATOM     26  C   UNL     1       1.303  -2.890  -2.205  0.00  0.00    +0.000 A 
ENDBRANCH  20  24
ENDBRANCH   1  20
TORSDOF 4
