REMARK  Name = ZINC08386448
REMARK  4 active torsions:
REMARK  status: ('A' for Active; 'I' for Inactive)
REMARK    1  A    between atoms: C_1  and  O_2
REMARK    2  A    between atoms: O_2  and  C_3
REMARK    3  A    between atoms: C_4  and  C_11
REMARK    4  A    between atoms: N_12  and  N_13
REMARK                            x       y       z     vdW  Elec       q    Type
REMARK                         _______ _______ _______ _____ _____    ______ ____
ROOT
ATOM      1  N   UNL     1       1.166   4.786   0.598  0.00  0.00    -0.204 N 
ATOM      2  C   UNL     1       0.628   5.163  -0.621  0.00  0.00    +0.256 A 
ATOM      3  N   UNL     1       1.029   6.294  -1.187  0.00  0.00    -0.192 NA
ATOM      4  C   UNL     1       0.515   6.652  -2.359  0.00  0.00    +0.163 A 
ATOM      5  C   UNL     1      -0.451   5.812  -2.952  0.00  0.00    +0.137 A 
ATOM      6  C   UNL     1      -0.838   6.456  -4.218  0.00  0.00    +0.029 A 
ATOM      7  C   UNL     1      -1.733   6.120  -5.232  0.00  0.00    +0.012 A 
ATOM      8  C   UNL     1      -1.876   6.952  -6.322  0.00  0.00    +0.001 A 
ATOM      9  C   UNL     1      -1.133   8.118  -6.413  0.00  0.00    +0.002 A 
ATOM     10  C   UNL     1      -0.244   8.462  -5.417  0.00  0.00    +0.026 A 
ATOM     11  C   UNL     1      -0.085   7.636  -4.309  0.00  0.00    +0.050 A 
ATOM     12  N   UNL     1       0.717   7.731  -3.183  0.00  0.00    -0.338 N 
ATOM     13  H   UNL     1       1.334   8.457  -3.003  0.00  0.00    +0.167 HD
ATOM     14  N   UNL     1      -0.813   4.697  -2.333  0.00  0.00    -0.142 NA
ATOM     15  N   UNL     1      -0.284   4.387  -1.199  0.00  0.00    -0.111 NA
ATOM     16  H   UNL     1       1.832   5.345   1.028  0.00  0.00    +0.177 HD
ENDROOT
BRANCH   1  18
ATOM     17  C   UNL     1       1.253   3.243   2.353  0.00  0.00    +0.142 C 
ATOM     18  N   UNL     1       0.748   3.597   1.210  0.00  0.00    -0.187 NA
BRANCH  17  20
ATOM     19  C   UNL     1      -0.149   1.182   2.379  0.00  0.00    +0.143 A 
ATOM     20  C   UNL     1       0.813   1.993   2.997  0.00  0.00    +0.038 A 
ATOM     21  C   UNL     1       1.353   1.609   4.226  0.00  0.00    +0.028 A 
ATOM     22  C   UNL     1       0.938   0.436   4.824  0.00  0.00    +0.020 A 
ATOM     23  C   UNL     1      -0.012  -0.362   4.210  0.00  0.00    +0.034 A 
ATOM     24  C   UNL     1      -0.559   0.011   2.995  0.00  0.00    +0.061 A 
ATOM     25 BR   UNL     1      -1.862  -1.083   2.171  0.00  0.00    -0.046 Br
ATOM     26 BR   UNL     1       1.671  -0.083   6.489  0.00  0.00    -0.050 Br
BRANCH  19  28
ATOM     27  C   UNL     1      -0.013   1.086   0.008  0.00  0.00    +0.277 C 
ATOM     28  O   UNL     1      -0.682   1.547   1.184  0.00  0.00    -0.493 OA
ENDBRANCH  19  28
ENDBRANCH  17  20
ENDBRANCH   1  18
TORSDOF 3
