REMARK  Name = ZINC12097236
REMARK  6 active torsions:
REMARK  status: ('A' for Active; 'I' for Inactive)
REMARK    1  A    between atoms: C_1  and  N_68
REMARK    2  A    between atoms: C_6  and  C_8
REMARK    3  A    between atoms: C_13  and  C_16
REMARK    4  A    between atoms: C_16  and  C_31
REMARK    5  A    between atoms: N_19  and  C_23
REMARK    6  A    between atoms: C_23  and  C_24
REMARK                            x       y       z     vdW  Elec       q    Type
REMARK                         _______ _______ _______ _____ _____    ______ ____
ROOT
ATOM      1  C   UNL     1       7.855   1.214  -3.410  0.00  0.00    +0.142 C 
ATOM      2  C   UNL     1       7.220   2.367  -4.161  0.00  0.00    +0.252 C 
ATOM      3  O   UNL     1       6.420   3.169  -3.730  0.00  0.00    -0.272 OA
ATOM      4  N   UNL     1       7.731   2.316  -5.407  0.00  0.00    -0.220 N 
ATOM      5  C   UNL     1       8.592   1.301  -5.546  0.00  0.00    +0.310 C 
ATOM      6  O   UNL     1       9.181   1.052  -6.580  0.00  0.00    -0.252 OA
ATOM      7  N   UNL     1       8.733   0.588  -4.415  0.00  0.00    -0.281 N 
ATOM      8  H   UNL     1       9.301  -0.187  -4.285  0.00  0.00    +0.152 HD
ENDROOT
BRANCH   1  14
ATOM      9  C   UNL     1       2.778  -0.634  -2.690  0.00  0.00    +0.202 C 
ATOM     10  O   UNL     1       2.222  -1.115  -3.654  0.00  0.00    -0.277 OA
ATOM     11  N   UNL     1       4.123  -0.663  -2.603  0.00  0.00    -0.303 N 
ATOM     12  C   UNL     1       4.811  -0.079  -1.444  0.00  0.00    +0.108 C 
ATOM     13  C   UNL     1       5.858   0.918  -1.938  0.00  0.00    +0.025 C 
ATOM     14  C   UNL     1       6.787   0.225  -2.938  0.00  0.00    +0.029 C 
ATOM     15  C   UNL     1       5.974  -0.260  -4.141  0.00  0.00    +0.025 C 
ATOM     16  C   UNL     1       4.928  -1.275  -3.669  0.00  0.00    +0.108 C 
BRANCH   9  22
ATOM     17  C   UNL     1       0.550  -1.966  -1.635  0.00  0.00    -0.095 C 
ATOM     18  C   UNL     1      -0.232   0.063  -0.570  0.00  0.00    -0.078 C 
ATOM     19  C   UNL     1      -0.291   1.586  -0.708  0.00  0.00    -0.019 C 
ATOM     20  C   UNL     1       1.130   2.154  -0.647  0.00  0.00    -0.003 C 
ATOM     21  C   UNL     1       1.973   1.518  -1.757  0.00  0.00    -0.006 C 
ATOM     22  C   UNL     1       1.966  -0.003  -1.588  0.00  0.00    +0.019 C 
ATOM     23  N   UNL     1       0.573  -0.489  -1.680  0.00  0.00    +0.385 N 
ATOM     24  H   UNL     1       0.169  -0.177  -2.571  0.00  0.00    -0.081 HD
ENDBRANCH   9  22
ENDBRANCH   1  14
BRANCH   1  25
ATOM     25  C   UNL     1       8.660   1.721  -2.241  0.00  0.00    +0.003 A 
ATOM     26  C   UNL     1       8.204   2.791  -1.486  0.00  0.00    +0.009 A 
ATOM     27  C   UNL     1       8.975   3.220  -0.417  0.00  0.00    +0.020 A 
ATOM     28  C   UNL     1      10.169   2.579  -0.147  0.00  0.00    +0.111 A 
ATOM     29  N   UNL     1      10.574   1.567  -0.890  0.00  0.00    -0.263 NA
ATOM     30  C   UNL     1       9.864   1.129  -1.911  0.00  0.00    +0.117 A 
ENDBRANCH   1  25
BRANCH   4  31
ATOM     31  C   UNL     1       7.387   3.256  -6.477  0.00  0.00    +0.153 C 
BRANCH  31  32
ATOM     32  C   UNL     1       8.336   4.427  -6.441  0.00  0.00    -0.029 A 
ATOM     33  C   UNL     1       8.028   5.542  -5.684  0.00  0.00    +0.008 A 
ATOM     34  C   UNL     1       8.900   6.614  -5.647  0.00  0.00    +0.038 A 
ATOM     35  C   UNL     1      10.076   6.575  -6.376  0.00  0.00    +0.123 A 
ATOM     36  C   UNL     1      10.381   5.459  -7.138  0.00  0.00    +0.038 A 
ATOM     37  C   UNL     1       9.510   4.386  -7.169  0.00  0.00    +0.008 A 
ATOM     38  F   UNL     1      10.927   7.624  -6.344  0.00  0.00    -0.205 F 
ENDBRANCH  31  32
ENDBRANCH   4  31
TORSDOF 5
