REMARK  Name = ZINC51359385
REMARK  4 active torsions:
REMARK  status: ('A' for Active; 'I' for Inactive)
REMARK    1  A    between atoms: C_4  and  S_9
REMARK    2  A    between atoms: C_5  and  C_7
REMARK    3  A    between atoms: S_9  and  N_12
REMARK    4  A    between atoms: C_16  and  C_18
REMARK                            x       y       z     vdW  Elec       q    Type
REMARK                         _______ _______ _______ _____ _____    ______ ____
ROOT
ATOM      1  N   UNL     1       4.047  -1.759   1.214  0.00  0.00    -0.175 NA
ATOM      2  C   UNL     1       4.539  -1.225   2.497  0.00  0.00    +0.110 C 
ATOM      3  C   UNL     1       4.944  -2.475   3.317  0.00  0.00    +0.019 C 
ATOM      4  C   UNL     1       3.845  -3.489   2.904  0.00  0.00    +0.020 C 
ATOM      5  C   UNL     1       3.590  -3.141   1.422  0.00  0.00    +0.066 C 
ENDROOT
BRANCH   5   6
ATOM      6  C   UNL     1       2.096  -3.248   1.109  0.00  0.00    -0.053 C 
ATOM      7  C   UNL     1       1.306  -2.244   1.974  0.00  0.00    -0.016 C 
ATOM      8  C   UNL     1       0.021  -3.034   2.339  0.00  0.00    -0.021 C 
ATOM      9  C   UNL     1       0.573  -4.473   2.497  0.00  0.00    -0.082 C 
ATOM     10  N   UNL     1       1.609  -4.598   1.445  0.00  0.00    +0.382 N 
ATOM     11  H   UNL     1       1.212  -5.030   0.624  0.00  0.00    -0.085 HD
ATOM     12  H   UNL     1       2.374  -5.160   1.786  0.00  0.00    -0.085 HD
ENDBRANCH   5   6
BRANCH   1  13
ATOM     13  S   UNL     1       4.010  -0.937  -0.223  0.00  0.00    +0.062 S 
ATOM     14  O   UNL     1       4.175   0.439   0.092  0.00  0.00    -0.153 OA
ATOM     15  O   UNL     1       2.884  -1.424  -0.941  0.00  0.00    -0.153 OA
BRANCH  13  19
ATOM     16  C   UNL     1       7.682  -2.179  -2.579  0.00  0.00    +0.001 A 
ATOM     17  C   UNL     1       6.419  -2.549  -3.007  0.00  0.00    +0.002 A 
ATOM     18  C   UNL     1       5.300  -2.169  -2.288  0.00  0.00    +0.030 A 
ATOM     19  C   UNL     1       5.436  -1.420  -1.137  0.00  0.00    +0.123 A 
ATOM     20  C   UNL     1       6.708  -1.044  -0.700  0.00  0.00    +0.078 A 
ATOM     21  C   UNL     1       7.833  -1.430  -1.431  0.00  0.00    +0.021 A 
BRANCH  20  22
ATOM     22  C   UNL     1       6.857  -0.266   0.493  0.00  0.00    +0.101 C 
ATOM     23  N   UNL     1       6.976   0.351   1.439  0.00  0.00    -0.191 NA
ENDBRANCH  20  22
ENDBRANCH  13  19
ENDBRANCH   1  13
TORSDOF 4
