REMARK  Name = ZINC35934041
REMARK  14 active torsions:
REMARK  status: ('A' for Active; 'I' for Inactive)
REMARK    1  A    between atoms: C_1  and  C_2
REMARK    2  A    between atoms: C_2  and  N_3
REMARK    3  A    between atoms: C_6  and  C_11
REMARK    4  A    between atoms: C_15  and  O_17
REMARK    5  A    between atoms: O_17  and  C_18
REMARK    6  A    between atoms: N_26  and  C_28
REMARK    7  A    between atoms: C_28  and  C_30
REMARK    8  A    between atoms: C_28  and  C_33
REMARK    9  A    between atoms: C_30  and  C_31
REMARK   10  A    between atoms: C_30  and  C_32
REMARK   11  A    between atoms: N_35  and  C_36
REMARK   12  A    between atoms: C_36  and  C_37
REMARK   13  A    between atoms: C_36  and  C_38
REMARK   14  A    between atoms: C_36  and  C_39
REMARK                            x       y       z     vdW  Elec       q    Type
REMARK                         _______ _______ _______ _____ _____    ______ ____
ROOT
ATOM      1  N   UNL     1       0.801  -0.358  -0.760  0.00  0.00    -0.257 N 
ATOM      2  C   UNL     1       2.036  -0.837  -0.427  0.00  0.00    +0.042 C 
ATOM      3  C   UNL     1       2.415  -0.958   0.861  0.00  0.00    +0.058 C 
ATOM      4  C   UNL     1       1.424  -0.544   1.929  0.00  0.00    +0.142 C 
ATOM      5  N   UNL     1       0.119  -0.040   1.468  0.00  0.00    -0.288 N 
ATOM      6  C   UNL     1      -0.112   0.027   0.142  0.00  0.00    +0.307 C 
ATOM      7  O   UNL     1      -1.184   0.446  -0.248  0.00  0.00    -0.252 OA
ATOM      8  C   UNL     1       3.725  -1.473   0.940  0.00  0.00    +0.247 C 
ATOM      9  O   UNL     1       4.320  -1.685   1.981  0.00  0.00    -0.270 OA
ATOM     10  N   UNL     1       4.233  -1.700  -0.285  0.00  0.00    -0.280 N 
ATOM     11  C   UNL     1       3.203  -1.316  -1.262  0.00  0.00    +0.160 C 
ATOM     12  H   UNL     1      -0.558   0.240   2.104  0.00  0.00    +0.151 HD
ENDROOT
BRANCH   4  13
ATOM     13  C   UNL     1       1.173  -1.735   2.818  0.00  0.00    -0.019 A 
ATOM     14  C   UNL     1       0.304  -2.731   2.410  0.00  0.00    +0.006 A 
ATOM     15  C   UNL     1       0.072  -3.825   3.223  0.00  0.00    +0.004 A 
ATOM     16  C   UNL     1       0.709  -3.926   4.445  0.00  0.00    +0.046 A 
ATOM     17  C   UNL     1       1.582  -2.929   4.856  0.00  0.00    +0.129 A 
ATOM     18  C   UNL     1       1.817  -1.835   4.036  0.00  0.00    +0.052 A 
BRANCH  17  19
ATOM     19  O   UNL     1       2.209  -3.027   6.057  0.00  0.00    -0.456 OA
BRANCH  19  20
ATOM     20  C   UNL     1       1.740  -2.272   7.085  0.00  0.00    +0.128 A 
ATOM     21  C   UNL     1       0.658  -1.426   6.889  0.00  0.00    +0.046 A 
ATOM     22  C   UNL     1       0.182  -0.660   7.936  0.00  0.00    +0.004 A 
ATOM     23  C   UNL     1       0.784  -0.736   9.178  0.00  0.00    +0.000 A 
ATOM     24  C   UNL     1       1.862  -1.578   9.377  0.00  0.00    +0.004 A 
ATOM     25  C   UNL     1       2.338  -2.351   8.335  0.00  0.00    +0.046 A 
ENDBRANCH  19  20
ENDBRANCH  17  19
ENDBRANCH   4  13
BRANCH   1  27
ATOM     26  C   UNL     1       0.873   1.122  -2.705  0.00  0.00    +0.025 C 
ATOM     27  C   UNL     1       0.458  -0.253  -2.180  0.00  0.00    +0.111 C 
ENDBRANCH   1  27
BRANCH  10  28
ATOM     28  C   UNL     1       5.564  -2.232  -0.589  0.00  0.00    +0.165 C 
BRANCH  28  29
ATOM     29  C   UNL     1       6.612  -1.240  -0.154  0.00  0.00    +0.234 C 
ATOM     30  O   UNL     1       6.375  -0.463   0.747  0.00  0.00    -0.274 OA
ATOM     31  N   UNL     1       7.813  -1.217  -0.765  0.00  0.00    -0.309 N 
ATOM     32  H   UNL     1       7.986  -1.804  -1.518  0.00  0.00    +0.149 HD
BRANCH  31  33
ATOM     33  C   UNL     1       8.858  -0.305  -0.293  0.00  0.00    +0.026 C 
ATOM     34  C   UNL     1       9.192  -0.623   1.165  0.00  0.00    +0.031 C 
ATOM     35  C   UNL     1      10.112  -0.477  -1.153  0.00  0.00    +0.031 C 
ATOM     36  C   UNL     1       8.361   1.138  -0.399  0.00  0.00    +0.031 C 
ENDBRANCH  31  33
ENDBRANCH  28  29
BRANCH  28  37
ATOM     37  C   UNL     1       5.769  -3.551   0.157  0.00  0.00    +0.012 C 
ATOM     38  C   UNL     1       4.652  -4.527  -0.217  0.00  0.00    +0.009 C 
ATOM     39  C   UNL     1       7.122  -4.152  -0.232  0.00  0.00    +0.009 C 
ENDBRANCH  28  37
ENDBRANCH  10  28
TORSDOF 8
