REMARK  Name = ZINC08881949
REMARK  5 active torsions:
REMARK  status: ('A' for Active; 'I' for Inactive)
REMARK    1  A    between atoms: C_1  and  C_2
REMARK    2  A    between atoms: C_2  and  C_27
REMARK    3  A    between atoms: N_5  and  C_9
REMARK    4  A    between atoms: C_9  and  C_10
REMARK    5  A    between atoms: C_15  and  C_18
REMARK                            x       y       z     vdW  Elec       q    Type
REMARK                         _______ _______ _______ _____ _____    ______ ____
ROOT
ATOM      1  C   UNL     1       0.952   7.989  -1.399  0.00  0.00    +0.047 C 
ATOM      2  C   UNL     1       1.044   7.447   0.029  0.00  0.00    +0.135 C 
ATOM      3  C   UNL     1       2.272   7.994   0.729  0.00  0.00    +0.251 C 
ATOM      4  O   UNL     1       3.430   7.837   0.406  0.00  0.00    -0.272 OA
ATOM      5  N   UNL     1       1.809   8.691   1.786  0.00  0.00    -0.215 N 
ATOM      6  C   UNL     1       0.473   8.660   1.850  0.00  0.00    +0.310 C 
ATOM      7  O   UNL     1      -0.175   9.216   2.715  0.00  0.00    -0.252 OA
ATOM      8  N   UNL     1      -0.074   7.946   0.849  0.00  0.00    -0.281 N 
ATOM      9  H   UNL     1      -1.019   7.790   0.697  0.00  0.00    +0.152 HD
ENDROOT
BRANCH   2  10
ATOM     10  C   UNL     1       1.064   5.940   0.022  0.00  0.00    -0.015 A 
ATOM     11  C   UNL     1       2.286   5.270   0.007  0.00  0.00    +0.007 A 
ATOM     12  C   UNL     1       2.340   3.910  -0.000  0.00  0.00    +0.009 A 
ATOM     13  C   UNL     1       1.147   3.167   0.008  0.00  0.00    -0.018 A 
ATOM     14  C   UNL     1       1.163   1.762   0.000  0.00  0.00    +0.008 A 
ATOM     15  C   UNL     1      -0.013   1.076   0.008  0.00  0.00    +0.001 A 
ATOM     16  C   UNL     1      -1.235   1.746   0.017  0.00  0.00    +0.001 A 
ATOM     17  C   UNL     1      -1.288   3.106   0.031  0.00  0.00    +0.008 A 
ATOM     18  C   UNL     1      -0.096   3.849   0.023  0.00  0.00    -0.018 A 
ATOM     19  C   UNL     1      -0.111   5.254   0.030  0.00  0.00    +0.014 A 
ENDBRANCH   2  10
BRANCH   5  20
ATOM     20  C   UNL     1       2.663   9.395   2.745  0.00  0.00    +0.214 C 
BRANCH  20  21
ATOM     21  C   UNL     1       2.890  10.808   2.273  0.00  0.00    +0.237 C 
ATOM     22  O   UNL     1       2.388  11.189   1.237  0.00  0.00    -0.274 OA
ATOM     23  N   UNL     1       3.652  11.648   3.002  0.00  0.00    -0.263 N 
ATOM     24  C   UNL     1       3.861  12.950   2.567  0.00  0.00    +0.165 A 
ATOM     25  N   UNL     1       4.565  13.916   3.128  0.00  0.00    -0.225 NA
ATOM     26  C   UNL     1       4.659  15.113   2.569  0.00  0.00    +0.080 A 
ATOM     27  C   UNL     1       4.015  15.354   1.388  0.00  0.00    +0.076 A 
ATOM     28  S   UNL     1       3.256  13.761   1.093  0.00  0.00    -0.060 S 
ATOM     29  H   UNL     1       4.053  11.343   3.831  0.00  0.00    +0.157 HD
BRANCH  26  30
ATOM     30  C   UNL     1       5.455  16.182   3.219  0.00  0.00    +0.001 A 
ATOM     31  C   UNL     1       5.556  17.439   2.626  0.00  0.00    +0.010 A 
ATOM     32  C   UNL     1       6.293  18.429   3.239  0.00  0.00    +0.004 A 
ATOM     33  C   UNL     1       6.944  18.179   4.438  0.00  0.00    -0.044 A 
ATOM     34  C   UNL     1       6.852  16.931   5.028  0.00  0.00    -0.044 A 
ATOM     35  C   UNL     1       6.110  15.933   4.423  0.00  0.00    +0.014 A 
ATOM     36  C   UNL     1       7.646  16.915   6.317  0.00  0.00    +0.036 C 
ATOM     37  C   UNL     1       8.584  18.137   6.229  0.00  0.00    +0.009 C 
ATOM     38  C   UNL     1       7.806  19.085   5.291  0.00  0.00    +0.036 C 
ENDBRANCH  26  30
ENDBRANCH  20  21
ENDBRANCH   5  20
TORSDOF 4
