REMARK  Name = ZINC03498519
REMARK  8 active torsions:
REMARK  status: ('A' for Active; 'I' for Inactive)
REMARK    1  A    between atoms: C_1  and  C_2
REMARK    2  A    between atoms: C_5  and  N_8
REMARK    3  A    between atoms: C_9  and  S_13
REMARK    4  A    between atoms: S_13  and  C_14
REMARK    5  A    between atoms: C_14  and  C_15
REMARK    6  A    between atoms: N_20  and  C_21
REMARK    7  A    between atoms: C_24  and  C_28
REMARK    8  A    between atoms: C_26  and  C_27
REMARK                            x       y       z     vdW  Elec       q    Type
REMARK                         _______ _______ _______ _____ _____    ______ ____
ROOT
ATOM      1  C   UNL     1      -0.018   1.502  -0.010  0.00  0.00    +0.231 C 
ATOM      2  O   UNL     1      -1.076   2.094   0.006  0.00  0.00    -0.274 OA
ATOM      3  N   UNL     1       1.140   2.192  -0.013  0.00  0.00    -0.239 N 
ATOM      4  C   UNL     1       1.121   3.540   0.007  0.00  0.00    +0.310 C 
ATOM      5  O   UNL     1       0.061   4.133   0.028  0.00  0.00    -0.252 OA
ATOM      6  N   UNL     1       2.279   4.230   0.003  0.00  0.00    -0.269 N 
ATOM      7  H   UNL     1       1.986   1.719  -0.030  0.00  0.00    +0.159 HD
ATOM      8  H   UNL     1       3.125   3.759   0.068  0.00  0.00    +0.156 HD
ENDROOT
BRANCH   6   9
ATOM      9  C   UNL     1       2.261   5.626  -0.095  0.00  0.00    +0.038 A 
ATOM     10  C   UNL     1       1.182   6.268  -0.687  0.00  0.00    +0.024 A 
ATOM     11  C   UNL     1       1.168   7.646  -0.782  0.00  0.00    +0.005 A 
ATOM     12  C   UNL     1       2.227   8.386  -0.288  0.00  0.00    -0.050 A 
ATOM     13  C   UNL     1       3.303   7.749   0.302  0.00  0.00    +0.008 A 
ATOM     14  C   UNL     1       3.321   6.372   0.405  0.00  0.00    -0.029 A 
ATOM     15  C   UNL     1       4.491   5.679   1.054  0.00  0.00    +0.045 C 
ATOM     16  C   UNL     1       2.207   9.889  -0.393  0.00  0.00    +0.044 C 
ENDBRANCH   6   9
BRANCH   1  17
ATOM     17  C   UNL     1       0.003  -0.004  -0.032  0.00  0.00    +0.173 C 
BRANCH  17  18
ATOM     18  S   UNL     1      -1.695  -0.631  -0.021  0.00  0.00    -0.075 S 
BRANCH  18  20
ATOM     19  N   UNL     1      -2.311  -3.353  -0.049  0.00  0.00    -0.187 N 
ATOM     20  C   UNL     1      -1.381  -2.365  -0.051  0.00  0.00    +0.214 A 
ATOM     21  N   UNL     1      -0.201  -2.946  -0.073  0.00  0.00    -0.101 NA
ATOM     22  N   UNL     1      -0.329  -4.224  -0.089  0.00  0.00    -0.022 NA
ATOM     23  N   UNL     1      -1.576  -4.551  -0.080  0.00  0.00    -0.038 NA
BRANCH  19  28
ATOM     24  C   UNL     1      -7.957  -2.775   0.054  0.00  0.00    +0.044 C 
ATOM     25  C   UNL     1      -6.458  -2.929   0.027  0.00  0.00    -0.050 A 
ATOM     26  C   UNL     1      -5.883  -3.966  -0.684  0.00  0.00    +0.005 A 
ATOM     27  C   UNL     1      -4.510  -4.109  -0.711  0.00  0.00    +0.028 A 
ATOM     28  C   UNL     1      -3.706  -3.210  -0.023  0.00  0.00    +0.070 A 
ATOM     29  C   UNL     1      -4.286  -2.174   0.695  0.00  0.00    +0.028 A 
ATOM     30  C   UNL     1      -5.660  -2.032   0.714  0.00  0.00    +0.005 A 
ENDBRANCH  19  28
ENDBRANCH  18  20
ENDBRANCH  17  18
ENDBRANCH   1  17
TORSDOF 5
