REMARK  Name = ZINC08916590
REMARK  10 active torsions:
REMARK  status: ('A' for Active; 'I' for Inactive)
REMARK    1  A    between atoms: C_1  and  C_2
REMARK    2  A    between atoms: C_2  and  C_3
REMARK    3  A    between atoms: C_2  and  C_4
REMARK    4  A    between atoms: C_4  and  C_5
REMARK    5  A    between atoms: C_5  and  O_6
REMARK    6  A    between atoms: O_6  and  C_7
REMARK    7  A    between atoms: C_10  and  C_13
REMARK    8  A    between atoms: C_18  and  O_27
REMARK    9  A    between atoms: C_22  and  N_26
REMARK   10  A    between atoms: C_23  and  C_24
REMARK                            x       y       z     vdW  Elec       q    Type
REMARK                         _______ _______ _______ _____ _____    ______ ____
ROOT
ATOM      1  C   UNL     1       0.693  -6.497   4.554  0.00  0.00    +0.098 C 
ATOM      2  C   UNL     1      -0.720  -7.001   4.689  0.00  0.00    +0.008 A 
ATOM      3  C   UNL     1      -1.406  -6.793   5.873  0.00  0.00    +0.012 A 
ATOM      4  C   UNL     1      -2.702  -7.248   6.015  0.00  0.00    +0.046 A 
ATOM      5  C   UNL     1      -3.321  -7.917   4.968  0.00  0.00    +0.120 A 
ATOM      6  C   UNL     1      -2.637  -8.126   3.782  0.00  0.00    +0.092 A 
ATOM      7  C   UNL     1      -1.333  -7.668   3.640  0.00  0.00    +0.138 A 
ATOM      8  O   UNL     1      -0.678  -7.881   2.473  0.00  0.00    -0.441 OA
ATOM      9  C   UNL     1       0.663  -7.807   2.434  0.00  0.00    +0.199 C 
ATOM     10  C   UNL     1       1.373  -7.165   3.392  0.00  0.00    +0.098 C 
ENDROOT
BRANCH   1  14
ATOM     11  C   UNL     1       0.634  -2.271   3.922  0.00  0.00    +0.121 A 
ATOM     12  C   UNL     1      -0.004  -3.117   3.026  0.00  0.00    +0.046 A 
ATOM     13  C   UNL     1       0.020  -4.483   3.230  0.00  0.00    +0.008 A 
ATOM     14  C   UNL     1       0.672  -5.007   4.331  0.00  0.00    -0.034 A 
ATOM     15  C   UNL     1       1.305  -4.166   5.228  0.00  0.00    +0.008 A 
ATOM     16  C   UNL     1       1.287  -2.800   5.026  0.00  0.00    +0.046 A 
BRANCH  11  17
ATOM     17  O   UNL     1       0.616  -0.927   3.721  0.00  0.00    -0.492 OA
BRANCH  17  18
ATOM     18  C   UNL     1      -0.075  -0.454   2.563  0.00  0.00    +0.229 C 
BRANCH  18  19
ATOM     19  C   UNL     1       0.011   1.072   2.506  0.00  0.00    +0.044 C 
BRANCH  19  21
ATOM     20  C   UNL     1      -0.013   1.086   0.008  0.00  0.00    +0.007 C 
ATOM     21  C   UNL     1      -0.729   1.579   1.267  0.00  0.00    -0.014 C 
ATOM     22  C   UNL     1      -0.750   3.109   1.275  0.00  0.00    +0.007 C 
ENDBRANCH  19  21
ENDBRANCH  18  19
ENDBRANCH  17  18
ENDBRANCH  11  17
ENDBRANCH   1  14
BRANCH   9  23
ATOM     23  N   UNL     1       1.333  -8.401   1.394  0.00  0.00    -0.328 N 
ATOM     24  H   UNL     1       0.838  -8.865   0.700  0.00  0.00    +0.145 HD
ATOM     25  H   UNL     1       2.301  -8.357   1.352  0.00  0.00    +0.145 HD
ENDBRANCH   9  23
BRANCH  10  26
ATOM     26  C   UNL     1       2.801  -7.121   3.296  0.00  0.00    +0.101 C 
ATOM     27  N   UNL     1       3.934  -7.087   3.219  0.00  0.00    -0.191 NA
ENDBRANCH  10  26
BRANCH   5  28
ATOM     28  O   UNL     1      -4.596  -8.365   5.107  0.00  0.00    -0.507 OA
ATOM     29  H   UNL     1      -5.269  -7.725   4.835  0.00  0.00    +0.292 HD
ENDBRANCH   5  28
TORSDOF 8
