REMARK  Name = ZINC14644151
REMARK  9 active torsions:
REMARK  status: ('A' for Active; 'I' for Inactive)
REMARK    1  A    between atoms: C_1  and  C_2
REMARK    2  A    between atoms: C_2  and  C_4
REMARK    3  A    between atoms: C_2  and  O_24
REMARK    4  A    between atoms: N_6  and  N_7
REMARK    5  A    between atoms: C_8  and  C_10
REMARK    6  A    between atoms: C_10  and  O_11
REMARK    7  A    between atoms: O_11  and  C_12
REMARK    8  A    between atoms: C_17  and  C_18
REMARK    9  A    between atoms: O_24  and  C_25
REMARK                            x       y       z     vdW  Elec       q    Type
REMARK                         _______ _______ _______ _____ _____    ______ ____
ROOT
ATOM      1  N   UNL     1       5.328  -2.831  -4.543  0.00  0.00    -0.231 N 
ATOM      2  C   UNL     1       4.654  -2.431  -3.447  0.00  0.00    +0.267 C 
ATOM      3  O   UNL     1       4.636  -1.257  -3.142  0.00  0.00    -0.271 OA
ATOM      4  H   UNL     1       5.343  -3.770  -4.788  0.00  0.00    +0.173 HD
ENDROOT
BRANCH   1   7
ATOM      5  C   UNL     1       6.683  -2.293  -6.425  0.00  0.00    +0.270 C 
ATOM      6  O   UNL     1       6.701  -3.467  -6.731  0.00  0.00    -0.270 OA
ATOM      7  N   UNL     1       6.009  -1.892  -5.330  0.00  0.00    -0.231 N 
ATOM      8  H   UNL     1       5.994  -0.954  -5.085  0.00  0.00    +0.173 HD
BRANCH   5  10
ATOM      9  C   UNL     1       6.407  -0.324  -7.907  0.00  0.00    +0.062 C 
ATOM     10  C   UNL     1       7.415  -1.283  -7.271  0.00  0.00    +0.257 C 
BRANCH  10  11
ATOM     11  O   UNL     1       8.142  -1.959  -8.298  0.00  0.00    -0.479 OA
BRANCH  11  12
ATOM     12  C   UNL     1       9.230  -1.322  -8.806  0.00  0.00    +0.136 A 
ATOM     13  C   UNL     1       9.524  -0.026  -8.409  0.00  0.00    +0.048 A 
ATOM     14  C   UNL     1      10.633   0.619  -8.922  0.00  0.00    +0.023 A 
ATOM     15  C   UNL     1      11.445  -0.024  -9.841  0.00  0.00    +0.042 A 
ATOM     16  C   UNL     1      11.150  -1.314 -10.243  0.00  0.00    +0.039 A 
ATOM     17  C   UNL     1      10.045  -1.964  -9.728  0.00  0.00    +0.061 A 
ATOM     18 BR   UNL     1       9.642  -3.728 -10.279  0.00  0.00    -0.046 Br
ATOM     19 CL   UNL     1      12.834   0.791 -10.489  0.00  0.00    -0.084 Cl
ENDBRANCH  11  12
ENDBRANCH  10  11
ENDBRANCH   5  10
ENDBRANCH   1   7
BRANCH   2  20
ATOM     20  C   UNL     1       3.922  -3.441  -2.602  0.00  0.00    +0.326 C 
BRANCH  20  21
ATOM     21  O   UNL     1       3.290  -2.776  -1.506  0.00  0.00    -0.482 OA
BRANCH  21  22
ATOM     22  C   UNL     1       2.583  -3.549  -0.641  0.00  0.00    +0.129 A 
ATOM     23  C   UNL     1       2.502  -4.918  -0.838  0.00  0.00    +0.046 A 
ATOM     24  C   UNL     1       1.778  -5.702   0.040  0.00  0.00    +0.004 A 
ATOM     25  C   UNL     1       1.135  -5.128   1.122  0.00  0.00    +0.001 A 
ATOM     26  C   UNL     1       1.211  -3.766   1.333  0.00  0.00    +0.012 A 
ATOM     27  C   UNL     1       1.938  -2.966   0.454  0.00  0.00    +0.024 A 
BRANCH  27  28
ATOM     28  C   UNL     1       2.022  -1.502   0.676  0.00  0.00    -0.014 A 
ATOM     29  C   UNL     1       0.863  -0.760   0.897  0.00  0.00    +0.008 A 
ATOM     30  C   UNL     1       0.948   0.602   1.103  0.00  0.00    +0.001 A 
ATOM     31  C   UNL     1       2.180   1.231   1.090  0.00  0.00    +0.000 A 
ATOM     32  C   UNL     1       3.333   0.500   0.871  0.00  0.00    +0.001 A 
ATOM     33  C   UNL     1       3.261  -0.863   0.663  0.00  0.00    +0.008 A 
ENDBRANCH  27  28
ENDBRANCH  21  22
ENDBRANCH  20  21
ENDBRANCH   2  20
TORSDOF 8
