REMARK  Name = ZINC10409799
REMARK  9 active torsions:
REMARK  status: ('A' for Active; 'I' for Inactive)
REMARK    1  A    between atoms: C_4  and  C_7
REMARK    2  A    between atoms: C_7  and  C_8
REMARK    3  A    between atoms: C_10  and  N_18
REMARK    4  A    between atoms: C_13  and  O_14
REMARK    5  A    between atoms: O_14  and  C_15
REMARK    6  A    between atoms: C_19  and  C_21
REMARK    7  A    between atoms: C_21  and  C_22
REMARK    8  A    between atoms: C_22  and  C_24
REMARK    9  A    between atoms: C_22  and  N_29
REMARK                            x       y       z     vdW  Elec       q    Type
REMARK                         _______ _______ _______ _____ _____    ______ ____
ROOT
ATOM      1  N   UNL     1       6.335   0.580   3.917  0.00  0.00    -0.285 N 
ATOM      2  C   UNL     1       7.125   0.154   4.923  0.00  0.00    +0.219 C 
ATOM      3  O   UNL     1       7.137  -1.020   5.229  0.00  0.00    -0.275 OA
ATOM      4  H   UNL     1       6.381   1.502   3.621  0.00  0.00    +0.155 HD
ENDROOT
BRANCH   1   7
ATOM      5  C   UNL     1       4.289  -1.058   1.336  0.00  0.00    +0.001 A 
ATOM      6  C   UNL     1       5.164  -0.180   1.946  0.00  0.00    +0.030 A 
ATOM      7  C   UNL     1       5.448  -0.311   3.298  0.00  0.00    +0.034 A 
ATOM      8  C   UNL     1       4.852  -1.324   4.037  0.00  0.00    +0.027 A 
ATOM      9  C   UNL     1       3.978  -2.202   3.427  0.00  0.00    +0.048 A 
ATOM     10  C   UNL     1       3.691  -2.067   2.076  0.00  0.00    +0.130 A 
BRANCH   5  11
ATOM     11  C   UNL     1       3.980  -0.916  -0.132  0.00  0.00    +0.074 C 
BRANCH  11  15
ATOM     12  C   UNL     1       0.422   1.395  -0.624  0.00  0.00    +0.000 A 
ATOM     13  C   UNL     1       1.653   2.022  -0.585  0.00  0.00    +0.000 A 
ATOM     14  C   UNL     1       2.805   1.274  -0.425  0.00  0.00    +0.004 A 
ATOM     15  C   UNL     1       2.725  -0.101  -0.305  0.00  0.00    -0.043 A 
ATOM     16  C   UNL     1       1.493  -0.728  -0.343  0.00  0.00    +0.004 A 
ATOM     17  C   UNL     1       0.342   0.020  -0.504  0.00  0.00    +0.000 A 
ENDBRANCH  11  15
ENDBRANCH   5  11
BRANCH  10  18
ATOM     18  O   UNL     1       2.826  -2.928   1.477  0.00  0.00    -0.434 OA
BRANCH  18  19
ATOM     19  C   UNL     1       2.247  -3.943   2.299  0.00  0.00    +0.541 C 
ATOM     20  F   UNL     1       3.260  -4.743   2.837  0.00  0.00    -0.166 F 
ATOM     21  F   UNL     1       1.523  -3.346   3.337  0.00  0.00    -0.166 F 
ENDBRANCH  18  19
ENDBRANCH  10  18
ENDBRANCH   1   7
BRANCH   2  22
ATOM     22  C   UNL     1       7.992   1.136   5.668  0.00  0.00    +0.123 C 
BRANCH  22  23
ATOM     23  C   UNL     1       8.782   0.400   6.751  0.00  0.00    +0.120 C 
BRANCH  23  24
ATOM     24  N   UNL     1       9.713  -0.541   6.123  0.00  0.00    -0.292 N 
ATOM     25  C   UNL     1      10.137  -1.625   6.803  0.00  0.00    +0.298 C 
ATOM     26  O   UNL     1       9.746  -1.822   7.937  0.00  0.00    -0.253 OA
ATOM     27  N   UNL     1      10.993  -2.490   6.225  0.00  0.00    -0.313 N 
ATOM     28  H   UNL     1      10.024  -0.384   5.218  0.00  0.00    +0.151 HD
ATOM     29  H   UNL     1      11.305  -2.333   5.320  0.00  0.00    +0.146 HD
ATOM     30  H   UNL     1      11.298  -3.270   6.714  0.00  0.00    +0.146 HD
ENDBRANCH  23  24
BRANCH  23  31
ATOM     31  C   UNL     1       9.555   1.397   7.575  0.00  0.00    +0.010 A 
ATOM     32  C   UNL     1       9.257   1.911   8.793  0.00  0.00    +0.013 A 
ATOM     33  C   UNL     1      10.124   2.823   9.366  0.00  0.00    +0.008 A 
ATOM     34  C   UNL     1      11.246   3.177   8.692  0.00  0.00    +0.045 A 
ATOM     35  S   UNL     1      11.104   2.203   7.202  0.00  0.00    -0.100 S 
ENDBRANCH  23  31
ENDBRANCH  22  23
ENDBRANCH   2  22
TORSDOF 9
