REMARK  Name = ZINC09360958
REMARK  11 active torsions:
REMARK  status: ('A' for Active; 'I' for Inactive)
REMARK    1  A    between atoms: C_1  and  C_2
REMARK    2  A    between atoms: C_2  and  C_3
REMARK    3  A    between atoms: C_2  and  O_4
REMARK    4  A    between atoms: O_4  and  C_5
REMARK    5  A    between atoms: C_8  and  C_13
REMARK    6  A    between atoms: C_10  and  O_11
REMARK    7  A    between atoms: O_11  and  C_12
REMARK    8  A    between atoms: C_15  and  C_19
REMARK    9  A    between atoms: N_21  and  N_22
REMARK   10  A    between atoms: C_23  and  C_24
REMARK   11  A    between atoms: C_29  and  O_30
REMARK                            x       y       z     vdW  Elec       q    Type
REMARK                         _______ _______ _______ _____ _____    ______ ____
ROOT
ATOM      1  C   UNL     1      -2.333  -5.213  -2.876  0.00  0.00    +0.093 A 
ATOM      2  C   UNL     1      -1.361  -6.064  -3.434  0.00  0.00    +0.062 A 
ATOM      3  C   UNL     1      -2.074  -7.081  -4.042  0.00  0.00    +0.122 A 
ATOM      4  N   UNL     1      -3.396  -6.807  -3.831  0.00  0.00    -0.272 N 
ATOM      5  H   UNL     1      -4.135  -7.351  -4.145  0.00  0.00    +0.189 HD
ATOM      6  N   UNL     1      -3.514  -5.725  -3.150  0.00  0.00    -0.173 NA
ENDROOT
BRANCH   1  10
ATOM      7  C   UNL     1      -1.580  -1.640  -0.687  0.00  0.00    +0.162 A 
ATOM      8  C   UNL     1      -0.530  -2.327  -1.275  0.00  0.00    +0.050 A 
ATOM      9  C   UNL     1      -0.771  -3.486  -1.985  0.00  0.00    +0.014 A 
ATOM     10  C   UNL     1      -2.072  -3.967  -2.112  0.00  0.00    +0.006 A 
ATOM     11  C   UNL     1      -3.129  -3.278  -1.521  0.00  0.00    +0.059 A 
ATOM     12  C   UNL     1      -2.882  -2.119  -0.806  0.00  0.00    +0.162 A 
BRANCH  12  13
ATOM     13  O   UNL     1      -3.911  -1.447  -0.224  0.00  0.00    -0.491 OA
ATOM     14  C   UNL     1      -5.220  -1.997  -0.386  0.00  0.00    +0.277 C 
ENDBRANCH  12  13
BRANCH   7  15
ATOM     15  O   UNL     1      -1.339  -0.499   0.012  0.00  0.00    -0.486 OA
BRANCH  15  17
ATOM     16  C   UNL     1      -0.011   1.505   0.265  0.00  0.00    +0.051 C 
ATOM     17  C   UNL     1       0.001  -0.002  -0.000  0.00  0.00    +0.167 C 
ATOM     18  C   UNL     1       0.816  -0.705   1.088  0.00  0.00    +0.051 C 
ENDBRANCH  15  17
ENDBRANCH   7  15
ENDBRANCH   1  10
BRANCH   3  19
ATOM     19  C   UNL     1      -1.518  -8.231  -4.773  0.00  0.00    +0.281 C 
ATOM     20  O   UNL     1      -0.313  -8.354  -4.887  0.00  0.00    -0.267 OA
ATOM     21  N   UNL     1      -2.343  -9.147  -5.315  0.00  0.00    -0.202 N 
ATOM     22  H   UNL     1      -3.304  -9.049  -5.224  0.00  0.00    +0.178 HD
BRANCH  21  23
ATOM     23  N   UNL     1      -1.814 -10.242  -6.011  0.00  0.00    -0.187 NA
ATOM     24  C   UNL     1      -2.610 -11.125  -6.534  0.00  0.00    +0.142 C 
BRANCH  24  25
ATOM     25  C   UNL     1      -2.053 -12.277  -7.265  0.00  0.00    +0.037 A 
ATOM     26  C   UNL     1      -2.905 -13.226  -7.834  0.00  0.00    +0.028 A 
ATOM     27  C   UNL     1      -2.377 -14.302  -8.518  0.00  0.00    +0.019 A 
ATOM     28  C   UNL     1      -1.005 -14.445  -8.643  0.00  0.00    +0.019 A 
ATOM     29  C   UNL     1      -0.152 -13.512  -8.085  0.00  0.00    +0.047 A 
ATOM     30  C   UNL     1      -0.665 -12.422  -7.400  0.00  0.00    +0.126 A 
ATOM     31 BR   UNL     1      -3.532 -15.587  -9.287  0.00  0.00    -0.050 Br
BRANCH  30  32
ATOM     32  O   UNL     1       0.172 -11.502  -6.856  0.00  0.00    -0.506 OA
ATOM     33  H   UNL     1       0.439 -11.701  -5.948  0.00  0.00    +0.292 HD
ENDBRANCH  30  32
ENDBRANCH  24  25
ENDBRANCH  21  23
ENDBRANCH   3  19
TORSDOF 8
