REMARK  Name = ZINC63375620
REMARK  5 active torsions:
REMARK  status: ('A' for Active; 'I' for Inactive)
REMARK    1  A    between atoms: C_1  and  C_2
REMARK    2  A    between atoms: C_5  and  C_34
REMARK    3  A    between atoms: C_6  and  N_8
REMARK    4  A    between atoms: C_9  and  O_33
REMARK    5  A    between atoms: C_11  and  C_18
REMARK                            x       y       z     vdW  Elec       q    Type
REMARK                         _______ _______ _______ _____ _____    ______ ____
ROOT
ATOM      1  N   UNL     1       0.064  -2.780   2.388  0.00  0.00    -0.255 N 
ATOM      2  C   UNL     1       1.344  -3.122   3.012  0.00  0.00    +0.222 C 
ATOM      3  C   UNL     1       1.204  -3.056   4.534  0.00  0.00    +0.142 C 
ATOM      4  C   UNL     1      -0.054  -3.777   4.948  0.00  0.00    +0.227 C 
ATOM      5  O   UNL     1      -0.087  -4.386   5.995  0.00  0.00    -0.275 OA
ATOM      6  N   UNL     1      -1.140  -3.743   4.154  0.00  0.00    -0.267 N 
ATOM      7  C   UNL     1      -1.098  -3.144   2.953  0.00  0.00    +0.145 C 
ATOM      8  S   UNL     1      -2.563  -2.845   2.118  0.00  0.00    -0.018 S 
ATOM      9  H   UNL     1      -1.965  -4.154   4.456  0.00  0.00    +0.157 HD
ENDROOT
BRANCH   3  10
ATOM     10  C   UNL     1       2.416  -3.724   5.188  0.00  0.00    +0.096 C 
ATOM     11  C   UNL     1       3.699  -3.029   4.727  0.00  0.00    +0.124 C 
ATOM     12  C   UNL     1       4.854  -3.855   5.282  0.00  0.00    -0.036 C 
ATOM     13  C   UNL     1       5.623  -3.015   5.960  0.00  0.00    -0.001 A 
ATOM     14  C   UNL     1       6.914  -3.200   6.643  0.00  0.00    +0.010 A 
ATOM     15  C   UNL     1       7.426  -2.105   7.265  0.00  0.00    +0.001 A 
ATOM     16  C   UNL     1       6.790  -0.859   7.276  0.00  0.00    +0.002 A 
ATOM     17  C   UNL     1       5.605  -0.598   6.670  0.00  0.00    +0.026 A 
ATOM     18  C   UNL     1       4.971  -1.670   5.977  0.00  0.00    +0.043 A 
ATOM     19  N   UNL     1       3.846  -1.687   5.289  0.00  0.00    -0.376 N 
ATOM     20  C   UNL     1       4.917  -5.351   5.097  0.00  0.00    +0.048 C 
ATOM     21  C   UNL     1       3.527  -5.891   5.480  0.00  0.00    +0.085 C 
ATOM     22  N   UNL     1       2.482  -5.137   4.782  0.00  0.00    -0.310 NA
ATOM     23  H   UNL     1       1.584  -5.585   4.882  0.00  0.00    +0.122 HD
ATOM     24  H   UNL     1       3.222  -0.953   5.176  0.00  0.00    +0.160 HD
ENDBRANCH   3  10
BRANCH   1  30
ATOM     25  C   UNL     1      -0.018   1.548   0.056  0.00  0.00    +0.044 C 
ATOM     26  C   UNL     1       0.012   0.041   0.030  0.00  0.00    -0.049 A 
ATOM     27  C   UNL     1       0.028  -0.629  -1.180  0.00  0.00    +0.004 A 
ATOM     28  C   UNL     1       0.056  -2.011  -1.208  0.00  0.00    +0.005 A 
ATOM     29  C   UNL     1       0.068  -2.727  -0.026  0.00  0.00    -0.029 A 
ATOM     30  C   UNL     1       0.052  -2.057   1.190  0.00  0.00    +0.041 A 
ATOM     31  C   UNL     1       0.029  -0.669   1.214  0.00  0.00    +0.027 A 
ATOM     32  C   UNL     1       0.098  -4.234  -0.058  0.00  0.00    +0.045 C 
ENDBRANCH   1  30
BRANCH   2  33
ATOM     33  O   UNL     1       1.724  -4.444   2.625  0.00  0.00    -0.373 OA
ATOM     34  H   UNL     1       1.831  -4.559   1.671  0.00  0.00    +0.212 HD
ENDBRANCH   2  33
TORSDOF 3
