REMARK  Name = ZINC36203584
REMARK  11 active torsions:
REMARK  status: ('A' for Active; 'I' for Inactive)
REMARK    1  A    between atoms: C_1  and  C_2
REMARK    2  A    between atoms: C_5  and  C_7
REMARK    3  A    between atoms: C_7  and  N_8
REMARK    4  A    between atoms: N_8  and  C_9
REMARK    5  A    between atoms: N_8  and  C_31
REMARK    6  A    between atoms: C_9  and  C_10
REMARK    7  A    between atoms: C_13  and  C_15
REMARK    8  A    between atoms: C_15  and  C_16
REMARK    9  A    between atoms: C_15  and  C_23
REMARK   10  A    between atoms: C_15  and  O_30
REMARK   11  A    between atoms: C_31  and  C_32
REMARK                            x       y       z     vdW  Elec       q    Type
REMARK                         _______ _______ _______ _____ _____    ______ ____
ROOT
ATOM      1  C   UNL     1       1.794  -4.583  -2.705  0.00  0.00    +0.089 A 
ATOM      2  C   UNL     1       3.120  -4.724  -2.880  0.00  0.00    +0.043 A 
ATOM      3  C   UNL     1       3.298  -5.613  -3.965  0.00  0.00    +0.048 A 
ATOM      4  C   UNL     1       2.070  -5.962  -4.388  0.00  0.00    +0.146 A 
ATOM      5  O   UNL     1       1.163  -5.340  -3.618  0.00  0.00    -0.463 OA
ENDROOT
BRANCH   1   6
ATOM      6  C   UNL     1       1.129  -3.727  -1.659  0.00  0.00    -0.003 C 
BRANCH   6   7
ATOM      7  N   UNL     1       0.905  -2.379  -2.199  0.00  0.00    +0.389 N 
ATOM      8  H   UNL     1       1.781  -1.994  -2.516  0.00  0.00    -0.081 HD
BRANCH   7   9
ATOM      9  C   UNL     1       0.343  -1.518  -1.149  0.00  0.00    -0.035 C 
BRANCH   9  14
ATOM     10  C   UNL     1       0.941   3.879  -2.762  0.00  0.00    +0.051 C 
ATOM     11  C   UNL     1       0.536   2.467  -2.424  0.00  0.00    -0.013 A 
ATOM     12  C   UNL     1      -0.655   1.850  -2.622  0.00  0.00    +0.011 A 
ATOM     13  C   UNL     1      -0.800   0.533  -2.228  0.00  0.00    +0.009 A 
ATOM     14  C   UNL     1       0.252  -0.102  -1.656  0.00  0.00    -0.026 A 
ATOM     15  S   UNL     1       1.502   1.171  -1.667  0.00  0.00    -0.100 S 
ENDBRANCH   9  14
ENDBRANCH   7   9
BRANCH   7  16
ATOM     16  C   UNL     1      -0.035  -2.454  -3.325  0.00  0.00    -0.046 C 
BRANCH  16  17
ATOM     17  C   UNL     1      -1.412  -2.881  -2.814  0.00  0.00    +0.102 C 
ATOM     18  C   UNL     1      -2.442  -2.873  -3.972  0.00  0.00    +0.032 C 
ATOM     19  C   UNL     1      -3.487  -3.894  -3.444  0.00  0.00    +0.030 C 
ATOM     20  C   UNL     1      -2.603  -4.902  -2.679  0.00  0.00    +0.160 C 
ATOM     21  O   UNL     1      -1.373  -4.241  -2.353  0.00  0.00    -0.378 OA
ENDBRANCH  16  17
ENDBRANCH   7  16
ENDBRANCH   6   7
ENDBRANCH   1   6
BRANCH   4  22
ATOM     22  C   UNL     1       1.764  -6.897  -5.530  0.00  0.00    +0.174 C 
BRANCH  22  23
ATOM     23  C   UNL     1       0.458  -7.602  -5.266  0.00  0.00    -0.004 A 
ATOM     24  C   UNL     1      -0.734  -6.913  -5.380  0.00  0.00    +0.010 A 
ATOM     25  C   UNL     1      -1.932  -7.558  -5.138  0.00  0.00    +0.039 A 
ATOM     26  C   UNL     1      -1.937  -8.896  -4.781  0.00  0.00    +0.123 A 
ATOM     27  C   UNL     1      -0.742  -9.585  -4.667  0.00  0.00    +0.039 A 
ATOM     28  C   UNL     1       0.454  -8.939  -4.914  0.00  0.00    +0.010 A 
ATOM     29  F   UNL     1      -3.108  -9.528  -4.544  0.00  0.00    -0.205 F 
ENDBRANCH  22  23
BRANCH  22  30
ATOM     30  C   UNL     1       1.659  -6.109  -6.810  0.00  0.00    -0.004 A 
ATOM     31  C   UNL     1       0.982  -4.904  -6.826  0.00  0.00    +0.010 A 
ATOM     32  C   UNL     1       0.886  -4.181  -8.000  0.00  0.00    +0.039 A 
ATOM     33  C   UNL     1       1.468  -4.663  -9.160  0.00  0.00    +0.123 A 
ATOM     34  C   UNL     1       2.145  -5.871  -9.143  0.00  0.00    +0.039 A 
ATOM     35  C   UNL     1       2.245  -6.590  -7.967  0.00  0.00    +0.010 A 
ATOM     36  F   UNL     1       1.374  -3.957 -10.308  0.00  0.00    -0.205 F 
ENDBRANCH  22  30
BRANCH  22  37
ATOM     37  O   UNL     1       2.811  -7.862  -5.649  0.00  0.00    -0.372 OA
ATOM     38  H   UNL     1       3.682  -7.479  -5.820  0.00  0.00    +0.212 HD
ENDBRANCH  22  37
ENDBRANCH   4  22
TORSDOF 10
