REMARK  Name = ZINC49541793
REMARK  5 active torsions:
REMARK  status: ('A' for Active; 'I' for Inactive)
REMARK    1  A    between atoms: C_1  and  C_2
REMARK    2  A    between atoms: C_5  and  N_21
REMARK    3  A    between atoms: C_6  and  C_20
REMARK    4  A    between atoms: C_7  and  S_8
REMARK    5  A    between atoms: S_8  and  N_11
REMARK                            x       y       z     vdW  Elec       q    Type
REMARK                         _______ _______ _______ _____ _____    ______ ____
ROOT
ATOM      1  S   UNL     1       0.025   0.175   2.725  0.00  0.00    +0.102 S 
ATOM      2  O   UNL     1       0.597  -0.696   3.692  0.00  0.00    -0.146 OA
ATOM      3  O   UNL     1       0.556   1.465   2.454  0.00  0.00    -0.146 OA
ENDROOT
BRANCH   1   4
ATOM      4  N   UNL     1      -1.556   0.397   3.165  0.00  0.00    -0.103 NA
ATOM      5  C   UNL     1      -1.844   1.028   4.277  0.00  0.00    +0.192 A 
ATOM      6  N   UNL     1      -1.002   1.583   5.206  0.00  0.00    -0.336 N 
ATOM      7  C   UNL     1      -1.530   2.213   6.325  0.00  0.00    +0.028 A 
ATOM      8  C   UNL     1      -2.858   2.244   6.442  0.00  0.00    +0.012 A 
ATOM      9  S   UNL     1      -3.439   1.404   4.985  0.00  0.00    -0.053 S 
ATOM     10  C   UNL     1      -3.312   2.943   7.692  0.00  0.00    +0.044 C 
ATOM     11  C   UNL     1      -2.054   2.990   8.587  0.00  0.00    +0.011 C 
ATOM     12  C   UNL     1      -0.927   2.931   7.537  0.00  0.00    +0.054 C 
ATOM     13  H   UNL     1      -0.041   1.535   5.082  0.00  0.00    +0.168 HD
ENDBRANCH   1   4
BRANCH   1  20
ATOM     14  C   UNL     1      -0.018   1.503   0.010  0.00  0.00    +0.046 C 
ATOM     15  C   UNL     1       0.002  -0.004   0.002  0.00  0.00    -0.023 A 
ATOM     16  C   UNL     1       0.006  -0.687  -1.200  0.00  0.00    +0.007 A 
ATOM     17  C   UNL     1       0.024  -2.068  -1.212  0.00  0.00    +0.023 A 
ATOM     18  C   UNL     1       0.040  -2.771  -0.013  0.00  0.00    +0.029 A 
ATOM     19  C   UNL     1       0.036  -2.081   1.192  0.00  0.00    -0.003 A 
ATOM     20  C   UNL     1       0.023  -0.700   1.196  0.00  0.00    +0.120 A 
ATOM     21  C   UNL     1       0.052  -2.839   2.495  0.00  0.00    +0.048 C 
BRANCH  18  22
ATOM     22  N   UNL     1       0.058  -4.167  -0.021  0.00  0.00    -0.358 N 
ATOM     23  H   UNL     1       0.060  -4.648  -0.864  0.00  0.00    +0.142 HD
ATOM     24  H   UNL     1       0.069  -4.657   0.816  0.00  0.00    +0.142 HD
ENDBRANCH  18  22
ENDBRANCH   1  20
TORSDOF 3
