REMARK  Name = ZINC20411762
REMARK  3 active torsions:
REMARK  status: ('A' for Active; 'I' for Inactive)
REMARK    1  A    between atoms: C_2  and  C_3
REMARK    2  A    between atoms: C_3  and  N_4
REMARK    3  A    between atoms: C_7  and  C_13
REMARK                            x       y       z     vdW  Elec       q    Type
REMARK                         _______ _______ _______ _____ _____    ______ ____
ROOT
ATOM      1  C   UNL     1      -0.013   1.086   0.008  0.00  0.00    +0.018 C 
ATOM      2  C   UNL     1      -0.751   1.590  -1.209  0.00  0.00    +0.011 A 
ATOM      3  C   UNL     1      -2.023   2.059  -1.153  0.00  0.00    -0.022 A 
ATOM      4  C   UNL     1      -2.391   2.449  -2.496  0.00  0.00    +0.003 A 
ATOM      5  C   UNL     1      -3.558   2.994  -3.042  0.00  0.00    +0.010 A 
ATOM      6  C   UNL     1      -3.554   3.244  -4.392  0.00  0.00    +0.001 A 
ATOM      7  C   UNL     1      -2.452   2.973  -5.188  0.00  0.00    +0.002 A 
ATOM      8  C   UNL     1      -1.285   2.435  -4.674  0.00  0.00    +0.026 A 
ATOM      9  C   UNL     1      -1.260   2.170  -3.307  0.00  0.00    +0.047 A 
ATOM     10  N   UNL     1      -0.293   1.652  -2.493  0.00  0.00    -0.359 N 
ATOM     11  H   UNL     1       0.724   1.308  -2.731  0.00  0.00    +0.166 HD
ATOM     12  C   UNL     1      -2.832   2.127   0.118  0.00  0.00    +0.018 C 
ATOM     13  C   UNL     1      -2.143   1.243   1.167  0.00  0.00    -0.076 C 
ATOM     14  N   UNL     1      -0.710   1.564   1.213  0.00  0.00    +0.388 N 
ATOM     15  H   UNL     1      -0.273   1.087   2.103  0.00  0.00    -0.084 HD
ATOM     16  H   UNL     1      -0.599   2.656   1.291  0.00  0.00    -0.084 HD
ENDROOT
BRANCH   1  20
ATOM     17  N   UNL     1       2.918   3.441   0.095  0.00  0.00    -0.284 N 
ATOM     18  C   UNL     1       1.647   2.992   0.102  0.00  0.00    +0.261 A 
ATOM     19  O   UNL     1       0.720   3.776   0.203  0.00  0.00    -0.267 OA
ATOM     20  C   UNL     1       1.400   1.611  -0.003  0.00  0.00    +0.073 A 
ATOM     21  C   UNL     1       2.455   0.756  -0.120  0.00  0.00    +0.258 A 
ATOM     22  N   UNL     1       3.732   1.256  -0.128  0.00  0.00    -0.302 N 
ATOM     23  C   UNL     1       3.946   2.580  -0.021  0.00  0.00    +0.164 A 
ATOM     24  S   UNL     1       5.550   3.179  -0.034  0.00  0.00    -0.013 S 
ATOM     25  O   UNL     1       2.244  -0.573  -0.228  0.00  0.00    -0.267 OA
ATOM     26  H   UNL     1       4.589   0.574  -0.222  0.00  0.00    +0.171 HD
BRANCH  17  27
ATOM     27  C   UNL     1       3.182   4.878   0.209  0.00  0.00    +0.154 C 
BRANCH  27  29
ATOM     28  C   UNL     1       2.437   6.508  -1.449  0.00  0.00    +0.005 C 
ATOM     29  C   UNL     1       3.216   5.493  -1.165  0.00  0.00    -0.013 C 
ENDBRANCH  27  29
ENDBRANCH  17  27
ENDBRANCH   1  20
TORSDOF 3
