REMARK  Name = ZINC39368038
REMARK  5 active torsions:
REMARK  status: ('A' for Active; 'I' for Inactive)
REMARK    1  A    between atoms: C_1  and  C_2
REMARK    2  A    between atoms: C_2  and  S_3
REMARK    3  A    between atoms: S_3  and  C_4
REMARK    4  A    between atoms: C_10  and  C_22
REMARK    5  A    between atoms: C_25  and  C_27
REMARK                            x       y       z     vdW  Elec       q    Type
REMARK                         _______ _______ _______ _____ _____    ______ ____
ROOT
ATOM      1  C   UNL     1      -1.508  -2.383   0.004  0.00  0.00    +0.182 C 
ATOM      2  N   UNL     1      -0.286  -2.897  -0.005  0.00  0.00    -0.154 NA
ATOM      3  C   UNL     1      -0.074  -4.203  -0.036  0.00  0.00    +0.250 C 
ATOM      4  O   UNL     1       1.068  -4.619  -0.030  0.00  0.00    -0.273 OA
ATOM      5  C   UNL     1      -1.210  -5.184  -0.078  0.00  0.00    +0.155 C 
ATOM      6  C   UNL     1      -1.146  -6.117   1.133  0.00  0.00    +0.109 C 
ATOM      7  C   UNL     1      -2.455  -6.853   1.298  0.00  0.00    +0.023 C 
ATOM      8  C   UNL     1      -3.609  -6.391   0.779  0.00  0.00    +0.016 C 
ATOM      9  C   UNL     1      -4.907  -7.135   0.984  0.00  0.00    +0.051 C 
ATOM     10  C   UNL     1      -4.631  -8.637   1.074  0.00  0.00    +0.014 C 
ATOM     11  C   UNL     1      -3.666  -8.880   2.240  0.00  0.00    +0.080 C 
ATOM     12  C   UNL     1      -2.424  -8.061   2.025  0.00  0.00    +0.161 C 
ATOM     13  O   UNL     1      -1.369  -8.449   2.487  0.00  0.00    -0.292 OA
ATOM     14  N   UNL     1      -3.654  -5.232   0.035  0.00  0.00    -0.305 N 
ATOM     15  C   UNL     1      -2.531  -4.453  -0.026  0.00  0.00    +0.115 C 
ATOM     16  N   UNL     1      -2.601  -3.158   0.010  0.00  0.00    -0.213 NA
ATOM     17  H   UNL     1      -4.460  -4.976  -0.440  0.00  0.00    +0.153 HD
ENDROOT
BRANCH   6  18
ATOM     18  C   UNL     1      -0.036  -7.117   0.933  0.00  0.00    +0.114 A 
ATOM     19  C   UNL     1       1.030  -7.280   1.737  0.00  0.00    +0.045 A 
ATOM     20  C   UNL     1       1.810  -8.319   1.178  0.00  0.00    +0.044 A 
ATOM     21  C   UNL     1       1.172  -8.729   0.067  0.00  0.00    +0.102 A 
ATOM     22  O   UNL     1       0.052  -8.002  -0.073  0.00  0.00    -0.464 OA
ATOM     23  C   UNL     1       1.634  -9.823  -0.861  0.00  0.00    +0.086 C 
ENDBRANCH   6  18
BRANCH   1  24
ATOM     24  S   UNL     1      -1.700  -0.632   0.015  0.00  0.00    -0.089 S 
BRANCH  24  26
ATOM     25  C   UNL     1      -0.019   1.526   0.010  0.00  0.00    +0.016 C 
ATOM     26  C   UNL     1       0.002  -0.004   0.002  0.00  0.00    +0.074 C 
ENDBRANCH  24  26
ENDBRANCH   1  24
TORSDOF 3
