REMARK  Name = ZINC40721992
REMARK  12 active torsions:
REMARK  status: ('A' for Active; 'I' for Inactive)
REMARK    1  A    between atoms: C_1  and  C_2
REMARK    2  A    between atoms: C_2  and  C_4
REMARK    3  A    between atoms: C_2  and  N_10
REMARK    4  A    between atoms: N_10  and  C_11
REMARK    5  A    between atoms: C_11  and  C_12
REMARK    6  A    between atoms: C_15  and  O_18
REMARK    7  A    between atoms: O_18  and  C_19
REMARK    8  A    between atoms: C_19  and  C_20
REMARK    9  A    between atoms: C_20  and  C_22
REMARK   10  A    between atoms: C_20  and  O_34
REMARK   11  A    between atoms: N_28  and  C_33
REMARK   12  A    between atoms: N_31  and  C_32
REMARK                            x       y       z     vdW  Elec       q    Type
REMARK                         _______ _______ _______ _____ _____    ______ ____
ROOT
ATOM      1  C   UNL     1      -3.440  -0.661   1.287  0.00  0.00    -0.064 A 
ATOM      2  C   UNL     1      -4.467   0.119   0.789  0.00  0.00    +0.005 A 
ATOM      3  C   UNL     1      -5.764  -0.357   0.798  0.00  0.00    +0.046 A 
ATOM      4  C   UNL     1      -6.035  -1.619   1.307  0.00  0.00    +0.121 A 
ATOM      5  C   UNL     1      -5.003  -2.400   1.805  0.00  0.00    +0.046 A 
ATOM      6  C   UNL     1      -3.707  -1.922   1.789  0.00  0.00    +0.005 A 
ENDROOT
BRANCH   1   7
ATOM      7  C   UNL     1      -2.026  -0.140   1.276  0.00  0.00    -0.046 C 
BRANCH   7   8
ATOM      8  N   UNL     1      -1.376  -0.512   0.012  0.00  0.00    +0.386 N 
ATOM      9  H   UNL     1      -1.888  -0.113  -0.760  0.00  0.00    -0.085 HD
ATOM     10  H   UNL     1      -1.364  -1.518  -0.076  0.00  0.00    -0.085 HD
BRANCH   8  12
ATOM     11  C   UNL     1      -0.019   1.526   0.010  0.00  0.00    -0.009 C 
ATOM     12  C   UNL     1       0.002  -0.004   0.002  0.00  0.00    -0.044 C 
BRANCH  12  13
ATOM     13  C   UNL     1       0.707  -0.490  -1.238  0.00  0.00    -0.062 A 
ATOM     14  C   UNL     1       0.038  -0.522  -2.447  0.00  0.00    +0.002 A 
ATOM     15  C   UNL     1       0.685  -0.967  -3.584  0.00  0.00    +0.000 A 
ATOM     16  C   UNL     1       2.002  -1.381  -3.513  0.00  0.00    +0.000 A 
ATOM     17  C   UNL     1       2.672  -1.349  -2.304  0.00  0.00    +0.000 A 
ATOM     18  C   UNL     1       2.026  -0.899  -1.167  0.00  0.00    +0.002 A 
ENDBRANCH  12  13
ENDBRANCH   8  12
ENDBRANCH   7   8
ENDBRANCH   1   7
BRANCH   4  19
ATOM     19  O   UNL     1      -7.310  -2.089   1.317  0.00  0.00    -0.489 OA
BRANCH  19  20
ATOM     20  C   UNL     1      -7.515  -3.396   1.856  0.00  0.00    +0.265 C 
BRANCH  20  21
ATOM     21  C   UNL     1      -9.002  -3.750   1.783  0.00  0.00    +0.182 C 
BRANCH  21  22
ATOM     22  C   UNL     1      -9.202  -5.174   2.237  0.00  0.00    -0.014 A 
ATOM     23  C   UNL     1      -9.341  -5.455   3.585  0.00  0.00    +0.008 A 
ATOM     24  C   UNL     1      -9.525  -6.756   4.010  0.00  0.00    +0.028 A 
ATOM     25  C   UNL     1      -9.570  -7.785   3.082  0.00  0.00    +0.070 A 
ATOM     26  C   UNL     1      -9.430  -7.502   1.722  0.00  0.00    +0.070 A 
ATOM     27  C   UNL     1      -9.252  -6.191   1.304  0.00  0.00    +0.034 A 
ATOM     28  N   UNL     1      -9.517  -8.717   1.047  0.00  0.00    -0.295 N 
ATOM     29  C   UNL     1      -9.703  -9.694   1.954  0.00  0.00    +0.330 A 
ATOM     30  O   UNL     1      -9.819 -10.877   1.696  0.00  0.00    -0.246 OA
ATOM     31  N   UNL     1      -9.739  -9.163   3.191  0.00  0.00    -0.295 N 
ATOM     32  C   UNL     1      -9.924  -9.909   4.439  0.00  0.00    +0.154 C 
ATOM     33  C   UNL     1      -9.425  -8.900  -0.404  0.00  0.00    +0.154 C 
ENDBRANCH  21  22
BRANCH  21  34
ATOM     34  O   UNL     1      -9.743  -2.872   2.632  0.00  0.00    -0.384 OA
ATOM     35  H   UNL     1      -9.485  -2.913   3.563  0.00  0.00    +0.210 HD
ENDBRANCH  21  34
ENDBRANCH  20  21
ENDBRANCH  19  20
ENDBRANCH   4  19
TORSDOF 9
