REMARK  Name = ZINC17241969
REMARK  7 active torsions:
REMARK  status: ('A' for Active; 'I' for Inactive)
REMARK    1  A    between atoms: C_1  and  C_2
REMARK    2  A    between atoms: C_7  and  O_8
REMARK    3  A    between atoms: O_8  and  C_9
REMARK    4  A    between atoms: C_9  and  C_10
REMARK    5  A    between atoms: N_12  and  N_13
REMARK    6  A    between atoms: C_14  and  C_16
REMARK    7  A    between atoms: C_16  and  C_17
REMARK                            x       y       z     vdW  Elec       q    Type
REMARK                         _______ _______ _______ _____ _____    ______ ____
ROOT
ATOM      1  N   UNL     1       1.885   5.734   0.015  0.00  0.00    -0.234 N 
ATOM      2  C   UNL     1       2.943   6.569   0.009  0.00  0.00    +0.233 C 
ATOM      3  O   UNL     1       4.070   6.121  -0.004  0.00  0.00    -0.274 OA
ATOM      4  H   UNL     1       0.984   6.092   0.025  0.00  0.00    +0.173 HD
ENDROOT
BRANCH   1   7
ATOM      5  C   UNL     1       1.030   3.512   0.011  0.00  0.00    +0.267 C 
ATOM      6  O   UNL     1      -0.097   3.960   0.024  0.00  0.00    -0.271 OA
ATOM      7  N   UNL     1       2.088   4.348   0.005  0.00  0.00    -0.232 N 
ATOM      8  H   UNL     1       2.989   3.989  -0.005  0.00  0.00    +0.173 HD
BRANCH   5   9
ATOM      9  C   UNL     1       1.248   2.021   0.001  0.00  0.00    +0.326 C 
BRANCH   9  10
ATOM     10  O   UNL     1      -0.016   1.355   0.009  0.00  0.00    -0.482 OA
BRANCH  10  17
ATOM     11  C   UNL     1      -2.505   0.019   0.038  0.00  0.00    +0.047 C 
ATOM     12  C   UNL     1      -1.189  -0.715   0.015  0.00  0.00    -0.007 A 
ATOM     13  C   UNL     1      -1.168  -2.096   0.003  0.00  0.00    +0.027 A 
ATOM     14  C   UNL     1       0.040  -2.771  -0.012  0.00  0.00    +0.041 A 
ATOM     15  C   UNL     1       1.229  -2.063  -0.020  0.00  0.00    +0.023 A 
ATOM     16  C   UNL     1       1.212  -0.682  -0.013  0.00  0.00    +0.047 A 
ATOM     17  C   UNL     1       0.002  -0.004   0.002  0.00  0.00    +0.124 A 
ATOM     18 CL   UNL     1       0.063  -4.506  -0.021  0.00  0.00    -0.084 Cl
ENDBRANCH  10  17
ENDBRANCH   9  10
ENDBRANCH   5   9
ENDBRANCH   1   7
BRANCH   2  19
ATOM     19  C   UNL     1       2.725   8.060   0.019  0.00  0.00    +0.134 C 
BRANCH  19  20
ATOM     20  C   UNL     1       4.059   8.763   0.010  0.00  0.00    -0.014 A 
ATOM     21  C   UNL     1       4.729   9.218   1.081  0.00  0.00    +0.087 A 
ATOM     22  N   UNL     1       5.903   9.797   0.685  0.00  0.00    -0.360 N 
ATOM     23  H   UNL     1       6.557  10.196   1.280  0.00  0.00    +0.165 HD
ATOM     24  C   UNL     1       6.017   9.735  -0.686  0.00  0.00    +0.047 A 
ATOM     25  C   UNL     1       4.866   9.085  -1.169  0.00  0.00    +0.003 A 
ATOM     26  C   UNL     1       4.706   8.877  -2.540  0.00  0.00    +0.010 A 
ATOM     27  C   UNL     1       5.670   9.309  -3.408  0.00  0.00    +0.001 A 
ATOM     28  C   UNL     1       6.806   9.951  -2.937  0.00  0.00    +0.002 A 
ATOM     29  C   UNL     1       6.984  10.165  -1.588  0.00  0.00    +0.026 A 
ENDBRANCH  19  20
ENDBRANCH   2  19
TORSDOF 6
