REMARK  Name = ZINC02570312
REMARK  7 active torsions:
REMARK  status: ('A' for Active; 'I' for Inactive)
REMARK    1  A    between atoms: C_1  and  O_2
REMARK    2  A    between atoms: O_2  and  C_3
REMARK    3  A    between atoms: C_6  and  C_9
REMARK    4  A    between atoms: C_11  and  C_31
REMARK    5  A    between atoms: C_12  and  N_30
REMARK    6  A    between atoms: N_13  and  C_21
REMARK    7  A    between atoms: C_25  and  N_27
REMARK                            x       y       z     vdW  Elec       q    Type
REMARK                         _______ _______ _______ _____ _____    ______ ____
ROOT
ATOM      1  C   UNL     1      -0.035   7.952  -0.768  0.00  0.00    +0.097 C 
ATOM      2  C   UNL     1      -1.297   7.217  -0.425  0.00  0.00    +0.077 C 
ATOM      3  C   UNL     1      -1.270   5.909  -0.059  0.00  0.00    +0.107 C 
ATOM      4  N   UNL     1      -0.071   5.236   0.010  0.00  0.00    -0.260 N 
ATOM      5  C   UNL     1       1.109   5.925   0.113  0.00  0.00    +0.024 C 
ATOM      6  C   UNL     1       1.178   7.226  -0.244  0.00  0.00    +0.025 C 
ATOM      7  C   UNL     1       2.381   7.945  -0.131  0.00  0.00    +0.162 C 
ATOM      8  O   UNL     1       2.410   9.113  -0.463  0.00  0.00    -0.292 OA
ATOM      9  C   UNL     1       3.631   7.295   0.410  0.00  0.00    +0.080 C 
ATOM     10  C   UNL     1       3.238   6.167   1.370  0.00  0.00    +0.014 C 
ATOM     11  C   UNL     1       2.325   5.191   0.625  0.00  0.00    +0.052 C 
ENDROOT
BRANCH   1  15
ATOM     12  C   UNL     1       0.270   8.303  -5.016  0.00  0.00    +0.120 A 
ATOM     13  C   UNL     1       0.224   9.443  -4.226  0.00  0.00    +0.046 A 
ATOM     14  C   UNL     1       0.126   9.327  -2.853  0.00  0.00    +0.008 A 
ATOM     15  C   UNL     1       0.072   8.076  -2.266  0.00  0.00    -0.034 A 
ATOM     16  C   UNL     1       0.123   6.939  -3.051  0.00  0.00    +0.008 A 
ATOM     17  C   UNL     1       0.216   7.050  -4.425  0.00  0.00    +0.046 A 
BRANCH  12  19
ATOM     18  C   UNL     1       0.408   7.199  -7.117  0.00  0.00    +0.277 C 
ATOM     19  O   UNL     1       0.366   8.415  -6.367  0.00  0.00    -0.495 OA
ENDBRANCH  12  19
ENDBRANCH   1  15
BRANCH   4  20
ATOM     20  C   UNL     1      -0.058   3.837  -0.020  0.00  0.00    +0.042 A 
ATOM     21  C   UNL     1      -0.205   3.114   1.157  0.00  0.00    +0.024 A 
ATOM     22  C   UNL     1      -0.192   1.733   1.124  0.00  0.00    +0.004 A 
ATOM     23  C   UNL     1      -0.033   1.071  -0.080  0.00  0.00    +0.033 A 
ATOM     24  C   UNL     1       0.119   1.787  -1.252  0.00  0.00    +0.128 A 
ATOM     25  C   UNL     1       0.102   3.168  -1.227  0.00  0.00    +0.056 A 
BRANCH  24  26
ATOM     26  N   UNL     1       0.295   1.074  -2.537  0.00  0.00    +0.056 N 
ATOM     27  O   UNL     1       0.305  -0.144  -2.561  0.00  0.00    -0.126 OA
ATOM     28  O   UNL     1       0.429   1.704  -3.571  0.00  0.00    -0.126 OA
ENDBRANCH  24  26
ENDBRANCH   4  20
BRANCH   3  29
ATOM     29  N   UNL     1      -2.441   5.257   0.244  0.00  0.00    -0.345 N 
ATOM     30  H   UNL     1      -2.417   4.351   0.589  0.00  0.00    +0.144 HD
ATOM     31  H   UNL     1      -3.293   5.702   0.112  0.00  0.00    +0.144 HD
ENDBRANCH   3  29
BRANCH   2  32
ATOM     32  C   UNL     1      -2.551   7.905  -0.484  0.00  0.00    +0.099 C 
ATOM     33  N   UNL     1      -3.546   8.451  -0.531  0.00  0.00    -0.191 NA
ENDBRANCH   2  32
TORSDOF 6
