REMARK  Name = ZINC38790173
REMARK  9 active torsions:
REMARK  status: ('A' for Active; 'I' for Inactive)
REMARK    1  A    between atoms: C_1  and  C_2
REMARK    2  A    between atoms: C_4  and  N_25
REMARK    3  A    between atoms: C_7  and  N_8
REMARK    4  A    between atoms: N_8  and  C_9
REMARK    5  A    between atoms: N_8  and  C_10
REMARK    6  A    between atoms: C_10  and  C_11
REMARK    7  A    between atoms: C_17  and  O_23
REMARK    8  A    between atoms: O_23  and  C_24
REMARK    9  A    between atoms: C_29  and  O_32
REMARK                            x       y       z     vdW  Elec       q    Type
REMARK                         _______ _______ _______ _____ _____    ______ ____
ROOT
ATOM      1  N   UNL     1       0.043  -0.181   2.235  0.00  0.00    -0.332 N 
ATOM      2  C   UNL     1       1.423   0.223   2.517  0.00  0.00    +0.129 C 
ENDROOT
BRANCH   1   9
ATOM      3  C   UNL     1      -0.158   1.272  -0.201  0.00  0.00    +0.046 C 
ATOM      4  C   UNL     1      -0.361  -0.220  -0.146  0.00  0.00    -0.028 A 
ATOM      5  C   UNL     1      -0.648  -0.921  -1.301  0.00  0.00    +0.028 A 
ATOM      6  C   UNL     1      -0.834  -2.296  -1.250  0.00  0.00    +0.030 A 
ATOM      7  C   UNL     1      -0.732  -2.966  -0.038  0.00  0.00    +0.025 A 
ATOM      8  C   UNL     1      -0.446  -2.265   1.116  0.00  0.00    +0.025 A 
ATOM      9  C   UNL     1      -0.254  -0.891   1.065  0.00  0.00    +0.033 A 
BRANCH   6  10
ATOM     10  N   UNL     1      -1.125  -3.006  -2.421  0.00  0.00    -0.327 N 
ATOM     11  C   UNL     1      -1.105  -2.336  -3.728  0.00  0.00    +0.105 C 
ATOM     12  C   UNL     1      -0.183  -3.118  -4.669  0.00  0.00    +0.021 C 
ATOM     13  C   UNL     1      -0.633  -4.580  -4.719  0.00  0.00    +0.034 C 
ATOM     14  C   UNL     1      -0.531  -5.195  -3.322  0.00  0.00    +0.132 C 
ATOM     15  C   UNL     1      -1.451  -4.438  -2.366  0.00  0.00    +0.136 C 
BRANCH  14  16
ATOM     16  O   UNL     1      -0.921  -6.568  -3.375  0.00  0.00    -0.390 OA
ATOM     17  H   UNL     1      -0.378  -7.109  -3.965  0.00  0.00    +0.210 HD
ENDBRANCH  14  16
ENDBRANCH   6  10
ENDBRANCH   1   9
BRANCH   1  18
ATOM     18  C   UNL     1      -1.027   0.158   3.176  0.00  0.00    +0.121 C 
BRANCH  18  19
ATOM     19  C   UNL     1      -1.710   1.452   2.728  0.00  0.00    +0.116 C 
ATOM     20  C   UNL     1      -3.037   1.552   3.453  0.00  0.00    -0.003 C 
ATOM     21  C   UNL     1      -3.249   2.655   4.222  0.00  0.00    -0.007 A 
ATOM     22  C   UNL     1      -4.505   2.826   4.955  0.00  0.00    +0.013 A 
ATOM     23  C   UNL     1      -4.681   3.936   5.710  0.00  0.00    +0.046 A 
ATOM     24  C   UNL     1      -3.684   4.919   5.802  0.00  0.00    +0.122 A 
ATOM     25  C   UNL     1      -2.482   4.814   5.137  0.00  0.00    +0.069 A 
ATOM     26  C   UNL     1      -2.214   3.699   4.332  0.00  0.00    +0.044 A 
ATOM     27  N   UNL     1      -1.046   3.607   3.691  0.00  0.00    -0.284 N 
ATOM     28  C   UNL     1      -0.727   2.585   2.918  0.00  0.00    +0.226 C 
ATOM     29  O   UNL     1       0.354   2.556   2.360  0.00  0.00    -0.275 OA
ATOM     30  H   UNL     1      -0.402   4.325   3.799  0.00  0.00    +0.155 HD
BRANCH  24  31
ATOM     31  O   UNL     1      -3.911   6.010   6.572  0.00  0.00    -0.495 OA
ATOM     32  C   UNL     1      -5.170   6.079   7.245  0.00  0.00    +0.277 C 
ENDBRANCH  24  31
ENDBRANCH  18  19
ENDBRANCH   1  18
TORSDOF 6
