REMARK  Name = ZINC09210303
REMARK  12 active torsions:
REMARK  status: ('A' for Active; 'I' for Inactive)
REMARK    1  A    between atoms: C_1  and  C_2
REMARK    2  A    between atoms: C_2  and  C_3
REMARK    3  A    between atoms: C_3  and  N_4
REMARK    4  A    between atoms: C_14  and  C_25
REMARK    5  A    between atoms: C_15  and  O_24
REMARK    6  A    between atoms: N_18  and  C_19
REMARK    7  A    between atoms: C_19  and  C_20
REMARK    8  A    between atoms: C_20  and  C_21
REMARK    9  A    between atoms: C_21  and  N_68
REMARK   10  A    between atoms: C_22  and  N_68
REMARK   11  A    between atoms: C_23  and  N_68
REMARK   12  A    between atoms: C_25  and  C_27
REMARK                            x       y       z     vdW  Elec       q    Type
REMARK                         _______ _______ _______ _____ _____    ______ ____
ROOT
ATOM      1  N   UNL     1      -3.027   3.326   0.930  0.00  0.00    -0.269 N 
ATOM      2  C   UNL     1      -3.086   3.263  -0.463  0.00  0.00    +0.042 A 
ATOM      3  C   UNL     1      -3.252   2.177  -1.319  0.00  0.00    +0.024 A 
ATOM      4  C   UNL     1      -3.279   2.368  -2.685  0.00  0.00    +0.002 A 
ATOM      5  C   UNL     1      -3.143   3.638  -3.216  0.00  0.00    +0.000 A 
ATOM      6  C   UNL     1      -2.978   4.722  -2.372  0.00  0.00    +0.008 A 
ATOM      7  C   UNL     1      -2.949   4.536  -1.008  0.00  0.00    +0.011 A 
ATOM      8  C   UNL     1      -2.789   5.473   0.159  0.00  0.00    +0.174 C 
ATOM      9  C   UNL     1      -2.856   4.585   1.375  0.00  0.00    +0.253 C 
ATOM     10  O   UNL     1      -2.771   4.937   2.533  0.00  0.00    -0.272 OA
ATOM     11  C   UNL     1      -1.478   6.207   0.094  0.00  0.00    +0.083 C 
ATOM     12  C   UNL     1      -1.778   7.529   0.075  0.00  0.00    +0.189 C 
ATOM     13  C   UNL     1      -3.247   7.693   0.132  0.00  0.00    +0.283 C 
ATOM     14  O   UNL     1      -3.830   8.759   0.130  0.00  0.00    -0.267 OA
ATOM     15  N   UNL     1      -3.842   6.485   0.184  0.00  0.00    -0.273 N 
ENDROOT
BRANCH  12  16
ATOM     16  O   UNL     1      -0.878   8.537   0.015  0.00  0.00    -0.502 OA
ATOM     17  H   UNL     1      -1.359   9.414   0.014  0.00  0.00    +0.292 HD
ENDBRANCH  12  16
BRANCH  11  18
ATOM     18  C   UNL     1      -0.139   5.611   0.053  0.00  0.00    +0.196 C 
ATOM     19  O   UNL     1       0.273   5.110  -0.977  0.00  0.00    -0.287 OA
BRANCH  18  20
ATOM     20  C   UNL     1       0.710   5.617   1.261  0.00  0.00    +0.026 A 
ATOM     21  C   UNL     1       0.289   6.294   2.409  0.00  0.00    +0.015 A 
ATOM     22  C   UNL     1       1.085   6.303   3.532  0.00  0.00    +0.050 A 
ATOM     23  C   UNL     1       2.304   5.634   3.533  0.00  0.00    +0.162 A 
ATOM     24  C   UNL     1       2.728   4.956   2.392  0.00  0.00    +0.163 A 
ATOM     25  C   UNL     1       1.936   4.947   1.260  0.00  0.00    +0.061 A 
ATOM     26  O   UNL     1       3.919   4.295   2.377  0.00  0.00    -0.485 OA
ATOM     27  C   UNL     1       4.856   4.637   3.404  0.00  0.00    +0.270 C 
ATOM     28  C   UNL     1       4.109   4.672   4.744  0.00  0.00    +0.270 C 
ATOM     29  O   UNL     1       3.073   5.656   4.654  0.00  0.00    -0.485 OA
ENDBRANCH  18  20
ENDBRANCH  11  18
BRANCH   1  30
ATOM     30  C   UNL     1      -3.139   2.158   1.807  0.00  0.00    +0.113 C 
BRANCH  30  32
ATOM     31  C   UNL     1      -4.734   0.635   2.982  0.00  0.00    +0.005 C 
ATOM     32  C   UNL     1      -4.617   1.855   2.067  0.00  0.00    +0.016 C 
ENDBRANCH  30  32
ENDBRANCH   1  30
BRANCH  15  33
ATOM     33  C   UNL     1      -5.284   6.232   0.248  0.00  0.00    +0.108 C 
BRANCH  33  34
ATOM     34  C   UNL     1      -5.844   6.111  -1.170  0.00  0.00    +0.000 C 
BRANCH  34  35
ATOM     35  C   UNL     1      -7.350   5.847  -1.103  0.00  0.00    -0.078 C 
BRANCH  35  38
ATOM     36  C   UNL     1      -7.354   4.541  -3.142  0.00  0.00    -0.097 C 
ATOM     37  C   UNL     1      -9.356   5.715  -2.452  0.00  0.00    -0.097 C 
ATOM     38  N   UNL     1      -7.879   5.754  -2.480  0.00  0.00    +0.376 N 
ATOM     39  H   UNL     1      -7.577   6.580  -3.010  0.00  0.00    -0.083 HD
ENDBRANCH  35  38
ENDBRANCH  34  35
ENDBRANCH  33  34
ENDBRANCH  15  33
TORSDOF 9
