REMARK  Name = ZINC58845815
REMARK  6 active torsions:
REMARK  status: ('A' for Active; 'I' for Inactive)
REMARK    1  A    between atoms: C_1  and  C_2
REMARK    2  A    between atoms: C_6  and  N_8
REMARK    3  A    between atoms: N_8  and  S_9
REMARK    4  A    between atoms: S_9  and  C_12
REMARK    5  A    between atoms: C_25  and  C_28
REMARK    6  A    between atoms: C_30  and  N_35
REMARK                            x       y       z     vdW  Elec       q    Type
REMARK                         _______ _______ _______ _____ _____    ______ ____
ROOT
ATOM      1  C   UNL     1       3.005  -3.511   1.744  0.00  0.00    +0.109 A 
ATOM      2  C   UNL     1       3.811  -3.264   0.647  0.00  0.00    +0.030 A 
ATOM      3  C   UNL     1       5.063  -2.714   0.827  0.00  0.00    +0.025 A 
ATOM      4  C   UNL     1       5.514  -2.405   2.106  0.00  0.00    +0.031 A 
ATOM      5  C   UNL     1       4.703  -2.639   3.206  0.00  0.00    -0.018 A 
ATOM      6  C   UNL     1       3.446  -3.196   3.014  0.00  0.00    +0.034 A 
ATOM      7  C   UNL     1       5.135  -2.285   4.588  0.00  0.00    +0.049 C 
ATOM      8  C   UNL     1       5.553  -3.498   5.380  0.00  0.00    -0.023 C 
ATOM      9  C   UNL     1       6.556  -3.200   6.168  0.00  0.00    -0.030 C 
ATOM     10  C   UNL     1       6.955  -1.750   6.010  0.00  0.00    +0.033 C 
ATOM     11  C   UNL     1       6.332  -1.340   4.655  0.00  0.00    +0.029 C 
ATOM     12  C   UNL     1       7.361  -1.580   3.570  0.00  0.00    +0.106 C 
ATOM     13  N   UNL     1       6.785  -1.869   2.273  0.00  0.00    -0.336 N 
ATOM     14  H   UNL     1       7.321  -1.701   1.482  0.00  0.00    +0.147 HD
ENDROOT
BRANCH  12  15
ATOM     15  C   UNL     1       8.249  -2.721   3.996  0.00  0.00    -0.007 A 
ATOM     16  C   UNL     1       7.864  -4.026   3.749  0.00  0.00    +0.039 A 
ATOM     17  C   UNL     1       8.678  -5.072   4.140  0.00  0.00    +0.127 A 
ATOM     18  C   UNL     1       9.877  -4.815   4.778  0.00  0.00    +0.034 A 
ATOM     19  C   UNL     1      10.263  -3.511   5.025  0.00  0.00    +0.022 A 
ATOM     20  C   UNL     1       9.451  -2.463   4.628  0.00  0.00    +0.046 A 
ATOM     21 CL   UNL     1       9.939  -0.824   4.931  0.00  0.00    -0.083 Cl
BRANCH  17  22
ATOM     22  N   UNL     1       8.265  -6.469   3.876  0.00  0.00    +0.056 N 
ATOM     23  O   UNL     1       7.216  -6.694   3.319  0.00  0.00    -0.126 OA
ATOM     24  O   UNL     1       8.977  -7.384   4.218  0.00  0.00    -0.126 OA
ENDBRANCH  17  22
ENDBRANCH  12  15
BRANCH   1  25
ATOM     25  S   UNL     1       1.409  -4.221   1.520  0.00  0.00    +0.072 S 
ATOM     26  O   UNL     1       1.068  -4.851   2.748  0.00  0.00    -0.150 OA
ATOM     27  O   UNL     1       1.448  -4.928   0.287  0.00  0.00    -0.150 OA
BRANCH  25  28
ATOM     28  N   UNL     1       0.341  -2.972   1.316  0.00  0.00    -0.216 N 
ATOM     29  H   UNL     1      -0.354  -2.816   1.974  0.00  0.00    +0.174 HD
BRANCH  28  35
ATOM     30  C   UNL     1       0.338   1.546  -0.618  0.00  0.00    +0.044 C 
ATOM     31  C   UNL     1       0.443   0.050  -0.772  0.00  0.00    -0.049 A 
ATOM     32  C   UNL     1       0.638  -0.504  -2.024  0.00  0.00    +0.003 A 
ATOM     33  C   UNL     1       0.734  -1.875  -2.169  0.00  0.00    +0.002 A 
ATOM     34  C   UNL     1       0.636  -2.697  -1.063  0.00  0.00    +0.024 A 
ATOM     35  C   UNL     1       0.441  -2.144   0.196  0.00  0.00    +0.048 A 
ATOM     36  C   UNL     1       0.349  -0.765   0.339  0.00  0.00    +0.027 A 
ENDBRANCH  28  35
ENDBRANCH  25  28
ENDBRANCH   1  25
TORSDOF 5
