REMARK  Name = ZINC27100020
REMARK  10 active torsions:
REMARK  status: ('A' for Active; 'I' for Inactive)
REMARK    1  A    between atoms: C_1  and  C_2
REMARK    2  A    between atoms: C_2  and  O_3
REMARK    3  A    between atoms: O_3  and  C_4
REMARK    4  A    between atoms: C_4  and  C_6
REMARK    5  A    between atoms: C_9  and  O_12
REMARK    6  A    between atoms: O_12  and  C_13
REMARK    7  A    between atoms: C_22  and  O_37
REMARK    8  A    between atoms: C_23  and  C_24
REMARK    9  A    between atoms: C_24  and  N_25
REMARK   10  A    between atoms: C_28  and  N_31
REMARK                            x       y       z     vdW  Elec       q    Type
REMARK                         _______ _______ _______ _____ _____    ______ ____
ROOT
ATOM      1  C   UNL     1       2.342   4.101   0.106  0.00  0.00    +0.210 A 
ATOM      2  C   UNL     1       3.502   3.414   0.090  0.00  0.00    +0.245 A 
ATOM      3  O   UNL     1       4.697   4.010   0.182  0.00  0.00    -0.459 OA
ATOM      4  C   UNL     1       4.832   5.347   0.298  0.00  0.00    +0.143 A 
ATOM      5  C   UNL     1       3.688   6.164   0.324  0.00  0.00    +0.068 A 
ATOM      6  C   UNL     1       2.367   5.520   0.219  0.00  0.00    +0.235 A 
ATOM      7  O   UNL     1       1.338   6.175   0.232  0.00  0.00    -0.283 OA
ATOM      8  C   UNL     1       3.814   7.548   0.443  0.00  0.00    +0.019 A 
ATOM      9  C   UNL     1       5.056   8.110   0.534  0.00  0.00    +0.046 A 
ATOM     10  C   UNL     1       6.195   7.308   0.508  0.00  0.00    +0.122 A 
ATOM     11  C   UNL     1       6.087   5.932   0.391  0.00  0.00    +0.020 A 
ENDROOT
BRANCH  10  12
ATOM     12  O   UNL     1       7.423   7.880   0.599  0.00  0.00    -0.506 OA
ATOM     13  H   UNL     1       8.326   7.252   0.578  0.00  0.00    +0.292 HD
ENDBRANCH  10  12
BRANCH   1  14
ATOM     14  O   UNL     1       1.154   3.442   0.009  0.00  0.00    -0.449 OA
BRANCH  14  18
ATOM     15  C   UNL     1       1.216  -0.684   0.067  0.00  0.00    +0.059 A 
ATOM     16  C   UNL     1       1.567   0.038   1.211  0.00  0.00    +0.018 A 
ATOM     17  C   UNL     1       1.546   1.414   1.188  0.00  0.00    +0.047 A 
ATOM     18  C   UNL     1       1.175   2.086   0.028  0.00  0.00    +0.129 A 
ATOM     19  C   UNL     1       0.824   1.371  -1.112  0.00  0.00    +0.047 A 
ATOM     20  C   UNL     1       0.844  -0.005  -1.097  0.00  0.00    +0.018 A 
BRANCH  15  21
ATOM     21  C   UNL     1       1.238  -2.159   0.087  0.00  0.00    +0.339 C 
ATOM     22  O   UNL     1       1.562  -2.747   1.099  0.00  0.00    -0.245 OA
BRANCH  21  23
ATOM     23  O   UNL     1       0.899  -2.853  -1.017  0.00  0.00    -0.461 OA
BRANCH  23  25
ATOM     24  C   UNL     1       0.529  -4.911  -2.265  0.00  0.00    +0.048 C 
ATOM     25  C   UNL     1       0.944  -4.301  -0.924  0.00  0.00    +0.229 C 
ENDBRANCH  23  25
ENDBRANCH  21  23
ENDBRANCH  15  21
ENDBRANCH  14  18
ENDBRANCH   1  14
BRANCH  11  26
ATOM     26  C   UNL     1       7.325   5.075   0.364  0.00  0.00    -0.036 C 
BRANCH  26  27
ATOM     27  N   UNL     1       7.777   4.910  -1.024  0.00  0.00    +0.383 N 
ATOM     28  C   UNL     1       7.768   6.193  -1.737  0.00  0.00    -0.077 C 
ATOM     29  C   UNL     1       8.102   5.961  -3.212  0.00  0.00    +0.000 C 
ATOM     30  C   UNL     1       9.482   5.306  -3.320  0.00  0.00    +0.053 C 
ATOM     31  C   UNL     1       9.479   3.995  -2.529  0.00  0.00    +0.000 C 
ATOM     32  C   UNL     1       9.105   4.284  -1.074  0.00  0.00    -0.077 C 
ATOM     33  H   UNL     1       7.071   4.238  -1.533  0.00  0.00    -0.081 HD
BRANCH  30  34
ATOM     34  N   UNL     1       9.784   5.028  -4.731  0.00  0.00    -0.300 NA
ATOM     35  C   UNL     1      11.053   4.302  -4.864  0.00  0.00    +0.084 C 
ATOM     36  C   UNL     1      11.263   3.902  -6.327  0.00  0.00    +0.015 C 
ATOM     37  C   UNL     1      11.280   5.162  -7.197  0.00  0.00    +0.002 C 
ATOM     38  C   UNL     1       9.966   5.925  -7.003  0.00  0.00    +0.015 C 
ATOM     39  C   UNL     1       9.794   6.266  -5.521  0.00  0.00    +0.084 C 
ENDBRANCH  30  34
ENDBRANCH  26  27
ENDBRANCH  11  26
TORSDOF 9
