REMARK  Name = ZINC12139929
REMARK  6 active torsions:
REMARK  status: ('A' for Active; 'I' for Inactive)
REMARK    1  A    between atoms: C_1  and  N_2
REMARK    2  A    between atoms: C_6  and  C_23
REMARK    3  A    between atoms: C_8  and  C_16
REMARK    4  A    between atoms: C_10  and  C_11
REMARK    5  A    between atoms: C_10  and  O_15
REMARK    6  A    between atoms: C_16  and  C_18
REMARK                            x       y       z     vdW  Elec       q    Type
REMARK                         _______ _______ _______ _____ _____    ______ ____
ROOT
ATOM      1  C   UNL     1       5.372   6.348  -0.662  0.00  0.00    +0.137 C 
ATOM      2  N   UNL     1       4.094   6.270   0.051  0.00  0.00    -0.253 N 
ATOM      3  C   UNL     1       4.094   6.083   1.379  0.00  0.00    +0.305 C 
ATOM      4  O   UNL     1       5.160   5.995   1.957  0.00  0.00    -0.253 OA
ATOM      5  N   UNL     1       2.963   5.990   2.096  0.00  0.00    -0.292 N 
ATOM      6  C   UNL     1       1.649   6.102   1.462  0.00  0.00    +0.120 C 
ATOM      7  C   UNL     1       1.745   5.606   0.015  0.00  0.00    +0.145 C 
ATOM      8  C   UNL     1       2.842   6.397  -0.704  0.00  0.00    +0.245 C 
ATOM      9  H   UNL     1       3.018   5.846   3.054  0.00  0.00    +0.151 HD
ENDROOT
BRANCH   6  10
ATOM     10  C   UNL     1       0.652   5.261   2.217  0.00  0.00    -0.026 A 
ATOM     11  C   UNL     1       1.021   4.019   2.699  0.00  0.00    +0.007 A 
ATOM     12  C   UNL     1       0.109   3.250   3.397  0.00  0.00    +0.020 A 
ATOM     13  C   UNL     1      -1.177   3.719   3.603  0.00  0.00    +0.041 A 
ATOM     14  C   UNL     1      -1.546   4.960   3.116  0.00  0.00    +0.020 A 
ATOM     15  C   UNL     1      -0.632   5.730   2.423  0.00  0.00    +0.007 A 
ATOM     16 CL   UNL     1      -2.325   2.750   4.473  0.00  0.00    -0.084 Cl
ENDBRANCH   6  10
BRANCH   8  17
ATOM     17  C   UNL     1       2.442   7.872  -0.783  0.00  0.00    +0.436 C 
ATOM     18  F   UNL     1       2.273   8.379   0.509  0.00  0.00    -0.166 F 
ATOM     19  F   UNL     1       3.444   8.593  -1.440  0.00  0.00    -0.166 F 
ATOM     20  F   UNL     1       1.241   7.992  -1.492  0.00  0.00    -0.166 F 
ENDBRANCH   8  17
BRANCH   8  21
ATOM     21  O   UNL     1       3.019   5.878  -2.024  0.00  0.00    -0.364 OA
ATOM     22  H   UNL     1       3.700   6.333  -2.538  0.00  0.00    +0.212 HD
ENDBRANCH   8  21
BRANCH   7  23
ATOM     23  C   UNL     1       2.089   4.139   0.004  0.00  0.00    +0.180 C 
ATOM     24  O   UNL     1       3.252   3.788  -0.007  0.00  0.00    -0.291 OA
BRANCH  23  25
ATOM     25  C   UNL     1       1.060   3.172   0.009  0.00  0.00    +0.055 A 
ATOM     26  C   UNL     1       1.160   1.784   0.001  0.00  0.00    +0.019 A 
ATOM     27  C   UNL     1      -0.013   1.076   0.008  0.00  0.00    +0.008 A 
ATOM     28  C   UNL     1      -1.196   1.748   0.017  0.00  0.00    +0.046 A 
ATOM     29  S   UNL     1      -0.708   3.411   0.026  0.00  0.00    -0.094 S 
ENDBRANCH  23  25
ENDBRANCH   7  23
TORSDOF 5
