REMARK  Name = ZINC66402559
REMARK  6 active torsions:
REMARK  status: ('A' for Active; 'I' for Inactive)
REMARK    1  A    between atoms: C_1  and  C_2
REMARK    2  A    between atoms: C_2  and  C_4
REMARK    3  A    between atoms: C_2  and  N_21
REMARK    4  A    between atoms: C_4  and  N_5
REMARK    5  A    between atoms: N_8  and  C_9
REMARK    6  A    between atoms: C_11  and  C_17
REMARK                            x       y       z     vdW  Elec       q    Type
REMARK                         _______ _______ _______ _____ _____    ______ ____
ROOT
ATOM      1  N   UNL     1      -0.959  -1.874  -0.667  0.00  0.00    -0.301 N 
ATOM      2  C   UNL     1      -2.046  -2.636  -0.900  0.00  0.00    +0.304 C 
ATOM      3  O   UNL     1      -3.088  -2.117  -1.253  0.00  0.00    -0.253 OA
ATOM      4  N   UNL     1      -1.978  -3.973  -0.743  0.00  0.00    -0.265 N 
ATOM      5  H   UNL     1      -0.128  -2.288  -0.386  0.00  0.00    +0.150 HD
ATOM      6  H   UNL     1      -1.171  -4.380  -0.392  0.00  0.00    +0.157 HD
ENDROOT
BRANCH   4   7
ATOM      7  C   UNL     1      -3.075  -4.776  -1.088  0.00  0.00    +0.100 A 
ATOM      8  C   UNL     1      -2.946  -5.753  -2.036  0.00  0.00    +0.042 A 
ATOM      9  C   UNL     1      -4.058  -6.542  -2.362  0.00  0.00    +0.073 A 
ATOM     10  C   UNL     1      -5.242  -6.333  -1.742  0.00  0.00    +0.098 A 
ATOM     11  N   UNL     1      -5.372  -5.361  -0.799  0.00  0.00    -0.327 N 
ATOM     12  H   UNL     1      -6.229  -5.226  -0.365  0.00  0.00    +0.168 HD
ATOM     13  C   UNL     1      -4.324  -4.588  -0.457  0.00  0.00    +0.270 A 
ATOM     14  O   UNL     1      -4.454  -3.724   0.395  0.00  0.00    -0.266 OA
BRANCH   9  15
ATOM     15  C   UNL     1      -3.935  -7.624  -3.404  0.00  0.00    +0.419 C 
ATOM     16  F   UNL     1      -5.168  -8.269  -3.554  0.00  0.00    -0.166 F 
ATOM     17  F   UNL     1      -3.556  -7.054  -4.624  0.00  0.00    -0.166 F 
ATOM     18  F   UNL     1      -2.969  -8.552  -3.002  0.00  0.00    -0.166 F 
ENDBRANCH   9  15
ENDBRANCH   4   7
BRANCH   1  19
ATOM     19  C   UNL     1      -1.033  -0.421  -0.838  0.00  0.00    +0.090 C 
BRANCH  19  21
ATOM     20  C   UNL     1       0.181   1.736  -0.494  0.00  0.00    -0.012 C 
ATOM     21  C   UNL     1       0.283   0.213  -0.383  0.00  0.00    -0.054 C 
BRANCH  21  22
ATOM     22  N   UNL     1       0.549  -0.159   1.014  0.00  0.00    +0.385 N 
ATOM     23  C   UNL     1      -0.459   0.459   1.888  0.00  0.00    -0.073 C 
ATOM     24  C   UNL     1      -0.357  -0.176   3.275  0.00  0.00    +0.017 C 
ATOM     25  C   UNL     1       1.074  -0.140   3.748  0.00  0.00    -0.048 A 
ATOM     26  C   UNL     1       1.335  -0.342   5.095  0.00  0.00    +0.004 A 
ATOM     27  C   UNL     1       2.633  -0.319   5.564  0.00  0.00    +0.000 A 
ATOM     28  C   UNL     1       3.677  -0.094   4.686  0.00  0.00    +0.000 A 
ATOM     29  C   UNL     1       3.419   0.108   3.346  0.00  0.00    +0.002 A 
ATOM     30  C   UNL     1       2.115   0.087   2.873  0.00  0.00    -0.061 A 
ATOM     31  C   UNL     1       1.878   0.321   1.404  0.00  0.00    -0.042 C 
ATOM     32  H   UNL     1       0.511  -1.162   1.109  0.00  0.00    -0.081 HD
ENDBRANCH  21  22
ENDBRANCH  19  21
ENDBRANCH   1  19
TORSDOF 5
