REMARK  Name = ZINC39527144
REMARK  6 active torsions:
REMARK  status: ('A' for Active; 'I' for Inactive)
REMARK    1  A    between atoms: C_4  and  O_7
REMARK    2  A    between atoms: O_7  and  S_8
REMARK    3  A    between atoms: S_8  and  N_11
REMARK    4  A    between atoms: C_12  and  O_31
REMARK    5  A    between atoms: C_21  and  C_24
REMARK    6  A    between atoms: C_29  and  O_30
REMARK                            x       y       z     vdW  Elec       q    Type
REMARK                         _______ _______ _______ _____ _____    ______ ____
ROOT
ATOM      1  N   UNL     1       3.561  -2.117   2.210  0.00  0.00    -0.114 NA
ATOM      2  C   UNL     1       2.167  -2.040   2.667  0.00  0.00    +0.209 C 
ATOM      3  C   UNL     1       1.311  -2.965   1.795  0.00  0.00    +0.049 C 
ATOM      4  C   UNL     1       1.903  -4.376   1.820  0.00  0.00    +0.006 C 
ATOM      5  C   UNL     1       3.321  -4.347   1.245  0.00  0.00    +0.024 C 
ATOM      6  C   UNL     1       4.197  -3.436   2.102  0.00  0.00    +0.049 C 
ATOM      7  C   UNL     1       5.572  -3.288   1.451  0.00  0.00    +0.024 C 
ATOM      8  C   UNL     1       6.448  -2.375   2.312  0.00  0.00    +0.002 C 
ATOM      9  C   UNL     1       6.603  -2.985   3.707  0.00  0.00    +0.008 C 
ATOM     10  C   UNL     1       5.226  -3.130   4.357  0.00  0.00    +0.024 C 
ATOM     11  C   UNL     1       4.350  -4.043   3.497  0.00  0.00    +0.032 C 
ENDROOT
BRANCH  10  12
ATOM     12  C   UNL     1       5.380  -3.729   5.731  0.00  0.00    -0.003 A 
ATOM     13  C   UNL     1       5.957  -4.975   5.881  0.00  0.00    +0.007 A 
ATOM     14  C   UNL     1       6.098  -5.525   7.141  0.00  0.00    +0.001 A 
ATOM     15  C   UNL     1       5.662  -4.831   8.255  0.00  0.00    +0.004 A 
ATOM     16  C   UNL     1       5.084  -3.584   8.110  0.00  0.00    +0.046 A 
ATOM     17  C   UNL     1       4.946  -3.027   6.846  0.00  0.00    +0.120 A 
BRANCH  17  18
ATOM     18  O   UNL     1       4.383  -1.799   6.702  0.00  0.00    -0.506 OA
ATOM     19  H   UNL     1       3.423  -1.818   6.585  0.00  0.00    +0.292 HD
ENDBRANCH  17  18
ENDBRANCH  10  12
BRANCH   1  20
ATOM     20  S   UNL     1       4.398  -0.743   1.817  0.00  0.00    +0.197 S 
ATOM     21  O   UNL     1       5.253  -1.083   0.735  0.00  0.00    -0.119 OA
ATOM     22  O   UNL     1       4.889  -0.204   3.037  0.00  0.00    -0.119 OA
BRANCH  20  23
ATOM     23  O   UNL     1       3.388   0.259   1.275  0.00  0.00    -0.333 OA
BRANCH  23  27
ATOM     24  C   UNL     1       4.931   4.036   0.667  0.00  0.00    +0.000 A 
ATOM     25  C   UNL     1       5.652   2.925   0.272  0.00  0.00    +0.004 A 
ATOM     26  C   UNL     1       5.138   1.659   0.474  0.00  0.00    +0.048 A 
ATOM     27  C   UNL     1       3.897   1.503   1.075  0.00  0.00    +0.158 A 
ATOM     28  C   UNL     1       3.176   2.620   1.471  0.00  0.00    +0.048 A 
ATOM     29  C   UNL     1       3.695   3.884   1.266  0.00  0.00    +0.004 A 
ENDBRANCH  23  27
ENDBRANCH  20  23
ENDBRANCH   1  20
BRANCH   2  30
ATOM     30  O   UNL     1       1.697  -0.696   2.549  0.00  0.00    -0.376 OA
ATOM     31  H   UNL     1       0.816  -0.553   2.920  0.00  0.00    +0.212 HD
ENDBRANCH   2  30
TORSDOF 6
