REMARK  Name = ZINC39674321
REMARK  10 active torsions:
REMARK  status: ('A' for Active; 'I' for Inactive)
REMARK    1  A    between atoms: C_1  and  C_2
REMARK    2  A    between atoms: C_4  and  C_9
REMARK    3  A    between atoms: C_5  and  C_8
REMARK    4  A    between atoms: C_9  and  C_11
REMARK    5  A    between atoms: C_9  and  N_12
REMARK    6  A    between atoms: C_13  and  C_15
REMARK    7  A    between atoms: C_26  and  C_28
REMARK    8  A    between atoms: C_28  and  C_30
REMARK    9  A    between atoms: C_28  and  O_31
REMARK   10  A    between atoms: O_31  and  C_32
REMARK                            x       y       z     vdW  Elec       q    Type
REMARK                         _______ _______ _______ _____ _____    ______ ____
ROOT
ATOM      1  C   UNL     1      -2.472  -1.456  -5.801  0.00  0.00    +0.100 C 
ATOM      2  C   UNL     1      -3.135  -2.802  -5.430  0.00  0.00    +0.121 C 
ATOM      3  N   UNL     1      -3.617  -3.349  -6.720  0.00  0.00    -0.297 N 
ATOM      4  C   UNL     1      -2.543  -3.017  -7.686  0.00  0.00    +0.115 C 
ATOM      5  C   UNL     1      -2.085  -1.602  -7.282  0.00  0.00    -0.004 C 
ATOM      6  C   UNL     1      -0.574  -1.470  -7.448  0.00  0.00    -0.010 C 
ATOM      7  C   UNL     1      -0.219  -1.559  -8.935  0.00  0.00    -0.082 C 
ATOM      8  N   UNL     1      -0.907  -0.491  -9.670  0.00  0.00    +0.379 N 
ATOM      9  C   UNL     1      -2.360  -0.679  -9.582  0.00  0.00    -0.082 C 
ATOM     10  C   UNL     1      -2.806  -0.552  -8.122  0.00  0.00    -0.010 C 
ATOM     11  C   UNL     1      -4.771  -4.002  -6.960  0.00  0.00    +0.256 C 
ATOM     12  O   UNL     1      -5.593  -4.128  -6.076  0.00  0.00    -0.272 OA
ATOM     13  H   UNL     1      -0.660   0.402  -9.271  0.00  0.00    -0.086 HD
ATOM     14  H   UNL     1      -0.624  -0.515 -10.638  0.00  0.00    -0.086 HD
ENDROOT
BRANCH   1  16
ATOM     15  N   UNL     1      -0.804   0.029  -4.738  0.00  0.00    -0.309 N 
ATOM     16  C   UNL     1      -1.245  -1.225  -4.957  0.00  0.00    +0.219 C 
ATOM     17  O   UNL     1      -0.654  -2.169  -4.476  0.00  0.00    -0.275 OA
ATOM     18  H   UNL     1      -1.276   0.784  -5.123  0.00  0.00    +0.149 HD
BRANCH  15  19
ATOM     19  C   UNL     1       0.390   0.253  -3.918  0.00  0.00    +0.100 C 
ATOM     20  C   UNL     1       1.640   0.123  -4.791  0.00  0.00    +0.033 C 
BRANCH  19  23
ATOM     21  C   UNL     1       1.286   3.210  -5.027  0.00  0.00    +0.039 C 
ATOM     22  C   UNL     1       0.143   2.959  -4.040  0.00  0.00    +0.154 C 
ATOM     23  C   UNL     1       0.336   1.636  -3.321  0.00  0.00    -0.001 C 
ATOM     24  C   UNL     1       0.446   1.981  -2.036  0.00  0.00    +0.063 C 
ATOM     25  N   UNL     1       0.347   3.321  -1.889  0.00  0.00    -0.159 NA
ATOM     26  N   UNL     1       0.176   3.943  -2.945  0.00  0.00    -0.180 NA
ATOM     27  C   UNL     1       0.653   1.009  -0.903  0.00  0.00    +0.067 C 
ENDBRANCH  19  23
ENDBRANCH  15  19
ENDBRANCH   1  16
BRANCH  11  28
ATOM     28  C   UNL     1      -5.042  -4.577  -8.326  0.00  0.00    +0.256 C 
ATOM     29  C   UNL     1      -4.071  -5.728  -8.597  0.00  0.00    +0.062 C 
BRANCH  28  30
ATOM     30  O   UNL     1      -6.385  -5.063  -8.382  0.00  0.00    -0.480 OA
BRANCH  30  31
ATOM     31  C   UNL     1      -6.963  -5.139  -9.609  0.00  0.00    +0.122 A 
ATOM     32  C   UNL     1      -8.294  -5.514  -9.728  0.00  0.00    +0.045 A 
ATOM     33  C   UNL     1      -8.880  -5.590 -10.977  0.00  0.00    +0.004 A 
ATOM     34  C   UNL     1      -8.141  -5.294 -12.107  0.00  0.00    +0.000 A 
ATOM     35  C   UNL     1      -6.814  -4.922 -11.992  0.00  0.00    +0.004 A 
ATOM     36  C   UNL     1      -6.226  -4.838 -10.745  0.00  0.00    +0.045 A 
ENDBRANCH  30  31
ENDBRANCH  28  30
ENDBRANCH  11  28
TORSDOF 6
