REMARK  Name = ZINC08437184
REMARK  7 active torsions:
REMARK  status: ('A' for Active; 'I' for Inactive)
REMARK    1  A    between atoms: C_3  and  C_15
REMARK    2  A    between atoms: C_5  and  O_7
REMARK    3  A    between atoms: O_7  and  C_8
REMARK    4  A    between atoms: C_8  and  C_10
REMARK    5  A    between atoms: C_18  and  C_29
REMARK    6  A    between atoms: C_24  and  N_28
REMARK    7  A    between atoms: C_25  and  C_26
REMARK                            x       y       z     vdW  Elec       q    Type
REMARK                         _______ _______ _______ _____ _____    ______ ____
ROOT
ATOM      1  C   UNL     1       3.705   2.165  -0.246  0.00  0.00    +0.102 C 
ATOM      2  C   UNL     1       3.667   3.045  -1.469  0.00  0.00    +0.054 A 
ATOM      3  C   UNL     1       3.742   2.687  -2.818  0.00  0.00    +0.100 A 
ATOM      4  N   UNL     1       3.666   3.792  -3.536  0.00  0.00    -0.171 NA
ATOM      5  N   UNL     1       3.541   4.881  -2.659  0.00  0.00    -0.246 N 
ATOM      6  H   UNL     1       3.465   5.813  -2.914  0.00  0.00    +0.192 HD
ATOM      7  C   UNL     1       3.544   4.402  -1.397  0.00  0.00    +0.223 A 
ATOM      8  O   UNL     1       3.450   5.068  -0.219  0.00  0.00    -0.423 OA
ATOM      9  C   UNL     1       3.754   4.391   0.907  0.00  0.00    +0.200 C 
ATOM     10  C   UNL     1       3.889   3.046   0.964  0.00  0.00    +0.098 C 
ENDROOT
BRANCH   3  11
ATOM     11  C   UNL     1       3.882   1.309  -3.350  0.00  0.00    +0.006 A 
ATOM     12  C   UNL     1       4.635   0.366  -2.654  0.00  0.00    +0.014 A 
ATOM     13  C   UNL     1       4.765  -0.916  -3.149  0.00  0.00    +0.050 A 
ATOM     14  C   UNL     1       4.148  -1.269  -4.339  0.00  0.00    +0.166 A 
ATOM     15  C   UNL     1       3.394  -0.330  -5.040  0.00  0.00    +0.167 A 
ATOM     16  C   UNL     1       3.257   0.955  -4.544  0.00  0.00    +0.059 A 
ATOM     17  O   UNL     1       2.898  -0.921  -6.166  0.00  0.00    -0.453 OA
ATOM     18  C   UNL     1       3.689  -2.108  -6.357  0.00  0.00    +0.466 C 
ATOM     19  O   UNL     1       4.123  -2.448  -5.027  0.00  0.00    -0.453 OA
ENDBRANCH   3  11
BRANCH   1  22
ATOM     20  C   UNL     1       0.024   1.390   0.090  0.00  0.00    +0.004 A 
ATOM     21  C   UNL     1       1.214   2.086  -0.018  0.00  0.00    +0.005 A 
ATOM     22  C   UNL     1       2.410   1.403  -0.128  0.00  0.00    -0.031 A 
ATOM     23  C   UNL     1       2.420   0.021  -0.129  0.00  0.00    +0.051 A 
ATOM     24  C   UNL     1       1.228  -0.680  -0.020  0.00  0.00    +0.132 A 
ATOM     25  C   UNL     1       0.028   0.009   0.089  0.00  0.00    +0.046 A 
BRANCH  24  26
ATOM     26  O   UNL     1       1.235  -2.039  -0.021  0.00  0.00    -0.422 OA
BRANCH  26  27
ATOM     27  C   UNL     1       1.758  -2.670   1.051  0.00  0.00    +0.351 C 
ATOM     28  O   UNL     1       2.110  -2.029   2.023  0.00  0.00    -0.244 OA
BRANCH  27  29
ATOM     29  C   UNL     1       1.904  -4.127   1.043  0.00  0.00    +0.097 A 
ATOM     30  C   UNL     1       2.406  -4.961   2.032  0.00  0.00    +0.022 A 
ATOM     31  C   UNL     1       2.417  -6.302   1.733  0.00  0.00    +0.008 A 
ATOM     32  C   UNL     1       1.949  -6.712   0.527  0.00  0.00    +0.046 A 
ATOM     33  S   UNL     1       1.474  -5.293  -0.235  0.00  0.00    -0.090 S 
ENDBRANCH  27  29
ENDBRANCH  26  27
ENDBRANCH  24  26
ENDBRANCH   1  22
BRANCH   9  34
ATOM     34  N   UNL     1       3.937   5.108   2.063  0.00  0.00    -0.328 N 
ATOM     35  H   UNL     1       3.847   6.074   2.054  0.00  0.00    +0.145 HD
ATOM     36  H   UNL     1       4.157   4.649   2.889  0.00  0.00    +0.145 HD
ENDBRANCH   9  34
BRANCH  10  37
ATOM     37  C   UNL     1       4.218   2.437   2.217  0.00  0.00    +0.101 C 
ATOM     38  N   UNL     1       4.480   1.954   3.212  0.00  0.00    -0.191 NA
ENDBRANCH  10  37
TORSDOF 7
