REMARK  Name = ZINC51682570
REMARK  8 active torsions:
REMARK  status: ('A' for Active; 'I' for Inactive)
REMARK    1  A    between atoms: C_1  and  C_2
REMARK    2  A    between atoms: C_2  and  C_3
REMARK    3  A    between atoms: C_2  and  C_4
REMARK    4  A    between atoms: C_4  and  C_6
REMARK    5  A    between atoms: C_4  and  N_23
REMARK    6  A    between atoms: C_6  and  N_7
REMARK    7  A    between atoms: C_14  and  C_17
REMARK    8  A    between atoms: N_19  and  C_20
REMARK                            x       y       z     vdW  Elec       q    Type
REMARK                         _______ _______ _______ _____ _____    ______ ____
ROOT
ATOM      1  N   UNL     1      -2.524  -2.701  -0.031  0.00  0.00    -0.301 N 
ATOM      2  C   UNL     1      -2.620  -4.042   0.068  0.00  0.00    +0.302 C 
ATOM      3  O   UNL     1      -1.656  -4.697   0.415  0.00  0.00    -0.253 OA
ATOM      4  N   UNL     1      -3.785  -4.657  -0.217  0.00  0.00    -0.285 N 
ATOM      5  C   UNL     1      -4.926  -3.893  -0.743  0.00  0.00    +0.109 C 
ATOM      6  C   UNL     1      -6.148  -4.162   0.141  0.00  0.00    +0.020 C 
ATOM      7  C   UNL     1      -6.388  -5.671   0.227  0.00  0.00    +0.016 C 
ATOM      8  C   UNL     1      -5.172  -6.347   0.866  0.00  0.00    +0.092 C 
ATOM      9  C   UNL     1      -3.937  -6.104  -0.015  0.00  0.00    +0.122 C 
ATOM     10  H   UNL     1      -3.310  -2.173  -0.240  0.00  0.00    +0.150 HD
ENDROOT
BRANCH   8  11
ATOM     11  C   UNL     1      -5.423  -7.829   0.981  0.00  0.00    +0.218 C 
ATOM     12  O   UNL     1      -6.471  -8.298   0.590  0.00  0.00    -0.275 OA
ATOM     13  N   UNL     1      -4.483  -8.632   1.517  0.00  0.00    -0.312 N 
ATOM     14  H   UNL     1      -3.645  -8.256   1.829  0.00  0.00    +0.149 HD
BRANCH  13  15
ATOM     15  C   UNL     1      -4.727 -10.072   1.629  0.00  0.00    +0.073 C 
ATOM     16  C   UNL     1      -4.333 -10.756   2.939  0.00  0.00    +0.024 C 
ATOM     17  C   UNL     1      -3.507 -10.994   1.674  0.00  0.00    +0.024 C 
ENDBRANCH  13  15
ENDBRANCH   8  11
BRANCH   1  18
ATOM     18  C   UNL     1      -1.232  -2.042   0.177  0.00  0.00    +0.091 C 
BRANCH  18  19
ATOM     19  C   UNL     1      -1.353  -0.559  -0.178  0.00  0.00    -0.048 C 
BRANCH  19  20
ATOM     20  N   UNL     1      -1.607  -0.420  -1.619  0.00  0.00    +0.383 N 
ATOM     21  C   UNL     1      -2.980  -0.883  -1.903  0.00  0.00    -0.078 C 
ATOM     22  C   UNL     1      -3.453  -0.212  -3.169  0.00  0.00    -0.019 C 
ATOM     23  C   UNL     1      -3.235  -1.113  -4.399  0.00  0.00    -0.002 C 
ATOM     24  C   UNL     1      -1.879  -1.845  -4.340  0.00  0.00    -0.002 C 
ATOM     25  C   UNL     1      -0.768  -0.955  -3.844  0.00  0.00    -0.019 C 
ATOM     26  C   UNL     1      -0.628  -1.128  -2.317  0.00  0.00    -0.078 C 
ATOM     27  H   UNL     1      -1.539   0.556  -1.866  0.00  0.00    -0.081 HD
ENDBRANCH  19  20
BRANCH  19  29
ATOM     28  C   UNL     1      -0.183   1.648  -0.144  0.00  0.00    +0.005 C 
ATOM     29  C   UNL     1      -0.051   0.159   0.181  0.00  0.00    -0.029 C 
ATOM     30  C   UNL     1       0.232  -0.014   1.675  0.00  0.00    +0.005 C 
ENDBRANCH  19  29
ENDBRANCH  18  19
ENDBRANCH   1  18
TORSDOF 6
