REMARK  Name = ZINC20780141
REMARK  10 active torsions:
REMARK  status: ('A' for Active; 'I' for Inactive)
REMARK    1  A    between atoms: C_1  and  C_2
REMARK    2  A    between atoms: C_2  and  C_3
REMARK    3  A    between atoms: C_3  and  N_4
REMARK    4  A    between atoms: C_7  and  N_10
REMARK    5  A    between atoms: C_12  and  N_22
REMARK    6  A    between atoms: C_15  and  C_17
REMARK    7  A    between atoms: N_19  and  C_20
REMARK    8  A    between atoms: C_20  and  C_21
REMARK    9  A    between atoms: N_22  and  C_23
REMARK   10  A    between atoms: C_23  and  C_24
REMARK                            x       y       z     vdW  Elec       q    Type
REMARK                         _______ _______ _______ _____ _____    ______ ____
ROOT
ATOM      1  N   UNL     1      -2.018  -6.069   0.950  0.00  0.00    -0.290 NA
ATOM      2  C   UNL     1      -1.303  -6.459  -0.279  0.00  0.00    +0.070 C 
ATOM      3  C   UNL     1      -2.245  -7.379  -1.084  0.00  0.00    -0.055 C 
ATOM      4  C   UNL     1      -3.218  -7.915  -0.001  0.00  0.00    +0.014 C 
ATOM      5  C   UNL     1      -3.361  -6.685   0.928  0.00  0.00    +0.142 C 
ENDROOT
BRANCH   1   9
ATOM      6  N   UNL     1      -1.413  -2.002   0.005  0.00  0.00    +0.380 N 
ATOM      7  C   UNL     1      -0.802  -2.489   1.247  0.00  0.00    -0.077 C 
ATOM      8  C   UNL     1      -0.705  -4.016   1.209  0.00  0.00    +0.000 C 
ATOM      9  C   UNL     1      -2.110  -4.607   1.064  0.00  0.00    +0.054 C 
ATOM     10  C   UNL     1      -2.766  -4.036  -0.196  0.00  0.00    +0.000 C 
ATOM     11  C   UNL     1      -2.787  -2.508  -0.105  0.00  0.00    -0.077 C 
ATOM     12  H   UNL     1      -0.873  -2.326  -0.783  0.00  0.00    -0.082 HD
BRANCH   6  13
ATOM     13  C   UNL     1      -1.433  -0.534   0.013  0.00  0.00    -0.079 C 
BRANCH  13  15
ATOM     14  C   UNL     1      -0.019   1.526   0.010  0.00  0.00    +0.002 C 
ATOM     15  C   UNL     1       0.002  -0.004   0.002  0.00  0.00    -0.022 C 
ENDBRANCH  13  15
ENDBRANCH   6  13
ENDBRANCH   1   9
BRANCH   5  16
ATOM     16  C   UNL     1      -3.763  -7.118   2.315  0.00  0.00    +0.230 C 
ATOM     17  O   UNL     1      -3.009  -6.938   3.248  0.00  0.00    -0.274 OA
ATOM     18  N   UNL     1      -4.958  -7.706   2.518  0.00  0.00    -0.314 N 
ATOM     19  H   UNL     1      -5.561  -7.849   1.771  0.00  0.00    +0.149 HD
BRANCH  18  20
ATOM     20  C   UNL     1      -5.348  -8.127   3.865  0.00  0.00    +0.101 C 
ATOM     21  C   UNL     1      -6.740  -8.760   3.819  0.00  0.00    +0.024 C 
ENDBRANCH  18  20
ENDBRANCH   5  16
BRANCH   3  22
ATOM     22  N   UNL     1      -1.493  -8.479  -1.703  0.00  0.00    +0.384 N 
ATOM     23  H   UNL     1      -0.957  -8.959  -0.997  0.00  0.00    -0.085 HD
ATOM     24  H   UNL     1      -2.137  -9.125  -2.134  0.00  0.00    -0.085 HD
BRANCH  22  25
ATOM     25  C   UNL     1      -0.586  -7.938  -2.724  0.00  0.00    -0.046 C 
BRANCH  25  26
ATOM     26  C   UNL     1       0.185  -9.066  -3.359  0.00  0.00    -0.064 A 
ATOM     27  C   UNL     1       1.394  -9.467  -2.820  0.00  0.00    +0.003 A 
ATOM     28  C   UNL     1       2.101 -10.501  -3.402  0.00  0.00    +0.020 A 
ATOM     29  C   UNL     1       1.600 -11.136  -4.524  0.00  0.00    +0.041 A 
ATOM     30  C   UNL     1       0.391 -10.735  -5.063  0.00  0.00    +0.020 A 
ATOM     31  C   UNL     1      -0.319  -9.704  -4.477  0.00  0.00    +0.003 A 
ATOM     32 CL   UNL     1       2.488 -12.436  -5.257  0.00  0.00    -0.084 Cl
ENDBRANCH  25  26
ENDBRANCH  22  25
ENDBRANCH   3  22
TORSDOF 8
