REMARK  Name = ZINC38686447
REMARK  10 active torsions:
REMARK  status: ('A' for Active; 'I' for Inactive)
REMARK    1  A    between atoms: C_1  and  C_2
REMARK    2  A    between atoms: C_7  and  C_8
REMARK    3  A    between atoms: C_8  and  O_10
REMARK    4  A    between atoms: O_10  and  C_11
REMARK    5  A    between atoms: C_18  and  N_39
REMARK    6  A    between atoms: C_19  and  C_37
REMARK    7  A    between atoms: C_20  and  C_22
REMARK    8  A    between atoms: C_25  and  O_28
REMARK    9  A    between atoms: O_28  and  C_29
REMARK   10  A    between atoms: C_29  and  C_30
REMARK                            x       y       z     vdW  Elec       q    Type
REMARK                         _______ _______ _______ _____ _____    ______ ____
ROOT
ATOM      1  C   UNL     1       0.200  -0.296   4.996  0.00  0.00    +0.135 A 
ATOM      2  C   UNL     1       0.064   1.085   4.963  0.00  0.00    +0.047 A 
ATOM      3  C   UNL     1       0.051   1.806   6.141  0.00  0.00    +0.012 A 
ATOM      4  C   UNL     1       0.172   1.156   7.357  0.00  0.00    +0.008 A 
ATOM      5  C   UNL     1       0.308  -0.222   7.396  0.00  0.00    +0.138 A 
ATOM      6  C   UNL     1       0.316  -0.949   6.212  0.00  0.00    +0.093 A 
ATOM      7  O   UNL     1       0.429  -0.876   8.578  0.00  0.00    -0.441 OA
ATOM      8  C   UNL     1       0.042  -0.279   9.717  0.00  0.00    +0.199 C 
ATOM      9  C   UNL     1      -0.107   1.064   9.807  0.00  0.00    +0.098 C 
ATOM     10  C   UNL     1       0.156   1.960   8.630  0.00  0.00    +0.098 C 
ENDROOT
BRANCH  10  11
ATOM     11  C   UNL     1       1.490   2.640   8.808  0.00  0.00    -0.034 A 
ATOM     12  C   UNL     1       2.643   1.883   8.897  0.00  0.00    +0.008 A 
ATOM     13  C   UNL     1       3.867   2.504   9.061  0.00  0.00    +0.046 A 
ATOM     14  C   UNL     1       3.937   3.887   9.136  0.00  0.00    +0.121 A 
ATOM     15  C   UNL     1       2.778   4.644   9.046  0.00  0.00    +0.046 A 
ATOM     16  C   UNL     1       1.558   4.019   8.877  0.00  0.00    +0.008 A 
BRANCH  14  17
ATOM     17  O   UNL     1       5.139   4.500   9.297  0.00  0.00    -0.487 OA
BRANCH  17  18
ATOM     18  C   UNL     1       5.136   5.927   9.366  0.00  0.00    +0.264 C 
BRANCH  18  19
ATOM     19  C   UNL     1       6.547   6.425   9.545  0.00  0.00    -0.010 A 
ATOM     20  C   UNL     1       7.065   6.590  10.816  0.00  0.00    +0.010 A 
ATOM     21  C   UNL     1       8.360   7.045  10.982  0.00  0.00    +0.039 A 
ATOM     22  C   UNL     1       9.137   7.337   9.874  0.00  0.00    +0.123 A 
ATOM     23  C   UNL     1       8.617   7.172   8.601  0.00  0.00    +0.039 A 
ATOM     24  C   UNL     1       7.324   6.711   8.438  0.00  0.00    +0.010 A 
ATOM     25  F   UNL     1      10.402   7.783  10.034  0.00  0.00    -0.205 F 
ENDBRANCH  18  19
ENDBRANCH  17  18
ENDBRANCH  14  17
ENDBRANCH  10  11
BRANCH   8  26
ATOM     26  N   UNL     1      -0.211  -1.053  10.822  0.00  0.00    -0.328 N 
ATOM     27  H   UNL     1      -0.109  -2.016  10.773  0.00  0.00    +0.145 HD
ATOM     28  H   UNL     1      -0.491  -0.636  11.652  0.00  0.00    +0.145 HD
ENDBRANCH   8  26
BRANCH   9  29
ATOM     29  C   UNL     1      -0.524   1.642  11.049  0.00  0.00    +0.101 C 
ATOM     30  N   UNL     1      -0.855   2.100  12.034  0.00  0.00    -0.191 NA
ENDBRANCH   9  29
BRANCH   1  31
ATOM     31  O   UNL     1       0.213  -1.007   3.838  0.00  0.00    -0.422 OA
BRANCH  31  32
ATOM     32  C   UNL     1       1.360  -1.044   3.132  0.00  0.00    +0.345 C 
ATOM     33  O   UNL     1       2.371  -0.551   3.590  0.00  0.00    -0.245 OA
BRANCH  32  40
ATOM     34  C   UNL     1       3.752  -0.876   1.513  0.00  0.00    +0.044 C 
ATOM     35  C   UNL     1       2.536  -1.610   1.010  0.00  0.00    -0.036 A 
ATOM     36  C   UNL     1       2.556  -2.215  -0.229  0.00  0.00    +0.004 A 
ATOM     37  C   UNL     1       1.440  -2.889  -0.692  0.00  0.00    +0.000 A 
ATOM     38  C   UNL     1       0.296  -2.961   0.083  0.00  0.00    +0.001 A 
ATOM     39  C   UNL     1       0.262  -2.360   1.324  0.00  0.00    +0.015 A 
ATOM     40  C   UNL     1       1.387  -1.684   1.801  0.00  0.00    +0.062 A 
ENDBRANCH  32  40
ENDBRANCH  31  32
ENDBRANCH   1  31
TORSDOF 9
