REMARK  Name = ZINC38897719
REMARK  4 active torsions:
REMARK  status: ('A' for Active; 'I' for Inactive)
REMARK    1  A    between atoms: C_1  and  C_2
REMARK    2  A    between atoms: C_5  and  N_8
REMARK    3  A    between atoms: C_9  and  N_11
REMARK    4  A    between atoms: C_15  and  C_18
REMARK                            x       y       z     vdW  Elec       q    Type
REMARK                         _______ _______ _______ _____ _____    ______ ____
ROOT
ATOM      1  N   UNL     1       0.059  -4.169  -0.021  0.00  0.00    -0.268 N 
ATOM      2  C   UNL     1       0.176  -4.848   1.138  0.00  0.00    +0.330 C 
ATOM      3  O   UNL     1       0.174  -4.248   2.197  0.00  0.00    -0.250 OA
ATOM      4  H   UNL     1      -0.016  -4.651  -0.860  0.00  0.00    +0.156 HD
ENDROOT
BRANCH   1   9
ATOM      5  C   UNL     1       0.009   1.503   0.008  0.00  0.00    +0.044 C 
ATOM      6  C   UNL     1       0.022  -0.004   0.001  0.00  0.00    -0.050 A 
ATOM      7  C   UNL     1      -0.722  -0.696  -0.938  0.00  0.00    +0.005 A 
ATOM      8  C   UNL     1      -0.711  -2.077  -0.948  0.00  0.00    +0.023 A 
ATOM      9  C   UNL     1       0.047  -2.771  -0.014  0.00  0.00    +0.035 A 
ATOM     10  C   UNL     1       0.793  -2.073   0.927  0.00  0.00    +0.023 A 
ATOM     11  C   UNL     1       0.782  -0.692   0.928  0.00  0.00    +0.005 A 
ENDBRANCH   1   9
BRANCH   2  12
ATOM     12  N   UNL     1       0.296  -6.186   1.123  0.00  0.00    -0.136 NA
ATOM     13  C   UNL     1       0.410  -6.851   2.258  0.00  0.00    +0.205 C 
ATOM     14  N   UNL     1       0.548  -8.207   2.462  0.00  0.00    -0.128 NA
ATOM     15  N   UNL     1       0.647  -8.732   3.548  0.00  0.00    -0.165 NA
ATOM     16  C   UNL     1       0.620  -7.871   4.753  0.00  0.00    +0.229 C 
ATOM     17  S   UNL     1       0.435  -6.227   3.937  0.00  0.00    -0.053 S 
BRANCH  16  18
ATOM     18  C   UNL     1       1.913  -7.958   5.522  0.00  0.00    +0.026 A 
ATOM     19  C   UNL     1       2.111  -8.251   6.830  0.00  0.00    +0.014 A 
ATOM     20  C   UNL     1       3.401  -8.275   7.325  0.00  0.00    +0.008 A 
ATOM     21  C   UNL     1       4.431  -8.004   6.486  0.00  0.00    +0.045 A 
ATOM     22  S   UNL     1       3.584  -7.709   4.943  0.00  0.00    -0.099 S 
ENDBRANCH  16  18
ENDBRANCH   2  12
TORSDOF 3
