REMARK  Name = ZINC08755537
REMARK  5 active torsions:
REMARK  status: ('A' for Active; 'I' for Inactive)
REMARK    1  A    between atoms: N_13  and  C_17
REMARK    2  A    between atoms: C_17  and  C_18
REMARK    3  A    between atoms: N_20  and  C_21
REMARK    4  A    between atoms: C_21  and  C_23
REMARK    5  A    between atoms: C_21  and  C_30
REMARK                            x       y       z     vdW  Elec       q    Type
REMARK                         _______ _______ _______ _____ _____    ______ ____
ROOT
ATOM      1  C   UNL     1      -3.285   1.922  -3.092  0.00  0.00    +0.213 C 
ENDROOT
BRANCH   1  14
ATOM      2  C   UNL     1      -0.375   6.881  -6.906  0.00  0.00    +0.000 A 
ATOM      3  C   UNL     1      -0.348   6.127  -5.747  0.00  0.00    +0.000 A 
ATOM      4  C   UNL     1      -1.195   5.047  -5.612  0.00  0.00    +0.006 A 
ATOM      5  C   UNL     1      -2.076   4.709  -6.632  0.00  0.00    -0.012 A 
ATOM      6  C   UNL     1      -2.105   5.463  -7.785  0.00  0.00    -0.042 A 
ATOM      7  C   UNL     1      -1.250   6.549  -7.919  0.00  0.00    +0.004 A 
ATOM      8  C   UNL     1      -3.044   5.161  -8.924  0.00  0.00    +0.035 C 
ATOM      9  C   UNL     1      -3.567   3.729  -8.826  0.00  0.00    +0.008 C 
ATOM     10  C   UNL     1      -4.129   3.513  -7.415  0.00  0.00    +0.040 C 
ATOM     11  C   UNL     1      -2.969   3.518  -6.427  0.00  0.00    +0.138 C 
ATOM     12  C   UNL     1      -3.496   3.493  -5.009  0.00  0.00    +0.251 C 
ATOM     13  O   UNL     1      -4.195   4.324  -4.471  0.00  0.00    -0.272 OA
ATOM     14  N   UNL     1      -3.020   2.353  -4.467  0.00  0.00    -0.215 N 
ATOM     15  C   UNL     1      -2.282   1.661  -5.344  0.00  0.00    +0.310 C 
ATOM     16  O   UNL     1      -1.750   0.598  -5.089  0.00  0.00    -0.252 OA
ATOM     17  N   UNL     1      -2.195   2.275  -6.539  0.00  0.00    -0.281 N 
ATOM     18  H   UNL     1      -1.715   1.958  -7.320  0.00  0.00    +0.152 HD
ENDBRANCH   1  14
BRANCH   1  19
ATOM     19  C   UNL     1      -2.212   2.461  -2.182  0.00  0.00    +0.232 C 
ATOM     20  O   UNL     1      -1.314   3.138  -2.637  0.00  0.00    -0.274 OA
ATOM     21  N   UNL     1      -2.249   2.190  -0.862  0.00  0.00    -0.303 N 
ATOM     22  H   UNL     1      -2.966   1.648  -0.498  0.00  0.00    +0.150 HD
BRANCH  21  23
ATOM     23  C   UNL     1      -1.206   2.714   0.023  0.00  0.00    +0.140 C 
BRANCH  23  24
ATOM     24  C   UNL     1      -1.745   2.824   1.425  0.00  0.00    -0.022 A 
ATOM     25  C   UNL     1      -2.571   1.835   1.928  0.00  0.00    +0.008 A 
ATOM     26  C   UNL     1      -3.062   1.933   3.215  0.00  0.00    +0.038 A 
ATOM     27  C   UNL     1      -2.737   3.027   3.999  0.00  0.00    +0.123 A 
ATOM     28  C   UNL     1      -1.914   4.019   3.494  0.00  0.00    +0.038 A 
ATOM     29  C   UNL     1      -1.419   3.917   2.207  0.00  0.00    +0.008 A 
ATOM     30  F   UNL     1      -3.221   3.125   5.257  0.00  0.00    -0.205 F 
ENDBRANCH  23  24
BRANCH  23  31
ATOM     31  C   UNL     1      -0.022   1.781   0.012  0.00  0.00    +0.014 A 
ATOM     32  C   UNL     1       1.300   2.079   0.001  0.00  0.00    +0.013 A 
ATOM     33  C   UNL     1       2.220   1.048  -0.013  0.00  0.00    +0.008 A 
ATOM     34  C   UNL     1       1.773  -0.232  -0.016  0.00  0.00    +0.045 A 
ATOM     35  S   UNL     1       0.002  -0.004   0.002  0.00  0.00    -0.099 S 
ENDBRANCH  23  31
ENDBRANCH  21  23
ENDBRANCH   1  19
TORSDOF 5
