REMARK  Name = ZINC26938288
REMARK  4 active torsions:
REMARK  status: ('A' for Active; 'I' for Inactive)
REMARK    1  A    between atoms: C_5  and  C_8
REMARK    2  A    between atoms: C_5  and  N_10
REMARK    3  A    between atoms: C_11  and  C_13
REMARK    4  A    between atoms: C_13  and  N_14
REMARK                            x       y       z     vdW  Elec       q    Type
REMARK                         _______ _______ _______ _____ _____    ______ ____
ROOT
ATOM      1  N   UNL     1       2.800  -1.692   1.676  0.00  0.00    -0.299 N 
ATOM      2  C   UNL     1       2.420  -2.932   1.308  0.00  0.00    +0.198 C 
ATOM      3  O   UNL     1       1.568  -3.077   0.458  0.00  0.00    -0.278 OA
ATOM      4  H   UNL     1       3.482  -1.576   2.356  0.00  0.00    +0.150 HD
ENDROOT
BRANCH   1   9
ATOM      5  C   UNL     1      -0.018   1.451   0.010  0.00  0.00    +0.000 C 
ATOM      6  C   UNL     1       1.400   2.058  -0.000  0.00  0.00    +0.000 C 
ATOM      7  C   UNL     1       1.950   2.011   1.399  0.00  0.00    +0.003 C 
ATOM      8  C   UNL     1       2.801   0.753   1.656  0.00  0.00    +0.041 C 
ATOM      9  C   UNL     1       2.183  -0.521   1.050  0.00  0.00    +0.121 C 
ATOM     10  C   UNL     1       0.693  -0.589   1.251  0.00  0.00    +0.041 C 
ATOM     11  C   UNL     1       0.002  -0.004   0.002  0.00  0.00    +0.003 C 
BRANCH   9  12
ATOM     12  C   UNL     1       2.470  -0.549  -0.394  0.00  0.00    +0.088 C 
ATOM     13  N   UNL     1       2.692  -0.570  -1.508  0.00  0.00    -0.194 NA
ENDBRANCH   9  12
ENDBRANCH   1   9
BRANCH   2  14
ATOM     14  C   UNL     1       3.055  -4.137   1.952  0.00  0.00    +0.019 C 
BRANCH  14  15
ATOM     15  N   UNL     1       2.474  -5.360   1.383  0.00  0.00    +0.386 N 
ATOM     16  C   UNL     1       2.816  -5.444  -0.042  0.00  0.00    -0.073 C 
ATOM     17  C   UNL     1       2.142  -6.672  -0.660  0.00  0.00    +0.046 C 
ATOM     18  C   UNL     1       2.626  -7.930   0.064  0.00  0.00    +0.167 C 
ATOM     19  C   UNL     1       2.340  -7.800   1.562  0.00  0.00    +0.046 C 
ATOM     20  C   UNL     1       3.006  -6.529   2.094  0.00  0.00    -0.073 C 
ATOM     21  O   UNL     1       1.938  -9.078  -0.458  0.00  0.00    -0.346 OA
ATOM     22  C   UNL     1       2.833  -9.621  -1.459  0.00  0.00    +0.191 C 
ATOM     23  C   UNL     1       4.219  -9.358  -0.819  0.00  0.00    +0.191 C 
ATOM     24  O   UNL     1       4.033  -8.096  -0.145  0.00  0.00    -0.346 OA
ATOM     25  H   UNL     1       1.471  -5.333   1.484  0.00  0.00    -0.081 HD
ENDBRANCH  14  15
ENDBRANCH   2  14
TORSDOF 4
