REMARK  Name = ZINC36590027
REMARK  15 active torsions:
REMARK  status: ('A' for Active; 'I' for Inactive)
REMARK    1  A    between atoms: C_1  and  C_2
REMARK    2  A    between atoms: C_2  and  C_3
REMARK    3  A    between atoms: C_2  and  C_4
REMARK    4  A    between atoms: C_2  and  N_5
REMARK    5  A    between atoms: C_6  and  C_8
REMARK    6  A    between atoms: C_8  and  C_10
REMARK    7  A    between atoms: C_8  and  N_19
REMARK    8  A    between atoms: C_11  and  O_18
REMARK    9  A    between atoms: C_13  and  O_17
REMARK   10  A    between atoms: C_15  and  O_16
REMARK   11  A    between atoms: N_19  and  C_24
REMARK   12  A    between atoms: C_20  and  C_22
REMARK   13  A    between atoms: C_24  and  C_25
REMARK   14  A    between atoms: C_24  and  C_26
REMARK   15  A    between atoms: C_24  and  C_27
REMARK                            x       y       z     vdW  Elec       q    Type
REMARK                         _______ _______ _______ _____ _____    ______ ____
ROOT
ATOM      1  C   UNL     1       2.878   0.133  -3.909  0.00  0.00    +0.200 C 
ENDROOT
BRANCH   1   2
ATOM      2  C   UNL     1       2.151  -1.072  -3.371  0.00  0.00    +0.065 A 
ATOM      3  C   UNL     1       2.288  -1.426  -2.037  0.00  0.00    +0.129 A 
ATOM      4  C   UNL     1       1.619  -2.535  -1.542  0.00  0.00    +0.091 A 
ATOM      5  C   UNL     1       0.812  -3.289  -2.380  0.00  0.00    +0.124 A 
ATOM      6  C   UNL     1       0.673  -2.934  -3.713  0.00  0.00    +0.091 A 
ATOM      7  C   UNL     1       1.339  -1.823  -4.208  0.00  0.00    +0.129 A 
BRANCH   7   8
ATOM      8  O   UNL     1       1.200  -1.473  -5.513  0.00  0.00    -0.506 OA
ATOM      9  H   UNL     1       1.849  -1.882  -6.102  0.00  0.00    +0.292 HD
ENDBRANCH   7   8
BRANCH   5  10
ATOM     10  O   UNL     1       0.157  -4.376  -1.894  0.00  0.00    -0.507 OA
ATOM     11  H   UNL     1      -0.724  -4.181  -1.546  0.00  0.00    +0.292 HD
ENDBRANCH   5  10
BRANCH   3  12
ATOM     12  O   UNL     1       3.080  -0.687  -1.216  0.00  0.00    -0.506 OA
ATOM     13  H   UNL     1       2.597  -0.044  -0.678  0.00  0.00    +0.292 HD
ENDBRANCH   3  12
ENDBRANCH   1   2
BRANCH   1  15
ATOM     14  N   UNL     1       2.399   2.555  -4.066  0.00  0.00    -0.309 N 
ATOM     15  C   UNL     1       2.202   1.388  -3.421  0.00  0.00    +0.239 C 
ATOM     16  O   UNL     1       1.479   1.348  -2.448  0.00  0.00    -0.273 OA
ATOM     17  H   UNL     1       2.977   2.587  -4.845  0.00  0.00    +0.149 HD
BRANCH  14  19
ATOM     18  C   UNL     1       2.183   4.067  -2.156  0.00  0.00    +0.031 C 
ATOM     19  C   UNL     1       1.742   3.775  -3.592  0.00  0.00    +0.026 C 
ATOM     20  C   UNL     1       0.224   3.584  -3.630  0.00  0.00    +0.031 C 
ATOM     21  C   UNL     1       2.131   4.948  -4.493  0.00  0.00    +0.031 C 
ENDBRANCH  14  19
ENDBRANCH   1  15
BRANCH   1  22
ATOM     22  N   UNL     1       4.267   0.114  -3.443  0.00  0.00    -0.280 N 
ATOM     23  C   UNL     1       4.718   1.089  -2.630  0.00  0.00    +0.232 C 
ATOM     24  O   UNL     1       5.838   1.531  -2.776  0.00  0.00    -0.274 OA
BRANCH  22  25
ATOM     25  C   UNL     1       5.165  -0.965  -3.861  0.00  0.00    +0.030 C 
ATOM     26  C   UNL     1       4.446  -1.867  -4.866  0.00  0.00    +0.031 C 
ATOM     27  C   UNL     1       6.412  -0.367  -4.515  0.00  0.00    +0.031 C 
ATOM     28  C   UNL     1       5.576  -1.789  -2.639  0.00  0.00    +0.031 C 
ENDBRANCH  22  25
BRANCH  23  29
ATOM     29  C   UNL     1       3.831   1.632  -1.539  0.00  0.00    +0.204 C 
ATOM     30 CL   UNL     1       4.572   3.122  -0.847  0.00  0.00    -0.116 Cl
ENDBRANCH  23  29
ENDBRANCH   1  22
TORSDOF 9
