REMARK  Name = ZINC10645214
REMARK  9 active torsions:
REMARK  status: ('A' for Active; 'I' for Inactive)
REMARK    1  A    between atoms: C_1  and  C_2
REMARK    2  A    between atoms: C_4  and  C_32
REMARK    3  A    between atoms: C_8  and  N_31
REMARK    4  A    between atoms: C_9  and  C_11
REMARK    5  A    between atoms: C_11  and  O_13
REMARK    6  A    between atoms: O_13  and  C_14
REMARK    7  A    between atoms: C_14  and  C_15
REMARK    8  A    between atoms: N_17  and  C_18
REMARK    9  A    between atoms: N_17  and  C_26
REMARK                            x       y       z     vdW  Elec       q    Type
REMARK                         _______ _______ _______ _____ _____    ______ ____
ROOT
ATOM      1  C   UNL     1       1.717  -0.849   4.596  0.00  0.00    +0.348 C 
ATOM      2  O   UNL     1       1.775   0.279   5.050  0.00  0.00    -0.244 OA
ENDROOT
BRANCH   1  11
ATOM      3  C   UNL     1      -2.010   1.347   1.146  0.00  0.00    +0.044 C 
ATOM      4  C   UNL     1      -1.742  -0.123   0.945  0.00  0.00    -0.037 A 
ATOM      5  C   UNL     1      -2.396  -0.823  -0.042  0.00  0.00    +0.025 A 
ATOM      6  C   UNL     1      -2.148  -2.175  -0.225  0.00  0.00    +0.014 A 
ATOM      7  N   UNL     1      -1.281  -2.805   0.544  0.00  0.00    -0.353 N 
ATOM      8  C   UNL     1      -0.630  -2.179   1.501  0.00  0.00    +0.088 A 
ATOM      9  C   UNL     1      -0.808  -0.802   1.765  0.00  0.00    +0.030 A 
ATOM     10  C   UNL     1      -0.003  -0.273   2.855  0.00  0.00    +0.055 A 
ATOM     11  C   UNL     1       0.847  -1.133   3.517  0.00  0.00    +0.119 A 
ATOM     12  S   UNL     1       0.577  -2.692   2.698  0.00  0.00    -0.062 S 
ATOM     13  C   UNL     1      -2.873  -2.929  -1.310  0.00  0.00    +0.063 C 
ATOM     14  H   UNL     1      -1.121  -3.751   0.402  0.00  0.00    +0.166 HD
BRANCH  10  15
ATOM     15  N   UNL     1      -0.087   1.063   3.218  0.00  0.00    -0.356 N 
ATOM     16  H   UNL     1      -0.287   1.736   2.548  0.00  0.00    +0.142 HD
ATOM     17  H   UNL     1       0.054   1.325   4.141  0.00  0.00    +0.142 HD
ENDBRANCH  10  15
ENDBRANCH   1  11
BRANCH   1  18
ATOM     18  O   UNL     1       2.482  -1.828   5.123  0.00  0.00    -0.451 OA
BRANCH  18  19
ATOM     19  C   UNL     1       3.337  -1.470   6.210  0.00  0.00    +0.328 C 
BRANCH  19  20
ATOM     20  C   UNL     1       4.108  -2.683   6.664  0.00  0.00    +0.254 C 
ATOM     21  O   UNL     1       3.955  -3.745   6.099  0.00  0.00    -0.272 OA
ATOM     22  N   UNL     1       4.968  -2.587   7.697  0.00  0.00    -0.291 N 
BRANCH  22  23
ATOM     23  C   UNL     1       5.621  -3.790   8.221  0.00  0.00    +0.099 C 
ATOM     24  C   UNL     1       6.425  -4.473   7.102  0.00  0.00    +0.047 C 
ATOM     25  C   UNL     1       6.847  -5.894   7.549  0.00  0.00    +0.168 C 
ATOM     26  S   UNL     1       5.519  -6.356   8.734  0.00  0.00    -0.029 S 
ATOM     27  O   UNL     1       6.091  -6.539  10.022  0.00  0.00    -0.174 OA
ATOM     28  O   UNL     1       4.733  -7.394   8.165  0.00  0.00    -0.174 OA
ATOM     29  C   UNL     1       4.545  -4.793   8.726  0.00  0.00    +0.188 C 
ENDBRANCH  22  23
BRANCH  22  30
ATOM     30  C   UNL     1       5.251  -1.280   8.296  0.00  0.00    +0.077 C 
ATOM     31  C   UNL     1       6.762  -0.980   8.219  0.00  0.00    +0.022 C 
ATOM     32  C   UNL     1       7.072  -0.249   9.549  0.00  0.00    +0.002 C 
ATOM     33  C   UNL     1       6.180  -1.001  10.568  0.00  0.00    +0.002 C 
ATOM     34  C   UNL     1       4.881  -1.294   9.789  0.00  0.00    +0.022 C 
ENDBRANCH  22  30
ENDBRANCH  19  20
ENDBRANCH  18  19
ENDBRANCH   1  18
TORSDOF 7
