REMARK  Name = ZINC03321116
REMARK  14 active torsions:
REMARK  status: ('A' for Active; 'I' for Inactive)
REMARK    1  A    between atoms: C_1  and  C_2
REMARK    2  A    between atoms: C_2  and  O_3
REMARK    3  A    between atoms: O_3  and  C_4
REMARK    4  A    between atoms: C_4  and  C_6
REMARK    5  A    between atoms: C_8  and  C_25
REMARK    6  A    between atoms: C_10  and  N_11
REMARK    7  A    between atoms: C_12  and  C_14
REMARK    8  A    between atoms: C_14  and  O_15
REMARK    9  A    between atoms: O_15  and  C_16
REMARK   10  A    between atoms: C_16  and  C_18
REMARK   11  A    between atoms: C_20  and  C_24
REMARK   12  A    between atoms: C_22  and  C_23
REMARK   13  A    between atoms: C_25  and  C_26
REMARK   14  A    between atoms: C_25  and  C_27
REMARK                            x       y       z     vdW  Elec       q    Type
REMARK                         _______ _______ _______ _____ _____    ______ ____
ROOT
ATOM      1  N   UNL     1       7.675   3.135  -0.053  0.00  0.00    -0.277 N 
ATOM      2  C   UNL     1       6.335   2.990  -0.042  0.00  0.00    +0.255 C 
ATOM      3  O   UNL     1       5.619   3.969  -0.030  0.00  0.00    -0.272 OA
ATOM      4  H   UNL     1       8.248   2.353  -0.063  0.00  0.00    +0.155 HD
ENDROOT
BRANCH   1   9
ATOM      5  C   UNL     1       9.581   4.755  -0.057  0.00  0.00    +0.088 A 
ATOM      6  C   UNL     1       9.883   6.166  -0.057  0.00  0.00    +0.028 A 
ATOM      7  C   UNL     1       8.841   7.017  -0.043  0.00  0.00    -0.005 A 
ATOM      8  S   UNL     1       7.427   5.935  -0.036  0.00  0.00    -0.077 S 
ATOM      9  C   UNL     1       8.235   4.404  -0.052  0.00  0.00    +0.086 A 
BRANCH   7  10
ATOM     10  C   UNL     1       8.866   8.524  -0.035  0.00  0.00    +0.020 C 
ATOM     11  C   UNL     1       8.141   9.052  -1.275  0.00  0.00    +0.013 C 
ATOM     12  C   UNL     1       8.164   9.039   1.223  0.00  0.00    +0.013 C 
ENDBRANCH   7  10
BRANCH   5  13
ATOM     13  C   UNL     1      10.638   3.742  -0.065  0.00  0.00    +0.342 C 
ATOM     14  O   UNL     1      10.350   2.561  -0.068  0.00  0.00    -0.245 OA
BRANCH  13  15
ATOM     15  O   UNL     1      11.933   4.120  -0.070  0.00  0.00    -0.461 OA
BRANCH  15  17
ATOM     16  C   UNL     1      14.328   3.679  -0.082  0.00  0.00    +0.048 C 
ATOM     17  C   UNL     1      12.928   3.062  -0.078  0.00  0.00    +0.229 C 
ENDBRANCH  15  17
ENDBRANCH  13  15
ENDBRANCH   5  13
ENDBRANCH   1   9
BRANCH   2  18
ATOM     18  C   UNL     1       5.727   1.611  -0.043  0.00  0.00    +0.328 C 
BRANCH  18  19
ATOM     19  O   UNL     1       4.279   1.721  -0.029  0.00  0.00    -0.452 OA
BRANCH  19  20
ATOM     20  C   UNL     1       3.579   0.569  -0.029  0.00  0.00    +0.343 C 
ATOM     21  O   UNL     1       4.162  -0.497  -0.040  0.00  0.00    -0.245 OA
BRANCH  20  22
ATOM     22  C   UNL     1       2.107   0.604  -0.015  0.00  0.00    +0.100 A 
ATOM     23  C   UNL     1       1.245   1.795  -0.000  0.00  0.00    +0.059 A 
ATOM     24  C   UNL     1      -0.016   1.338   0.009  0.00  0.00    +0.103 A 
ATOM     25  O   UNL     1       0.002  -0.004   0.002  0.00  0.00    -0.464 OA
ATOM     26  C   UNL     1       1.256  -0.464  -0.012  0.00  0.00    +0.116 A 
ATOM     27  C   UNL     1       1.663  -1.915  -0.025  0.00  0.00    +0.087 C 
ATOM     28  C   UNL     1      -1.256   2.195   0.020  0.00  0.00    +0.086 C 
ENDBRANCH  20  22
ENDBRANCH  19  20
ENDBRANCH  18  19
ENDBRANCH   2  18
TORSDOF 9
