REMARK  Name = ZINC42015424
REMARK  3 active torsions:
REMARK  status: ('A' for Active; 'I' for Inactive)
REMARK    1  A    between atoms: C_3  and  C_9
REMARK    2  A    between atoms: C_4  and  N_8
REMARK    3  A    between atoms: N_13  and  C_14
REMARK                            x       y       z     vdW  Elec       q    Type
REMARK                         _______ _______ _______ _____ _____    ______ ____
ROOT
ATOM      1  C   UNL     1       3.652   2.179   0.020  0.00  0.00    +0.189 A 
ATOM      2  N   UNL     1       4.868   1.674   0.074  0.00  0.00    -0.108 NA
ATOM      3  N   UNL     1       5.747   2.606  -0.009  0.00  0.00    -0.022 NA
ATOM      4  N   UNL     1       5.178   3.757  -0.120  0.00  0.00    -0.039 NA
ATOM      5  N   UNL     1       3.790   3.530  -0.112  0.00  0.00    -0.190 N 
ENDROOT
BRANCH   5   6
ATOM      6  C   UNL     1       2.769   4.486  -0.214  0.00  0.00    +0.106 A 
ATOM      7  C   UNL     1       1.706   4.465   0.678  0.00  0.00    +0.050 A 
ATOM      8  C   UNL     1       0.701   5.408   0.575  0.00  0.00    +0.043 A 
ATOM      9  C   UNL     1       0.754   6.374  -0.415  0.00  0.00    +0.023 A 
ATOM     10  C   UNL     1       1.812   6.397  -1.305  0.00  0.00    +0.042 A 
ATOM     11  C   UNL     1       2.823   5.460  -1.204  0.00  0.00    +0.149 A 
ATOM     12  F   UNL     1       3.859   5.486  -2.071  0.00  0.00    -0.203 F 
ATOM     13 CL   UNL     1      -0.630   5.382   1.690  0.00  0.00    -0.083 Cl
ENDBRANCH   5   6
BRANCH   1  16
ATOM     14  C   UNL     1       0.193   0.963  -0.787  0.00  0.00    +0.021 A 
ATOM     15  C   UNL     1       1.376   1.669  -0.851  0.00  0.00    +0.015 A 
ATOM     16  C   UNL     1       2.383   1.426   0.084  0.00  0.00    +0.042 A 
ATOM     17  C   UNL     1       2.184   0.463   1.083  0.00  0.00    +0.037 A 
ATOM     18  C   UNL     1       0.988  -0.239   1.134  0.00  0.00    +0.043 A 
ATOM     19  C   UNL     1      -0.002   0.012   0.201  0.00  0.00    +0.043 A 
ATOM     20 CL   UNL     1      -1.496  -0.870   0.270  0.00  0.00    -0.083 Cl
BRANCH  17  21
ATOM     21  N   UNL     1       3.182   0.211   2.021  0.00  0.00    -0.357 N 
ATOM     22  H   UNL     1       4.018   0.703   1.984  0.00  0.00    +0.142 HD
ATOM     23  H   UNL     1       3.042  -0.455   2.712  0.00  0.00    +0.142 HD
ENDBRANCH  17  21
ENDBRANCH   1  16
TORSDOF 3
