REMARK  Name = ZINC05975859
REMARK  3 active torsions:
REMARK  status: ('A' for Active; 'I' for Inactive)
REMARK    1  A    between atoms: C_4  and  N_7
REMARK    2  A    between atoms: C_13  and  N_16
REMARK    3  A    between atoms: C_17  and  C_19
REMARK                            x       y       z     vdW  Elec       q    Type
REMARK                         _______ _______ _______ _____ _____    ______ ____
ROOT
ATOM      1  N   UNL     1       3.404  -2.449   1.298  0.00  0.00    -0.296 N 
ATOM      2  C   UNL     1       3.471  -1.681   2.404  0.00  0.00    +0.302 C 
ATOM      3  O   UNL     1       3.024  -0.550   2.387  0.00  0.00    -0.253 OA
ATOM      4  N   UNL     1       4.034  -2.166   3.528  0.00  0.00    -0.286 N 
ATOM      5  C   UNL     1       4.012  -1.386   4.773  0.00  0.00    +0.111 C 
ATOM      6  C   UNL     1       3.416  -2.253   5.887  0.00  0.00    +0.041 C 
ATOM      7  C   UNL     1       4.198  -3.565   5.981  0.00  0.00    +0.076 C 
ATOM      8  C   UNL     1       4.079  -4.328   4.659  0.00  0.00    +0.041 C 
ATOM      9  C   UNL     1       4.677  -3.487   3.533  0.00  0.00    +0.111 C 
ATOM     10  H   UNL     1       3.825  -3.322   1.288  0.00  0.00    +0.151 HD
ENDROOT
BRANCH   1  14
ATOM     11  C   UNL     1       2.421  -1.782  -2.800  0.00  0.00    +0.000 C 
ATOM     12  C   UNL     1       1.480  -2.650  -1.961  0.00  0.00    +0.002 C 
ATOM     13  C   UNL     1       2.221  -3.156  -0.722  0.00  0.00    +0.022 C 
ATOM     14  C   UNL     1       2.694  -1.964   0.112  0.00  0.00    +0.074 C 
ATOM     15  C   UNL     1       3.635  -1.096  -0.727  0.00  0.00    +0.022 C 
ATOM     16  C   UNL     1       2.893  -0.590  -1.965  0.00  0.00    +0.002 C 
ENDBRANCH   1  14
BRANCH   7  17
ATOM     17  N   UNL     1       3.652  -4.382   7.067  0.00  0.00    -0.312 N 
ATOM     18  C   UNL     1       4.428  -5.301   7.674  0.00  0.00    +0.219 C 
ATOM     19  O   UNL     1       5.578  -5.452   7.322  0.00  0.00    -0.275 OA
ATOM     20  H   UNL     1       2.731  -4.262   7.348  0.00  0.00    +0.149 HD
BRANCH  18  21
ATOM     21  C   UNL     1       3.865  -6.142   8.792  0.00  0.00    +0.048 C 
ATOM     22  C   UNL     1       2.674  -6.949   8.273  0.00  0.00    +0.019 C 
ATOM     23  C   UNL     1       2.103  -7.803   9.407  0.00  0.00    -0.009 C 
ATOM     24  C   UNL     1       3.183  -8.759   9.919  0.00  0.00    +0.007 C 
ATOM     25  C   UNL     1       4.374  -7.952  10.438  0.00  0.00    -0.009 C 
ATOM     26  C   UNL     1       4.945  -7.098   9.303  0.00  0.00    +0.019 C 
ATOM     27  C   UNL     1       3.916  -7.042  11.579  0.00  0.00    +0.007 C 
ATOM     28  C   UNL     1       2.836  -6.086  11.068  0.00  0.00    -0.009 C 
ATOM     29  C   UNL     1       1.645  -6.894  10.548  0.00  0.00    +0.007 C 
ATOM     30  C   UNL     1       3.407  -5.233   9.933  0.00  0.00    +0.019 C 
ENDBRANCH  18  21
ENDBRANCH   7  17
TORSDOF 3
