REMARK  Name = ZINC38650286
REMARK  10 active torsions:
REMARK  status: ('A' for Active; 'I' for Inactive)
REMARK    1  A    between atoms: C_1  and  O_2
REMARK    2  A    between atoms: O_2  and  C_3
REMARK    3  A    between atoms: C_6  and  C_9
REMARK    4  A    between atoms: C_14  and  O_23
REMARK    5  A    between atoms: C_18  and  N_22
REMARK    6  A    between atoms: C_19  and  C_20
REMARK    7  A    between atoms: O_23  and  C_24
REMARK    8  A    between atoms: C_24  and  C_26
REMARK    9  A    between atoms: C_26  and  O_27
REMARK   10  A    between atoms: O_27  and  C_28
REMARK                            x       y       z     vdW  Elec       q    Type
REMARK                         _______ _______ _______ _____ _____    ______ ____
ROOT
ATOM      1  C   UNL     1       2.464  -2.550  -4.365  0.00  0.00    +0.098 C 
ATOM      2  C   UNL     1       3.618  -3.384  -3.874  0.00  0.00    +0.008 A 
ATOM      3  C   UNL     1       4.827  -2.773  -3.591  0.00  0.00    +0.012 A 
ATOM      4  C   UNL     1       5.896  -3.521  -3.140  0.00  0.00    +0.047 A 
ATOM      5  C   UNL     1       5.760  -4.892  -2.969  0.00  0.00    +0.135 A 
ATOM      6  C   UNL     1       4.551  -5.507  -3.251  0.00  0.00    +0.093 A 
ATOM      7  C   UNL     1       3.477  -4.752  -3.704  0.00  0.00    +0.138 A 
ATOM      8  O   UNL     1       2.300  -5.369  -3.976  0.00  0.00    -0.441 OA
ATOM      9  C   UNL     1       1.392  -4.765  -4.761  0.00  0.00    +0.199 C 
ATOM     10  C   UNL     1       1.416  -3.433  -4.983  0.00  0.00    +0.098 C 
ENDROOT
BRANCH   1  14
ATOM     11  C   UNL     1       0.758  -0.419  -1.077  0.00  0.00    +0.120 A 
ATOM     12  C   UNL     1       1.286   0.275  -2.156  0.00  0.00    +0.046 A 
ATOM     13  C   UNL     1       1.837  -0.416  -3.217  0.00  0.00    +0.008 A 
ATOM     14  C   UNL     1       1.862  -1.799  -3.205  0.00  0.00    -0.034 A 
ATOM     15  C   UNL     1       1.336  -2.493  -2.131  0.00  0.00    +0.008 A 
ATOM     16  C   UNL     1       0.790  -1.806  -1.064  0.00  0.00    +0.046 A 
BRANCH  11  18
ATOM     17  C   UNL     1       0.217   1.686  -0.113  0.00  0.00    +0.277 C 
ATOM     18  O   UNL     1       0.216   0.259  -0.031  0.00  0.00    -0.495 OA
ENDBRANCH  11  18
ENDBRANCH   1  14
BRANCH   9  19
ATOM     19  N   UNL     1       0.413  -5.523  -5.353  0.00  0.00    -0.328 N 
ATOM     20  H   UNL     1       0.384  -6.481  -5.202  0.00  0.00    +0.145 HD
ATOM     21  H   UNL     1      -0.249  -5.101  -5.922  0.00  0.00    +0.145 HD
ENDBRANCH   9  19
BRANCH  10  22
ATOM     22  C   UNL     1       0.418  -2.850  -5.829  0.00  0.00    +0.101 C 
ATOM     23  N   UNL     1      -0.373  -2.387  -6.500  0.00  0.00    -0.191 NA
ENDBRANCH  10  22
BRANCH   5  24
ATOM     24  O   UNL     1       6.812  -5.630  -2.526  0.00  0.00    -0.423 OA
BRANCH  24  25
ATOM     25  C   UNL     1       7.391  -6.483  -3.386  0.00  0.00    +0.350 C 
ATOM     26  O   UNL     1       7.043  -6.502  -4.543  0.00  0.00    -0.247 OA
BRANCH  25  27
ATOM     27  C   UNL     1       8.474  -7.416  -2.909  0.00  0.00    +0.349 C 
BRANCH  27  28
ATOM     28  O   UNL     1       8.928  -8.217  -4.002  0.00  0.00    -0.481 OA
BRANCH  28  29
ATOM     29  C   UNL     1       9.911  -9.118  -3.739  0.00  0.00    +0.121 A 
ATOM     30  C   UNL     1      10.424  -9.233  -2.455  0.00  0.00    +0.047 A 
ATOM     31  C   UNL     1      11.423 -10.149  -2.191  0.00  0.00    +0.023 A 
ATOM     32  C   UNL     1      11.912 -10.953  -3.205  0.00  0.00    +0.041 A 
ATOM     33  C   UNL     1      11.402 -10.840  -4.486  0.00  0.00    +0.023 A 
ATOM     34  C   UNL     1      10.399  -9.929  -4.754  0.00  0.00    +0.047 A 
ATOM     35 CL   UNL     1      13.168 -12.103  -2.870  0.00  0.00    -0.084 Cl
ENDBRANCH  28  29
ENDBRANCH  27  28
ENDBRANCH  25  27
ENDBRANCH  24  25
ENDBRANCH   5  24
TORSDOF 9
