REMARK  Name = ZINC44158479
REMARK  4 active torsions:
REMARK  status: ('A' for Active; 'I' for Inactive)
REMARK    1  A    between atoms: C_7  and  C_15
REMARK    2  A    between atoms: N_17  and  C_18
REMARK    3  A    between atoms: C_18  and  C_19
REMARK    4  A    between atoms: C_19  and  O_24
REMARK                            x       y       z     vdW  Elec       q    Type
REMARK                         _______ _______ _______ _____ _____    ______ ____
ROOT
ATOM      1  C   UNL     1      -0.017   1.377   0.010  0.00  0.00    +0.001 A 
ATOM      2  C   UNL     1       1.171   2.086   0.002  0.00  0.00    +0.004 A 
ATOM      3  C   UNL     1       2.376   1.412  -0.012  0.00  0.00    +0.046 A 
ATOM      4  C   UNL     1       2.398   0.022  -0.021  0.00  0.00    +0.133 A 
ATOM      5  C   UNL     1       1.207  -0.685  -0.014  0.00  0.00    +0.011 A 
ATOM      6  C   UNL     1       0.002  -0.004   0.002  0.00  0.00    +0.008 A 
ATOM      7  C   UNL     1       1.204  -2.189  -0.026  0.00  0.00    +0.142 C 
ATOM      8  C   UNL     1       2.550  -2.725   0.378  0.00  0.00    +0.011 A 
ATOM      9  C   UNL     1       2.662  -4.045   0.778  0.00  0.00    +0.008 A 
ATOM     10  C   UNL     1       3.890  -4.557   1.152  0.00  0.00    +0.001 A 
ATOM     11  C   UNL     1       5.013  -3.750   1.128  0.00  0.00    +0.004 A 
ATOM     12  C   UNL     1       4.907  -2.433   0.731  0.00  0.00    +0.046 A 
ATOM     13  C   UNL     1       3.673  -1.914   0.353  0.00  0.00    +0.133 A 
ATOM     14  O   UNL     1       3.591  -0.620  -0.036  0.00  0.00    -0.455 OA
ENDROOT
BRANCH   7  15
ATOM     15  C   UNL     1       0.872  -2.674  -1.413  0.00  0.00    +0.225 C 
ATOM     16  O   UNL     1       0.660  -1.875  -2.301  0.00  0.00    -0.275 OA
ATOM     17  N   UNL     1       0.811  -3.997  -1.668  0.00  0.00    -0.312 N 
ATOM     18  H   UNL     1       0.980  -4.636  -0.958  0.00  0.00    +0.149 HD
BRANCH  17  19
ATOM     19  C   UNL     1       0.488  -4.468  -3.017  0.00  0.00    +0.138 C 
BRANCH  19  20
ATOM     20  C   UNL     1       0.483  -5.998  -3.035  0.00  0.00    +0.081 C 
ATOM     21  C   UNL     1       1.854  -6.536  -2.575  0.00  0.00    +0.036 C 
ATOM     22  C   UNL     1       2.091  -7.782  -3.465  0.00  0.00    +0.003 C 
ATOM     23  C   UNL     1       1.518  -7.338  -4.834  0.00  0.00    +0.003 C 
ATOM     24  C   UNL     1       0.270  -6.508  -4.471  0.00  0.00    +0.036 C 
BRANCH  20  25
ATOM     25  O   UNL     1      -0.549  -6.494  -2.180  0.00  0.00    -0.387 OA
ATOM     26  H   UNL     1      -0.464  -6.216  -1.258  0.00  0.00    +0.210 HD
ENDBRANCH  20  25
ENDBRANCH  19  20
ENDBRANCH  17  19
ENDBRANCH   7  15
TORSDOF 4
