REMARK  Name = ZINC63480126
REMARK  4 active torsions:
REMARK  status: ('A' for Active; 'I' for Inactive)
REMARK    1  A    between atoms: C_7  and  C_10
REMARK    2  A    between atoms: C_10  and  C_11
REMARK    3  A    between atoms: N_19  and  C_22
REMARK    4  A    between atoms: C_26  and  N_28
REMARK                            x       y       z     vdW  Elec       q    Type
REMARK                         _______ _______ _______ _____ _____    ______ ____
ROOT
ATOM      1  C   UNL     1       0.578  -3.960  -1.269  0.00  0.00    +0.072 C 
ATOM      2  C   UNL     1      -0.465  -5.074  -1.501  0.00  0.00    +0.107 C 
ATOM      3  C   UNL     1      -1.323  -4.575  -2.697  0.00  0.00    +0.123 C 
ATOM      4  C   UNL     1      -2.692  -4.381  -2.086  0.00  0.00    +0.233 C 
ATOM      5  O   UNL     1      -3.678  -4.004  -2.681  0.00  0.00    -0.274 OA
ATOM      6  N   UNL     1      -2.647  -4.691  -0.785  0.00  0.00    -0.210 N 
ATOM      7  C   UNL     1      -1.435  -5.100  -0.343  0.00  0.00    +0.232 C 
ATOM      8  O   UNL     1      -1.163  -5.431   0.792  0.00  0.00    -0.274 OA
ATOM      9  C   UNL     1      -0.713  -3.219  -3.070  0.00  0.00    +0.136 C 
ATOM     10  N   UNL     1      -0.036  -2.733  -1.845  0.00  0.00    -0.295 NA
ATOM     11  C   UNL     1      -1.764  -2.247  -3.525  0.00  0.00    +0.003 A 
ATOM     12  C   UNL     1      -2.891  -1.723  -2.933  0.00  0.00    +0.008 A 
ATOM     13  C   UNL     1      -3.683  -0.823  -3.625  0.00  0.00    +0.000 A 
ATOM     14  C   UNL     1      -3.338  -0.452  -4.912  0.00  0.00    +0.002 A 
ATOM     15  C   UNL     1      -2.210  -0.974  -5.510  0.00  0.00    +0.023 A 
ATOM     16  C   UNL     1      -1.408  -1.881  -4.820  0.00  0.00    +0.039 A 
ATOM     17  N   UNL     1      -0.237  -2.538  -5.204  0.00  0.00    -0.283 N 
ATOM     18  C   UNL     1       0.235  -3.343  -4.232  0.00  0.00    +0.243 C 
ATOM     19  O   UNL     1       1.230  -4.034  -4.284  0.00  0.00    -0.273 OA
ATOM     20  H   UNL     1      -0.691  -2.320  -1.199  0.00  0.00    +0.124 HD
ATOM     21  H   UNL     1       0.188  -2.427  -6.069  0.00  0.00    +0.155 HD
ENDROOT
BRANCH   6  22
ATOM     22  C   UNL     1      -3.766  -4.606   0.055  0.00  0.00    +0.046 A 
ATOM     23  C   UNL     1      -4.837  -5.471  -0.125  0.00  0.00    +0.024 A 
ATOM     24  C   UNL     1      -5.939  -5.384   0.704  0.00  0.00    +0.004 A 
ATOM     25  C   UNL     1      -5.976  -4.438   1.711  0.00  0.00    +0.033 A 
ATOM     26  C   UNL     1      -4.911  -3.575   1.892  0.00  0.00    +0.128 A 
ATOM     27  C   UNL     1      -3.803  -3.660   1.070  0.00  0.00    +0.056 A 
BRANCH  26  28
ATOM     28  N   UNL     1      -4.954  -2.562   2.971  0.00  0.00    +0.056 N 
ATOM     29  O   UNL     1      -5.920  -2.490   3.694  0.00  0.00    -0.126 OA
ATOM     30  O   UNL     1      -4.023  -1.808   3.130  0.00  0.00    -0.126 OA
ENDBRANCH  26  28
ENDBRANCH   6  22
BRANCH   1  31
ATOM     31  C   UNL     1       0.834  -3.774   0.228  0.00  0.00    +0.052 C 
BRANCH  31  38
ATOM     32  C   UNL     1       0.702   0.742   1.030  0.00  0.00    +0.001 A 
ATOM     33  C   UNL     1       1.970   1.328   1.153  0.00  0.00    +0.002 A 
ATOM     34  C   UNL     1       3.114   0.620   1.044  0.00  0.00    +0.026 A 
ATOM     35  C   UNL     1       3.073  -0.779   0.795  0.00  0.00    +0.043 A 
ATOM     36  N   UNL     1       4.025  -1.669   0.651  0.00  0.00    -0.380 N 
ATOM     37  C   UNL     1       3.410  -2.978   0.408  0.00  0.00    +0.144 C 
ATOM     38  C   UNL     1       1.916  -2.744   0.428  0.00  0.00    -0.040 C 
ATOM     39  C   UNL     1       1.746  -1.422   0.661  0.00  0.00    -0.001 A 
ATOM     40  C   UNL     1       0.551  -0.581   0.792  0.00  0.00    +0.010 A 
ATOM     41  H   UNL     1       4.978  -1.490   0.696  0.00  0.00    +0.160 HD
ENDBRANCH  31  38
ENDBRANCH   1  31
TORSDOF 4
