REMARK  Name = ZINC39674103
REMARK  8 active torsions:
REMARK  status: ('A' for Active; 'I' for Inactive)
REMARK    1  A    between atoms: C_1  and  C_2
REMARK    2  A    between atoms: C_4  and  C_12
REMARK    3  A    between atoms: C_12  and  C_13
REMARK    4  A    between atoms: C_13  and  N_14
REMARK    5  A    between atoms: C_15  and  C_17
REMARK    6  A    between atoms: C_28  and  C_30
REMARK    7  A    between atoms: C_31  and  C_42
REMARK    8  A    between atoms: C_34  and  C_36
REMARK                            x       y       z     vdW  Elec       q    Type
REMARK                         _______ _______ _______ _____ _____    ______ ____
ROOT
ATOM      1  C   UNL     1      -3.016   2.647   3.901  0.00  0.00    +0.100 C 
ATOM      2  C   UNL     1      -3.441   2.075   5.272  0.00  0.00    +0.121 C 
ATOM      3  N   UNL     1      -3.619   3.266   6.136  0.00  0.00    -0.296 N 
ATOM      4  C   UNL     1      -4.255   4.271   5.252  0.00  0.00    +0.115 C 
ATOM      5  C   UNL     1      -3.555   4.088   3.890  0.00  0.00    -0.004 C 
ATOM      6  C   UNL     1      -4.555   4.269   2.753  0.00  0.00    -0.010 C 
ATOM      7  C   UNL     1      -5.033   5.723   2.726  0.00  0.00    -0.082 C 
ATOM      8  N   UNL     1      -3.882   6.615   2.539  0.00  0.00    +0.379 N 
ATOM      9  C   UNL     1      -2.970   6.503   3.684  0.00  0.00    -0.082 C 
ATOM     10  C   UNL     1      -2.405   5.081   3.751  0.00  0.00    -0.010 C 
ATOM     11  C   UNL     1      -3.280   3.403   7.434  0.00  0.00    +0.248 C 
ATOM     12  O   UNL     1      -2.690   2.506   8.007  0.00  0.00    -0.270 OA
ATOM     13  H   UNL     1      -3.393   6.358   1.695  0.00  0.00    -0.086 HD
ATOM     14  H   UNL     1      -4.206   7.568   2.461  0.00  0.00    -0.086 HD
ENDROOT
BRANCH  11  15
ATOM     15  C   UNL     1      -3.611   4.593   8.130  0.00  0.00    +0.078 C 
ATOM     16  C   UNL     1      -2.839   5.229   9.028  0.00  0.00    +0.132 C 
ATOM     17  O   UNL     1      -3.442   6.328   9.519  0.00  0.00    -0.410 OA
ATOM     18  N   UNL     1      -4.546   6.688   8.611  0.00  0.00    -0.144 NA
ATOM     19  C   UNL     1      -4.898   5.385   7.995  0.00  0.00    +0.161 C 
ATOM     20  C   UNL     1      -1.464   4.768   9.436  0.00  0.00    +0.089 C 
ATOM     21  H   UNL     1      -4.237   7.344   7.910  0.00  0.00    +0.168 HD
BRANCH  19  22
ATOM     22  C   UNL     1      -6.017   4.721   8.756  0.00  0.00    -0.023 A 
ATOM     23  C   UNL     1      -5.888   4.491  10.113  0.00  0.00    +0.005 A 
ATOM     24  C   UNL     1      -6.914   3.883  10.812  0.00  0.00    +0.000 A 
ATOM     25  C   UNL     1      -8.069   3.505  10.153  0.00  0.00    +0.000 A 
ATOM     26  C   UNL     1      -8.198   3.735   8.796  0.00  0.00    +0.000 A 
ATOM     27  C   UNL     1      -7.174   4.348   8.099  0.00  0.00    +0.005 A 
ENDBRANCH  19  22
ENDBRANCH  11  15
BRANCH   1  29
ATOM     28  N   UNL     1      -0.939   2.620   2.558  0.00  0.00    -0.315 N 
ATOM     29  C   UNL     1      -1.514   2.648   3.777  0.00  0.00    +0.218 C 
ATOM     30  O   UNL     1      -0.823   2.675   4.773  0.00  0.00    -0.275 OA
ATOM     31  H   UNL     1      -1.490   2.664   1.761  0.00  0.00    +0.149 HD
BRANCH  28  32
ATOM     32  C   UNL     1       0.518   2.522   2.437  0.00  0.00    +0.109 C 
BRANCH  32  33
ATOM     33  C   UNL     1       0.899   2.384   0.962  0.00  0.00    +0.056 C 
BRANCH  33  37
ATOM     34  C   UNL     1       2.330  -0.362   0.748  0.00  0.00    +0.063 C 
ATOM     35  C   UNL     1       3.013   0.981   0.753  0.00  0.00    +0.017 A 
ATOM     36  H   UNL     1       5.026   0.469   0.597  0.00  0.00    +0.166 HD
ATOM     37  C   UNL     1       2.386   2.164   0.846  0.00  0.00    -0.018 A 
ATOM     38  C   UNL     1       3.420   3.201   0.812  0.00  0.00    +0.003 A 
ATOM     39  C   UNL     1       3.398   4.596   0.871  0.00  0.00    +0.010 A 
ATOM     40  C   UNL     1       4.571   5.296   0.814  0.00  0.00    +0.001 A 
ATOM     41  C   UNL     1       5.784   4.631   0.699  0.00  0.00    +0.002 A 
ATOM     42  C   UNL     1       5.828   3.255   0.640  0.00  0.00    +0.026 A 
ATOM     43  C   UNL     1       4.647   2.523   0.696  0.00  0.00    +0.047 A 
ATOM     44  N   UNL     1       4.365   1.175   0.668  0.00  0.00    -0.358 N 
ENDBRANCH  33  37
ENDBRANCH  32  33
ENDBRANCH  28  32
ENDBRANCH   1  29
TORSDOF 6
