REMARK  Name = ZINC40814694
REMARK  12 active torsions:
REMARK  status: ('A' for Active; 'I' for Inactive)
REMARK    1  A    between atoms: C_1  and  C_2
REMARK    2  A    between atoms: C_6  and  C_7
REMARK    3  A    between atoms: N_9  and  C_10
REMARK    4  A    between atoms: C_10  and  C_11
REMARK    5  A    between atoms: C_11  and  C_12
REMARK    6  A    between atoms: C_15  and  O_20
REMARK    7  A    between atoms: C_16  and  O_18
REMARK    8  A    between atoms: O_18  and  C_19
REMARK    9  A    between atoms: O_20  and  C_21
REMARK   10  A    between atoms: N_26  and  N_27
REMARK   11  A    between atoms: N_27  and  C_28
REMARK   12  A    between atoms: C_31  and  N_34
REMARK                            x       y       z     vdW  Elec       q    Type
REMARK                         _______ _______ _______ _____ _____    ______ ____
ROOT
ATOM      1  C   UNL     1      -0.018   1.503   0.010  0.00  0.00    +0.048 C 
ATOM      2  C   UNL     1       0.002  -0.004   0.002  0.00  0.00    +0.009 A 
ATOM      3  C   UNL     1       0.009  -0.838  -1.123  0.00  0.00    +0.042 A 
ATOM      4  C   UNL     1       0.027  -2.137  -0.673  0.00  0.00    +0.115 A 
ATOM      5  O   UNL     1       0.035  -2.112   0.658  0.00  0.00    -0.454 OA
ATOM      6  C   UNL     1       0.024  -0.830   1.091  0.00  0.00    +0.193 A 
ATOM      7  C   UNL     1       0.034  -3.326  -1.600  0.00  0.00    +0.075 C 
ATOM      8  C   UNL     1      -0.491  -2.902  -2.974  0.00  0.00    +0.014 C 
ATOM      9  C   UNL     1       0.279  -1.684  -3.495  0.00  0.00    +0.058 C 
ATOM     10  C   UNL     1       0.000  -0.511  -2.566  0.00  0.00    +0.070 C 
ATOM     11  N   UNL     1      -0.228   0.687  -3.008  0.00  0.00    -0.186 NA
ENDROOT
BRANCH   6  12
ATOM     12  C   UNL     1       0.032  -0.400   2.494  0.00  0.00    +0.280 C 
ATOM     13  O   UNL     1       0.018   0.786   2.766  0.00  0.00    -0.267 OA
ATOM     14  N   UNL     1       0.054  -1.317   3.480  0.00  0.00    -0.309 N 
ATOM     15  H   UNL     1       0.065  -2.263   3.263  0.00  0.00    +0.149 HD
BRANCH  14  16
ATOM     16  C   UNL     1       0.061  -0.887   4.881  0.00  0.00    +0.109 C 
BRANCH  16  17
ATOM     17  C   UNL     1       0.087  -2.116   5.792  0.00  0.00    +0.054 C 
BRANCH  17  18
ATOM     18  C   UNL     1       0.095  -1.674   7.232  0.00  0.00    -0.042 A 
ATOM     19  C   UNL     1       1.297  -1.449   7.878  0.00  0.00    +0.007 A 
ATOM     20  C   UNL     1       1.309  -1.043   9.200  0.00  0.00    +0.049 A 
ATOM     21  C   UNL     1       0.116  -0.860   9.880  0.00  0.00    +0.161 A 
ATOM     22  C   UNL     1      -1.094  -1.086   9.229  0.00  0.00    +0.162 A 
ATOM     23  C   UNL     1      -1.099  -1.488   7.903  0.00  0.00    +0.053 A 
BRANCH  22  24
ATOM     24  O   UNL     1      -2.268  -0.907   9.892  0.00  0.00    -0.491 OA
ATOM     25  C   UNL     1      -3.470  -1.158   9.161  0.00  0.00    +0.277 C 
ENDBRANCH  22  24
BRANCH  21  26
ATOM     26  O   UNL     1       0.126  -0.461  11.180  0.00  0.00    -0.491 OA
ATOM     27  C   UNL     1       1.404  -0.249  11.783  0.00  0.00    +0.277 C 
ENDBRANCH  21  26
ENDBRANCH  17  18
ENDBRANCH  16  17
ENDBRANCH  14  16
ENDBRANCH   6  12
BRANCH  11  28
ATOM     28  N   UNL     1      -0.224   0.939  -4.386  0.00  0.00    -0.238 N 
ATOM     29  H   UNL     1      -0.050   0.217  -5.010  0.00  0.00    +0.174 HD
BRANCH  28  30
ATOM     30  C   UNL     1      -0.469   2.227  -4.860  0.00  0.00    +0.048 A 
ATOM     31  C   UNL     1      -0.713   3.264  -3.967  0.00  0.00    +0.027 A 
ATOM     32  C   UNL     1      -0.956   4.538  -4.441  0.00  0.00    +0.034 A 
ATOM     33  C   UNL     1      -0.956   4.784  -5.802  0.00  0.00    +0.126 A 
ATOM     34  C   UNL     1      -0.714   3.755  -6.694  0.00  0.00    +0.034 A 
ATOM     35  C   UNL     1      -0.466   2.479  -6.228  0.00  0.00    +0.027 A 
BRANCH  33  36
ATOM     36  N   UNL     1      -1.218   6.154  -6.306  0.00  0.00    +0.056 N 
ATOM     37  O   UNL     1      -1.431   7.055  -5.528  0.00  0.00    -0.126 OA
ATOM     38  O   UNL     1      -1.219   6.371  -7.496  0.00  0.00    -0.126 OA
ENDBRANCH  33  36
ENDBRANCH  28  30
ENDBRANCH  11  28
TORSDOF 9
