REMARK  Name = ZINC35288014
REMARK  5 active torsions:
REMARK  status: ('A' for Active; 'I' for Inactive)
REMARK    1  A    between atoms: C_6  and  C_7
REMARK    2  A    between atoms: C_7  and  O_8
REMARK    3  A    between atoms: O_8  and  C_9
REMARK    4  A    between atoms: C_12  and  C_15
REMARK    5  A    between atoms: C_18  and  C_22
REMARK                            x       y       z     vdW  Elec       q    Type
REMARK                         _______ _______ _______ _____ _____    ______ ____
ROOT
ATOM      1  C   UNL     1      -2.873  -1.699  -1.504  0.00  0.00    +0.121 A 
ATOM      2  C   UNL     1      -3.591  -2.132  -0.396  0.00  0.00    +0.046 A 
ATOM      3  C   UNL     1      -4.767  -2.829  -0.564  0.00  0.00    +0.015 A 
ATOM      4  C   UNL     1      -5.238  -3.101  -1.851  0.00  0.00    +0.016 A 
ATOM      5  C   UNL     1      -4.513  -2.664  -2.963  0.00  0.00    +0.015 A 
ATOM      6  C   UNL     1      -3.341  -1.963  -2.786  0.00  0.00    +0.046 A 
ENDROOT
BRANCH   4   7
ATOM      7  C   UNL     1      -6.497  -3.849  -2.036  0.00  0.00    +0.121 A 
ATOM      8  N   UNL     1      -7.458  -3.743  -1.118  0.00  0.00    -0.308 N 
ATOM      9  C   UNL     1      -8.618  -4.412  -1.258  0.00  0.00    +0.259 A 
ATOM     10  C   UNL     1      -8.807  -5.220  -2.375  0.00  0.00    +0.084 A 
ATOM     11  C   UNL     1      -7.784  -5.308  -3.315  0.00  0.00    +0.259 A 
ATOM     12  N   UNL     1      -6.650  -4.609  -3.120  0.00  0.00    -0.308 N 
ATOM     13  O   UNL     1      -7.929  -6.076  -4.404  0.00  0.00    -0.267 OA
ATOM     14  O   UNL     1      -9.580  -4.303  -0.330  0.00  0.00    -0.267 OA
ATOM     15  H   UNL     1      -5.934  -4.663  -3.773  0.00  0.00    +0.170 HD
ATOM     16  H   UNL     1      -7.320  -3.179  -0.341  0.00  0.00    +0.170 HD
BRANCH  10  17
ATOM     17  C   UNL     1     -10.093  -5.984  -2.564  0.00  0.00    +0.030 C 
ATOM     18  C   UNL     1     -11.290  -5.011  -2.558  0.00  0.00    +0.008 C 
ATOM     19  C   UNL     1     -12.408  -5.790  -1.820  0.00  0.00    +0.001 C 
ATOM     20  C   UNL     1     -11.628  -6.536  -0.709  0.00  0.00    +0.001 C 
ATOM     21  C   UNL     1     -10.307  -6.953  -1.388  0.00  0.00    +0.008 C 
ENDBRANCH  10  17
ENDBRANCH   4   7
BRANCH   1  22
ATOM     22  O   UNL     1      -1.715  -1.011  -1.334  0.00  0.00    -0.487 OA
BRANCH  22  23
ATOM     23  C   UNL     1      -1.293  -0.775   0.011  0.00  0.00    +0.264 C 
BRANCH  23  29
ATOM     24  C   UNL     1      -0.017   1.378   0.010  0.00  0.00    +0.008 A 
ATOM     25  C   UNL     1       1.171   2.086   0.002  0.00  0.00    +0.020 A 
ATOM     26  C   UNL     1       2.378   1.410  -0.013  0.00  0.00    +0.041 A 
ATOM     27  C   UNL     1       2.396   0.027  -0.021  0.00  0.00    +0.020 A 
ATOM     28  C   UNL     1       1.208  -0.679  -0.013  0.00  0.00    +0.008 A 
ATOM     29  C   UNL     1       0.002  -0.004   0.002  0.00  0.00    -0.010 A 
ATOM     30 CL   UNL     1       3.870   2.298  -0.023  0.00  0.00    -0.084 Cl
ENDBRANCH  23  29
ENDBRANCH  22  23
ENDBRANCH   1  22
TORSDOF 5
