REMARK  Name = ZINC20911781
REMARK  14 active torsions:
REMARK  status: ('A' for Active; 'I' for Inactive)
REMARK    1  A    between atoms: C_1  and  C_2
REMARK    2  A    between atoms: C_3  and  C_11
REMARK    3  A    between atoms: C_4  and  C_10
REMARK    4  A    between atoms: N_5  and  C_7
REMARK    5  A    between atoms: C_7  and  C_8
REMARK    6  A    between atoms: C_7  and  C_9
REMARK    7  A    between atoms: N_12  and  N_13
REMARK    8  A    between atoms: C_17  and  S_20
REMARK    9  A    between atoms: N_18  and  N_19
REMARK   10  A    between atoms: S_20  and  C_21
REMARK   11  A    between atoms: C_21  and  C_22
REMARK   12  A    between atoms: N_24  and  C_25
REMARK   13  A    between atoms: C_29  and  O_31
REMARK   14  A    between atoms: O_31  and  C_32
REMARK                            x       y       z     vdW  Elec       q    Type
REMARK                         _______ _______ _______ _____ _____    ______ ____
ROOT
ATOM      1  N   UNL     1      -1.181   2.108  -0.516  0.00  0.00    -0.204 N 
ATOM      2  C   UNL     1      -0.045   1.316  -0.428  0.00  0.00    +0.254 A 
ATOM      3  N   UNL     1       1.181   1.745  -0.249  0.00  0.00    -0.109 NA
ATOM      4  N   UNL     1       2.030   0.631  -0.224  0.00  0.00    -0.119 NA
ATOM      5  C   UNL     1       1.294  -0.443  -0.389  0.00  0.00    +0.210 A 
ATOM      6  N   UNL     1      -0.007  -0.048  -0.519  0.00  0.00    -0.211 N 
ATOM      7  H   UNL     1      -2.165   1.642  -0.673  0.00  0.00    +0.177 HD
ENDROOT
BRANCH   6   8
ATOM      8  N   UNL     1      -1.081  -0.870  -0.707  0.00  0.00    -0.294 N 
ATOM      9  H   UNL     1      -0.936  -1.959  -0.766  0.00  0.00    +0.163 HD
ATOM     10  H   UNL     1      -2.091  -0.444  -0.799  0.00  0.00    +0.163 HD
ENDBRANCH   6   8
BRANCH   1  12
ATOM     11  C   UNL     1      -2.137   4.240  -0.487  0.00  0.00    +0.141 C 
ATOM     12  N   UNL     1      -1.075   3.500  -0.405  0.00  0.00    -0.187 NA
BRANCH  11  15
ATOM     13  C   UNL     1       0.548   5.865  -0.035  0.00  0.00    +0.068 C 
ATOM     14  C   UNL     1      -0.838   6.443  -0.169  0.00  0.00    +0.069 A 
ATOM     15  C   UNL     1      -2.026   5.708  -0.370  0.00  0.00    +0.038 A 
ATOM     16  C   UNL     1      -3.061   6.614  -0.443  0.00  0.00    +0.045 A 
ATOM     17  N   UNL     1      -2.531   7.844  -0.283  0.00  0.00    -0.265 N 
ATOM     18  N   UNL     1      -1.148   7.710  -0.119  0.00  0.00    -0.175 NA
ATOM     19  C   UNL     1      -4.517   6.291  -0.656  0.00  0.00    +0.066 C 
BRANCH  17  20
ATOM     20  C   UNL     1      -3.276   9.106  -0.288  0.00  0.00    +0.101 C 
ATOM     21  C   UNL     1      -3.076   9.821   1.050  0.00  0.00    +0.032 C 
ATOM     22  C   UNL     1      -2.766   9.995  -1.423  0.00  0.00    +0.032 C 
ENDBRANCH  17  20
ENDBRANCH  11  15
ENDBRANCH   1  12
BRANCH   5  23
ATOM     23  S   UNL     1       1.882  -2.103  -0.434  0.00  0.00    -0.075 S 
BRANCH  23  24
ATOM     24  C   UNL     1       3.674  -1.941  -0.205  0.00  0.00    +0.173 C 
BRANCH  24  25
ATOM     25  C   UNL     1       4.308  -3.308  -0.224  0.00  0.00    +0.227 C 
ATOM     26  O   UNL     1       3.619  -4.295  -0.376  0.00  0.00    -0.275 OA
ATOM     27  N   UNL     1       5.641  -3.435  -0.070  0.00  0.00    -0.285 N 
ATOM     28  H   UNL     1       6.277  -2.538  -0.019  0.00  0.00    +0.155 HD
BRANCH  27  29
ATOM     29  C   UNL     1       6.218  -4.707   0.023  0.00  0.00    +0.037 A 
ATOM     30  C   UNL     1       5.522  -5.742   0.636  0.00  0.00    +0.025 A 
ATOM     31  C   UNL     1       6.089  -6.999   0.723  0.00  0.00    +0.025 A 
ATOM     32  C   UNL     1       7.353  -7.227   0.212  0.00  0.00    +0.083 A 
ATOM     33  C   UNL     1       8.054  -6.195  -0.397  0.00  0.00    +0.140 A 
ATOM     34  C   UNL     1       7.486  -4.934  -0.491  0.00  0.00    +0.070 A 
ATOM     35 CL   UNL     1       8.064  -8.806   0.330  0.00  0.00    -0.080 Cl
BRANCH  33  36
ATOM     36  O   UNL     1       9.297  -6.420  -0.900  0.00  0.00    -0.494 OA
ATOM     37  C   UNL     1       9.960  -5.313  -1.512  0.00  0.00    +0.277 C 
ENDBRANCH  33  36
ENDBRANCH  27  29
ENDBRANCH  24  25
ENDBRANCH  23  24
ENDBRANCH   5  23
TORSDOF 9
