REMARK  Name = ZINC08395563
REMARK  5 active torsions:
REMARK  status: ('A' for Active; 'I' for Inactive)
REMARK    1  A    between atoms: C_4  and  C_7
REMARK    2  A    between atoms: C_9  and  N_18
REMARK    3  A    between atoms: N_18  and  N_19
REMARK    4  A    between atoms: N_19  and  C_20
REMARK    5  A    between atoms: N_25  and  C_28
REMARK                            x       y       z     vdW  Elec       q    Type
REMARK                         _______ _______ _______ _____ _____    ______ ____
ROOT
ATOM      1  N   UNL     1       6.815  -0.386  -2.304  0.00  0.00    -0.264 N 
ATOM      2  H   UNL     1       6.785   0.215  -3.065  0.00  0.00    +0.168 HD
ENDROOT
BRANCH   1   5
ATOM      3  C   UNL     1       3.460   0.140  -0.926  0.00  0.00    -0.005 A 
ATOM      4  C   UNL     1       4.570   0.250  -1.750  0.00  0.00    +0.053 A 
ATOM      5  C   UNL     1       5.712  -0.506  -1.470  0.00  0.00    +0.134 A 
ATOM      6  N   UNL     1       5.779  -1.329  -0.445  0.00  0.00    -0.231 NA
ATOM      7  C   UNL     1       4.757  -1.498   0.401  0.00  0.00    +0.074 A 
ATOM      8  C   UNL     1       3.555  -0.775   0.211  0.00  0.00    +0.010 A 
ATOM      9  C   UNL     1       2.489  -0.949   1.101  0.00  0.00    +0.030 A 
ATOM     10  C   UNL     1       2.621  -1.814   2.149  0.00  0.00    +0.042 A 
ATOM     11  C   UNL     1       3.804  -2.524   2.343  0.00  0.00    +0.022 A 
ATOM     12  C   UNL     1       4.855  -2.384   1.488  0.00  0.00    +0.030 A 
ATOM     13 CL   UNL     1       1.300  -2.030   3.254  0.00  0.00    -0.084 Cl
BRANCH   3  17
ATOM     14  C   UNL     1      -0.072   2.385  -1.667  0.00  0.00    +0.000 A 
ATOM     15  C   UNL     1       1.156   3.021  -1.644  0.00  0.00    +0.001 A 
ATOM     16  C   UNL     1       2.307   2.298  -1.404  0.00  0.00    +0.008 A 
ATOM     17  C   UNL     1       2.229   0.923  -1.184  0.00  0.00    -0.017 A 
ATOM     18  C   UNL     1       0.988   0.288  -1.208  0.00  0.00    +0.008 A 
ATOM     19  C   UNL     1      -0.155   1.022  -1.449  0.00  0.00    +0.001 A 
ENDBRANCH   3  17
ENDBRANCH   1   5
BRANCH   1  20
ATOM     20  N   UNL     1       7.944  -1.113  -2.053  0.00  0.00    -0.229 NA
ATOM     21  H   UNL     1       7.736  -2.100  -2.013  0.00  0.00    +0.145 HD
BRANCH  20  22
ATOM     22  C   UNL     1       8.983  -0.834  -3.053  0.00  0.00    +0.168 C 
ATOM     23  C   UNL     1       9.913  -2.053  -3.224  0.00  0.00    +0.126 C 
ATOM     24  C   UNL     1      11.270  -1.523  -2.815  0.00  0.00    +0.228 C 
ATOM     25  O   UNL     1      12.299  -2.164  -2.802  0.00  0.00    -0.275 OA
ATOM     26  N   UNL     1      11.154  -0.235  -2.469  0.00  0.00    -0.209 N 
ATOM     27  C   UNL     1       9.910   0.259  -2.567  0.00  0.00    +0.245 C 
ATOM     28  O   UNL     1       9.579   1.396  -2.308  0.00  0.00    -0.273 OA
BRANCH  26  29
ATOM     29  C   UNL     1      12.244   0.537  -2.042  0.00  0.00    +0.044 A 
ATOM     30  C   UNL     1      13.261   0.857  -2.931  0.00  0.00    +0.027 A 
ATOM     31  C   UNL     1      14.334   1.617  -2.509  0.00  0.00    +0.040 A 
ATOM     32  C   UNL     1      14.395   2.061  -1.198  0.00  0.00    +0.124 A 
ATOM     33  C   UNL     1      13.382   1.743  -0.309  0.00  0.00    +0.040 A 
ATOM     34  C   UNL     1      12.305   0.988  -0.730  0.00  0.00    +0.027 A 
ATOM     35  F   UNL     1      15.446   2.804  -0.786  0.00  0.00    -0.205 F 
ENDBRANCH  26  29
ENDBRANCH  20  22
ENDBRANCH   1  20
TORSDOF 5
