REMARK  Name = ZINC34699203
REMARK  11 active torsions:
REMARK  status: ('A' for Active; 'I' for Inactive)
REMARK    1  A    between atoms: C_1  and  C_2
REMARK    2  A    between atoms: C_6  and  C_8
REMARK    3  A    between atoms: N_10  and  C_11
REMARK    4  A    between atoms: N_10  and  C_36
REMARK    5  A    between atoms: C_11  and  C_12
REMARK    6  A    between atoms: N_15  and  C_26
REMARK    7  A    between atoms: C_17  and  C_19
REMARK    8  A    between atoms: C_26  and  C_27
REMARK    9  A    between atoms: C_30  and  O_34
REMARK   10  A    between atoms: C_32  and  O_33
REMARK   11  A    between atoms: O_34  and  C_35
REMARK                            x       y       z     vdW  Elec       q    Type
REMARK                         _______ _______ _______ _____ _____    ______ ____
ROOT
ATOM      1  C   UNL     1      -0.777  -5.578   4.217  0.00  0.00    -0.005 C 
ATOM      2  C   UNL     1      -1.118  -6.764   3.290  0.00  0.00    -0.073 C 
ATOM      3  N   UNL     1      -0.479  -7.940   3.935  0.00  0.00    +0.383 N 
ATOM      4  C   UNL     1      -0.709  -7.729   5.388  0.00  0.00    -0.070 C 
ATOM      5  C   UNL     1      -0.509  -6.210   5.598  0.00  0.00    +0.005 C 
ATOM      6  H   UNL     1       0.510  -7.959   3.734  0.00  0.00    -0.081 HD
ENDROOT
BRANCH   5   7
ATOM      7  C   UNL     1      -1.492  -5.686   6.613  0.00  0.00    -0.046 A 
ATOM      8  C   UNL     1      -2.847  -5.888   6.430  0.00  0.00    +0.006 A 
ATOM      9  C   UNL     1      -3.750  -5.409   7.361  0.00  0.00    +0.038 A 
ATOM     10  C   UNL     1      -3.296  -4.726   8.476  0.00  0.00    +0.123 A 
ATOM     11  C   UNL     1      -1.938  -4.525   8.659  0.00  0.00    +0.038 A 
ATOM     12  C   UNL     1      -1.037  -5.010   7.730  0.00  0.00    +0.006 A 
ATOM     13  F   UNL     1      -4.177  -4.257   9.386  0.00  0.00    -0.205 F 
ENDBRANCH   5   7
BRANCH   1  14
ATOM     14  C   UNL     1       0.472  -4.852   3.713  0.00  0.00    +0.110 C 
BRANCH  14  17
ATOM     15  C   UNL     1      -0.115  -2.871   2.421  0.00  0.00    +0.247 C 
ATOM     16  O   UNL     1      -0.469  -2.342   1.386  0.00  0.00    -0.270 OA
ATOM     17  N   UNL     1       0.172  -4.188   2.442  0.00  0.00    -0.294 N 
BRANCH  15  23
ATOM     18  C   UNL     1       0.780   1.494   4.668  0.00  0.00    +0.044 C 
ATOM     19  C   UNL     1       0.432   0.029   4.744  0.00  0.00    -0.050 A 
ATOM     20  C   UNL     1       0.222  -0.568   5.974  0.00  0.00    +0.003 A 
ATOM     21  C   UNL     1      -0.098  -1.912   6.053  0.00  0.00    +0.001 A 
ATOM     22  C   UNL     1      -0.208  -2.665   4.902  0.00  0.00    +0.013 A 
ATOM     23  C   UNL     1       0.002  -2.069   3.658  0.00  0.00    +0.037 A 
ATOM     24  C   UNL     1       0.319  -0.712   3.586  0.00  0.00    +0.016 A 
ENDBRANCH  15  23
BRANCH  17  25
ATOM     25  C   UNL     1       0.183  -4.955   1.194  0.00  0.00    +0.076 C 
ATOM     26  C   UNL     1       0.237  -4.169  -0.117  0.00  0.00    +0.024 C 
ATOM     27  C   UNL     1      -1.057  -4.870   0.302  0.00  0.00    +0.024 C 
ENDBRANCH  17  25
ENDBRANCH  14  17
ENDBRANCH   1  14
BRANCH   3  28
ATOM     28  C   UNL     1      -1.121  -9.184   3.489  0.00  0.00    -0.039 C 
BRANCH  28  29
ATOM     29  C   UNL     1      -0.379 -10.365   4.059  0.00  0.00    -0.022 A 
ATOM     30  C   UNL     1       0.532 -11.051   3.278  0.00  0.00    +0.009 A 
ATOM     31  C   UNL     1       1.214 -12.134   3.799  0.00  0.00    +0.046 A 
ATOM     32  C   UNL     1       0.986 -12.536   5.107  0.00  0.00    +0.124 A 
ATOM     33  C   UNL     1       0.073 -11.849   5.893  0.00  0.00    +0.091 A 
ATOM     34  C   UNL     1      -0.606 -10.758   5.370  0.00  0.00    +0.122 A 
BRANCH  34  35
ATOM     35  O   UNL     1      -1.497 -10.079   6.140  0.00  0.00    -0.506 OA
ATOM     36  H   UNL     1      -2.400 -10.420   6.089  0.00  0.00    +0.292 HD
ENDBRANCH  34  35
BRANCH  32  37
ATOM     37  O   UNL     1       1.656 -13.601   5.618  0.00  0.00    -0.495 OA
ATOM     38  C   UNL     1       2.581 -14.262   4.752  0.00  0.00    +0.277 C 
ENDBRANCH  32  37
ENDBRANCH  28  29
ENDBRANCH   3  28
TORSDOF 9
