REMARK  Name = ZINC45410967
REMARK  10 active torsions:
REMARK  status: ('A' for Active; 'I' for Inactive)
REMARK    1  A    between atoms: C_1  and  C_2
REMARK    2  A    between atoms: C_2  and  C_3
REMARK    3  A    between atoms: C_3  and  C_4
REMARK    4  A    between atoms: C_4  and  N_5
REMARK    5  A    between atoms: C_6  and  C_8
REMARK    6  A    between atoms: C_8  and  N_9
REMARK    7  A    between atoms: N_12  and  C_15
REMARK    8  A    between atoms: C_15  and  C_17
REMARK    9  A    between atoms: C_15  and  C_18
REMARK   10  A    between atoms: C_30  and  C_34
REMARK                            x       y       z     vdW  Elec       q    Type
REMARK                         _______ _______ _______ _____ _____    ______ ____
ROOT
ATOM      1  C   UNL     1       3.599  -9.841   3.973  0.00  0.00    -0.004 C 
ATOM      2  C   UNL     1       2.141 -10.235   3.728  0.00  0.00    -0.005 C 
ENDROOT
BRANCH   1   3
ATOM      3  C   UNL     1       4.454 -10.352   2.843  0.00  0.00    +0.097 A 
ATOM      4  N   UNL     1       4.403 -11.667   2.509  0.00  0.00    -0.312 N 
ATOM      5  H   UNL     1       3.816 -12.260   3.004  0.00  0.00    +0.170 HD
ATOM      6  C   UNL     1       5.150 -12.165   1.506  0.00  0.00    +0.260 A 
ATOM      7  O   UNL     1       5.092 -13.348   1.219  0.00  0.00    -0.267 OA
ATOM      8  C   UNL     1       6.015 -11.281   0.782  0.00  0.00    +0.075 A 
ATOM      9  C   UNL     1       6.908 -11.595  -0.333  0.00  0.00    -0.023 A 
ATOM     10  C   UNL     1       7.625 -10.574  -0.849  0.00  0.00    -0.004 A 
ATOM     11  S   UNL     1       7.158  -9.156   0.106  0.00  0.00    -0.073 S 
ATOM     12  C   UNL     1       5.999  -9.940   1.198  0.00  0.00    +0.116 A 
ATOM     13  N   UNL     1       5.228  -9.521   2.197  0.00  0.00    -0.228 NA
ATOM     14  C   UNL     1       8.603 -10.634  -1.982  0.00  0.00    +0.046 C 
ATOM     15  C   UNL     1       8.957 -12.106  -2.239  0.00  0.00    -0.009 C 
ATOM     16  C   UNL     1       7.661 -12.919  -2.296  0.00  0.00    +0.008 C 
ATOM     17  C   UNL     1       7.040 -13.005  -0.901  0.00  0.00    +0.037 C 
ATOM     18  C   UNL     1       9.703 -12.230  -3.569  0.00  0.00    +0.008 C 
ENDBRANCH   1   3
BRANCH   1  22
ATOM     19  N   UNL     1       2.550  -5.766   4.113  0.00  0.00    -0.298 NA
ATOM     20  C   UNL     1       3.231  -6.261   2.908  0.00  0.00    +0.066 C 
ATOM     21  C   UNL     1       3.104  -7.784   2.843  0.00  0.00    -0.062 C 
ATOM     22  N   UNL     1       3.705  -8.378   4.045  0.00  0.00    +0.388 N 
ATOM     23  C   UNL     1       2.998  -7.894   5.238  0.00  0.00    -0.062 C 
ATOM     24  C   UNL     1       3.124  -6.371   5.323  0.00  0.00    +0.066 C 
ATOM     25  H   UNL     1       4.677  -8.114   4.100  0.00  0.00    -0.081 HD
BRANCH  19  26
ATOM     26  C   UNL     1       2.600  -4.300   4.182  0.00  0.00    +0.180 C 
BRANCH  26  28
ATOM     27  N   UNL     1       1.694  -2.378   2.916  0.00  0.00    -0.314 N 
ATOM     28  C   UNL     1       1.791  -3.715   3.053  0.00  0.00    +0.227 C 
ATOM     29  O   UNL     1       1.228  -4.448   2.268  0.00  0.00    -0.274 OA
ATOM     30  H   UNL     1       2.145  -1.792   3.544  0.00  0.00    +0.149 HD
BRANCH  27  31
ATOM     31  C   UNL     1       0.907  -1.809   1.819  0.00  0.00    +0.104 C 
BRANCH  31  32
ATOM     32  C   UNL     1       0.960  -0.282   1.891  0.00  0.00    +0.018 C 
BRANCH  32  34
ATOM     33  C   UNL     1       0.192   1.839   0.817  0.00  0.00    +0.004 C 
ATOM     34  C   UNL     1       0.139   0.312   0.745  0.00  0.00    -0.002 C 
ENDBRANCH  32  34
ENDBRANCH  31  32
ENDBRANCH  27  31
ENDBRANCH  26  28
ENDBRANCH  19  26
ENDBRANCH   1  22
TORSDOF 7
