REMARK  Name = ZINC09114381
REMARK  13 active torsions:
REMARK  status: ('A' for Active; 'I' for Inactive)
REMARK    1  A    between atoms: C_1  and  C_2
REMARK    2  A    between atoms: C_2  and  C_3
REMARK    3  A    between atoms: C_2  and  C_4
REMARK    4  A    between atoms: C_2  and  N_5
REMARK    5  A    between atoms: C_9  and  C_11
REMARK    6  A    between atoms: C_11  and  N_66
REMARK    7  A    between atoms: C_12  and  C_13
REMARK    8  A    between atoms: C_12  and  N_66
REMARK    9  A    between atoms: N_18  and  C_19
REMARK   10  A    between atoms: C_19  and  C_20
REMARK   11  A    between atoms: C_19  and  C_21
REMARK   12  A    between atoms: C_19  and  C_22
REMARK   13  A    between atoms: C_23  and  N_66
REMARK                            x       y       z     vdW  Elec       q    Type
REMARK                         _______ _______ _______ _____ _____    ______ ____
ROOT
ATOM      1  N   UNL     1      -1.041   1.529   0.979  0.00  0.00    +0.393 N 
ATOM      2  H   UNL     1      -1.308   2.487   0.727  0.00  0.00    -0.080 HD
ENDROOT
BRANCH   1   3
ATOM      3  C   UNL     1      -2.238   0.664   0.913  0.00  0.00    -0.067 C 
ATOM      4  C   UNL     1      -1.862  -0.794   1.181  0.00  0.00    -0.015 C 
ATOM      5  C   UNL     1      -3.117  -1.667   1.104  0.00  0.00    -0.002 C 
ATOM      6  C   UNL     1      -3.737  -1.548  -0.289  0.00  0.00    -0.000 C 
ATOM      7  C   UNL     1      -4.113  -0.089  -0.557  0.00  0.00    -0.002 C 
ATOM      8  C   UNL     1      -2.858   0.783  -0.481  0.00  0.00    -0.015 C 
ENDBRANCH   1   3
BRANCH   1   9
ATOM      9  C   UNL     1      -0.018   1.049   0.026  0.00  0.00    +0.020 C 
BRANCH   9  14
ATOM     10  N   UNL     1       0.892   1.436  -4.678  0.00  0.00    -0.294 N 
ATOM     11  C   UNL     1       0.176   1.823  -3.604  0.00  0.00    +0.306 C 
ATOM     12  O   UNL     1      -0.692   2.665  -3.723  0.00  0.00    -0.252 OA
ATOM     13  N   UNL     1       0.422   1.275  -2.397  0.00  0.00    -0.242 N 
ATOM     14  C   UNL     1      -0.294   1.661  -1.323  0.00  0.00    +0.204 C 
ATOM     15  O   UNL     1      -1.159   2.501  -1.442  0.00  0.00    -0.277 OA
ATOM     16  H   UNL     1       1.585   0.764  -4.583  0.00  0.00    +0.151 HD
ATOM     17  H   UNL     1       1.115   0.602  -2.302  0.00  0.00    +0.159 HD
BRANCH  10  19
ATOM     18  C   UNL     1       0.850   3.543  -5.919  0.00  0.00    +0.031 C 
ATOM     19  C   UNL     1       0.625   2.032  -5.990  0.00  0.00    +0.028 C 
ATOM     20  C   UNL     1       1.569   1.423  -7.029  0.00  0.00    +0.031 C 
ATOM     21  C   UNL     1      -0.825   1.751  -6.391  0.00  0.00    +0.031 C 
ENDBRANCH  10  19
ENDBRANCH   9  14
ENDBRANCH   1   9
BRANCH   1  22
ATOM     22  C   UNL     1      -0.492   1.528   2.352  0.00  0.00    +0.020 C 
BRANCH  22  23
ATOM     23  C   UNL     1      -1.374   2.382   3.225  0.00  0.00    +0.204 C 
ATOM     24  O   UNL     1      -2.389   2.868   2.772  0.00  0.00    -0.277 OA
ATOM     25  N   UNL     1      -1.035   2.607   4.510  0.00  0.00    -0.242 N 
ATOM     26  C   UNL     1      -1.823   3.372   5.291  0.00  0.00    +0.306 C 
ATOM     27  O   UNL     1      -2.840   3.859   4.837  0.00  0.00    -0.252 OA
ATOM     28  N   UNL     1      -1.484   3.597   6.576  0.00  0.00    -0.294 N 
ATOM     29  H   UNL     1      -0.223   2.219   4.872  0.00  0.00    +0.159 HD
ATOM     30  H   UNL     1      -0.673   3.209   6.938  0.00  0.00    +0.151 HD
BRANCH  28  31
ATOM     31  C   UNL     1      -2.341   4.428   7.425  0.00  0.00    +0.028 C 
ATOM     32  C   UNL     1      -3.733   3.800   7.515  0.00  0.00    +0.031 C 
ATOM     33  C   UNL     1      -1.733   4.523   8.826  0.00  0.00    +0.031 C 
ATOM     34  C   UNL     1      -2.452   5.829   6.821  0.00  0.00    +0.031 C 
ENDBRANCH  28  31
ENDBRANCH  22  23
ENDBRANCH   1  22
TORSDOF 7
