REMARK  Name = ZINC63165322
REMARK  6 active torsions:
REMARK  status: ('A' for Active; 'I' for Inactive)
REMARK    1  A    between atoms: C_6  and  C_10
REMARK    2  A    between atoms: C_10  and  S_11
REMARK    3  A    between atoms: S_11  and  C_12
REMARK    4  A    between atoms: C_16  and  C_25
REMARK    5  A    between atoms: N_18  and  C_19
REMARK    6  A    between atoms: C_19  and  C_20
REMARK                            x       y       z     vdW  Elec       q    Type
REMARK                         _______ _______ _______ _____ _____    ______ ____
ROOT
ATOM      1  C   UNL     1       4.029  -2.967  -3.983  0.00  0.00    +0.200 C 
ATOM      2  N   UNL     1       5.479  -3.278  -3.885  0.00  0.00    -0.229 NA
ATOM      3  N   UNL     1       5.615  -4.487  -4.713  0.00  0.00    -0.233 NA
ATOM      4  C   UNL     1       4.384  -5.263  -4.439  0.00  0.00    +0.172 C 
ATOM      5  N   UNL     1       3.368  -4.292  -3.977  0.00  0.00    -0.250 NA
ATOM      6  H   UNL     1       6.037  -2.523  -4.255  0.00  0.00    +0.143 HD
ATOM      7  H   UNL     1       6.438  -5.012  -4.454  0.00  0.00    +0.143 HD
ENDROOT
BRANCH   4   8
ATOM      8  C   UNL     1       3.912  -5.942  -5.699  0.00  0.00    -0.013 A 
ATOM      9  C   UNL     1       2.560  -6.150  -5.907  0.00  0.00    +0.006 A 
ATOM     10  C   UNL     1       2.126  -6.772  -7.062  0.00  0.00    +0.002 A 
ATOM     11  C   UNL     1       3.042  -7.189  -8.009  0.00  0.00    +0.020 A 
ATOM     12  C   UNL     1       4.394  -6.982  -7.802  0.00  0.00    +0.041 A 
ATOM     13  C   UNL     1       4.828  -6.353  -6.648  0.00  0.00    +0.026 A 
ATOM     14 CL   UNL     1       5.546  -7.505  -8.991  0.00  0.00    -0.084 Cl
ENDBRANCH   4   8
BRANCH   1  15
ATOM     15  S   UNL     1       3.494  -1.984  -2.555  0.00  0.00    -0.121 S 
BRANCH  15  16
ATOM     16  C   UNL     1       4.045  -0.301  -2.950  0.00  0.00    +0.118 C 
BRANCH  16  22
ATOM     17  C   UNL     1       2.168  -0.801   2.310  0.00  0.00    +0.002 A 
ATOM     18  C   UNL     1       0.949  -0.418   1.724  0.00  0.00    +0.002 A 
ATOM     19  C   UNL     1       0.869   0.087   0.476  0.00  0.00    +0.027 A 
ATOM     20  C   UNL     1       2.094   0.252  -0.319  0.00  0.00    +0.060 A 
ATOM     21  N   UNL     1       2.316   0.702  -1.520  0.00  0.00    -0.363 N 
ATOM     22  C   UNL     1       3.762   0.620  -1.761  0.00  0.00    +0.184 C 
ATOM     23  N   UNL     1       4.355   0.062  -0.539  0.00  0.00    -0.363 N 
ATOM     24  C   UNL     1       3.385  -0.153   0.302  0.00  0.00    +0.060 A 
ATOM     25  C   UNL     1       3.349  -0.691   1.669  0.00  0.00    +0.027 A 
ATOM     26  H   UNL     1       1.648   1.030  -2.142  0.00  0.00    +0.162 HD
ATOM     27  H   UNL     1       5.296  -0.114  -0.387  0.00  0.00    +0.162 HD
ENDBRANCH  16  22
ENDBRANCH  15  16
ENDBRANCH   1  15
BRANCH   5  28
ATOM     28  C   UNL     1       2.888  -4.635  -2.631  0.00  0.00    +0.163 C 
BRANCH  28  29
ATOM     29  C   UNL     1       2.125  -5.933  -2.686  0.00  0.00    +0.119 A 
ATOM     30  C   UNL     1       2.628  -7.152  -2.420  0.00  0.00    +0.046 A 
ATOM     31  C   UNL     1       1.573  -8.077  -2.592  0.00  0.00    +0.041 A 
ATOM     32  C   UNL     1       0.488  -7.368  -2.952  0.00  0.00    +0.195 A 
ATOM     33  O   UNL     1       0.827  -6.070  -3.002  0.00  0.00    -0.467 OA
ENDBRANCH  28  29
ENDBRANCH   5  28
TORSDOF 6
