REMARK  Name = ZINC12497226
REMARK  8 active torsions:
REMARK  status: ('A' for Active; 'I' for Inactive)
REMARK    1  A    between atoms: C_1  and  C_2
REMARK    2  A    between atoms: N_4  and  S_5
REMARK    3  A    between atoms: S_5  and  C_8
REMARK    4  A    between atoms: C_11  and  N_14
REMARK    5  A    between atoms: N_14  and  C_15
REMARK    6  A    between atoms: C_15  and  N_17
REMARK    7  A    between atoms: C_18  and  C_20
REMARK    8  A    between atoms: C_21  and  C_22
REMARK                            x       y       z     vdW  Elec       q    Type
REMARK                         _______ _______ _______ _____ _____    ______ ____
ROOT
ATOM      1  C   UNL     1      -1.239   1.597  -0.375  0.00  0.00    +0.141 C 
ATOM      2  S   UNL     1      -1.346   3.241  -0.838  0.00  0.00    -0.018 S 
ENDROOT
BRANCH   1   3
ATOM      3  N   UNL     1      -0.050   0.964  -0.404  0.00  0.00    -0.264 N 
ATOM      4  C   UNL     1       1.055   1.625  -0.802  0.00  0.00    +0.242 C 
ATOM      5  O   UNL     1       0.980   2.795  -1.131  0.00  0.00    -0.270 OA
ATOM      6  H   UNL     1       0.011   0.032  -0.142  0.00  0.00    +0.157 HD
BRANCH   4   7
ATOM      7  C   UNL     1       2.344   0.938  -0.840  0.00  0.00    +0.068 C 
ATOM      8  C   UNL     1       3.453   1.601  -1.240  0.00  0.00    +0.013 C 
BRANCH   8   9
ATOM      9  C   UNL     1       4.747   0.911  -1.277  0.00  0.00    -0.017 A 
ATOM     10  C   UNL     1       4.851  -0.426  -0.904  0.00  0.00    +0.008 A 
ATOM     11  C   UNL     1       6.076  -1.075  -0.940  0.00  0.00    +0.001 A 
ATOM     12  C   UNL     1       7.214  -0.441  -1.337  0.00  0.00    +0.008 A 
ATOM     13  C   UNL     1       7.185   0.909  -1.728  0.00  0.00    -0.017 A 
ATOM     14  C   UNL     1       5.955   1.612  -1.712  0.00  0.00    -0.011 A 
ATOM     15  C   UNL     1       5.920   2.954  -2.107  0.00  0.00    +0.009 A 
ATOM     16  C   UNL     1       7.070   3.569  -2.506  0.00  0.00    +0.001 A 
ATOM     17  C   UNL     1       8.280   2.880  -2.527  0.00  0.00    +0.001 A 
ATOM     18  C   UNL     1       8.351   1.576  -2.140  0.00  0.00    +0.008 A 
ENDBRANCH   8   9
ENDBRANCH   4   7
ENDBRANCH   1   3
BRANCH   1  19
ATOM     19  N   UNL     1      -2.345   0.934   0.018  0.00  0.00    -0.297 N 
ATOM     20  H   UNL     1      -2.297  -0.013   0.222  0.00  0.00    +0.154 HD
BRANCH  19  24
ATOM     21  C   UNL     1      -5.972   2.954   0.361  0.00  0.00    +0.109 A 
ATOM     22  C   UNL     1      -5.177   3.147  -0.754  0.00  0.00    +0.030 A 
ATOM     23  C   UNL     1      -3.974   2.480  -0.871  0.00  0.00    +0.025 A 
ATOM     24  C   UNL     1      -3.563   1.612   0.133  0.00  0.00    +0.033 A 
ATOM     25  C   UNL     1      -4.367   1.416   1.249  0.00  0.00    +0.025 A 
ATOM     26  C   UNL     1      -5.566   2.091   1.362  0.00  0.00    +0.030 A 
BRANCH  21  27
ATOM     27  S   UNL     1      -7.507   3.808   0.505  0.00  0.00    +0.074 S 
ATOM     28  O   UNL     1      -7.806   3.872   1.893  0.00  0.00    -0.150 OA
ATOM     29  O   UNL     1      -7.402   4.970  -0.306  0.00  0.00    -0.150 OA
BRANCH  27  33
ATOM     30  C   UNL     1     -10.025   0.785  -0.268  0.00  0.00    +0.111 C 
ATOM     31  C   UNL     1      -8.969   1.656   0.361  0.00  0.00    +0.229 C 
ATOM     32  O   UNL     1      -8.390   1.282   1.359  0.00  0.00    -0.275 OA
ATOM     33  N   UNL     1      -8.668   2.851  -0.186  0.00  0.00    -0.186 N 
ATOM     34  H   UNL     1      -9.131   3.150  -0.984  0.00  0.00    +0.177 HD
ENDBRANCH  27  33
ENDBRANCH  21  27
ENDBRANCH  19  24
ENDBRANCH   1  19
TORSDOF 7
