REMARK  Name = ZINC22108838
REMARK  13 active torsions:
REMARK  status: ('A' for Active; 'I' for Inactive)
REMARK    1  A    between atoms: C_1  and  O_2
REMARK    2  A    between atoms: O_2  and  C_3
REMARK    3  A    between atoms: C_5  and  C_18
REMARK    4  A    between atoms: C_8  and  O_9
REMARK    5  A    between atoms: O_9  and  C_10
REMARK    6  A    between atoms: C_10  and  C_11
REMARK    7  A    between atoms: C_18  and  N_19
REMARK    8  A    between atoms: N_19  and  C_20
REMARK    9  A    between atoms: C_20  and  C_21
REMARK   10  A    between atoms: C_21  and  C_22
REMARK   11  A    between atoms: C_22  and  S_23
REMARK   12  A    between atoms: S_23  and  C_24
REMARK   13  A    between atoms: N_28  and  C_29
REMARK                            x       y       z     vdW  Elec       q    Type
REMARK                         _______ _______ _______ _____ _____    ______ ____
ROOT
ATOM      1  C   UNL     1       2.761   4.069  -0.002  0.00  0.00    -0.047 C 
ENDROOT
BRANCH   1   4
ATOM      2  C   UNL     1       2.628   7.642   1.218  0.00  0.00    +0.162 A 
ATOM      3  C   UNL     1       2.684   6.258   1.208  0.00  0.00    +0.051 A 
ATOM      4  C   UNL     1       2.700   5.575   0.006  0.00  0.00    -0.061 A 
ATOM      5  C   UNL     1       2.667   6.271  -1.188  0.00  0.00    +0.005 A 
ATOM      6  C   UNL     1       2.605   7.652  -1.185  0.00  0.00    +0.049 A 
ATOM      7  C   UNL     1       2.589   8.342   0.016  0.00  0.00    +0.162 A 
BRANCH   2   9
ATOM      8  C   UNL     1       2.654   7.531   3.593  0.00  0.00    +0.277 C 
ATOM      9  O   UNL     1       2.612   8.315   2.400  0.00  0.00    -0.491 OA
ENDBRANCH   2   9
BRANCH   7  10
ATOM     10  O   UNL     1       2.534   9.701   0.020  0.00  0.00    -0.484 OA
BRANCH  10  11
ATOM     11  C   UNL     1       2.495  10.353  -1.251  0.00  0.00    +0.264 C 
BRANCH  11  12
ATOM     12  C   UNL     1       2.437  11.845  -1.048  0.00  0.00    -0.010 A 
ATOM     13  C   UNL     1       1.213  12.481  -0.951  0.00  0.00    +0.010 A 
ATOM     14  C   UNL     1       1.158  13.849  -0.760  0.00  0.00    +0.039 A 
ATOM     15  C   UNL     1       2.329  14.584  -0.678  0.00  0.00    +0.123 A 
ATOM     16  C   UNL     1       3.554  13.946  -0.782  0.00  0.00    +0.039 A 
ATOM     17  C   UNL     1       3.606  12.578  -0.967  0.00  0.00    +0.010 A 
ATOM     18  F   UNL     1       2.276  15.921  -0.497  0.00  0.00    -0.205 F 
ENDBRANCH  11  12
ENDBRANCH  10  11
ENDBRANCH   7  10
ENDBRANCH   1   4
BRANCH   1  19
ATOM     19  N   UNL     1       1.397   3.524   0.008  0.00  0.00    +0.382 N 
ATOM     20  H   UNL     1       0.873   3.865   0.913  0.00  0.00    -0.085 HD
ATOM     21  H   UNL     1       0.855   3.874  -0.884  0.00  0.00    -0.085 HD
BRANCH  19  22
ATOM     22  C   UNL     1       1.417   2.055  -0.000  0.00  0.00    -0.081 C 
BRANCH  22  23
ATOM     23  C   UNL     1      -0.019   1.526   0.010  0.00  0.00    -0.008 C 
BRANCH  23  24
ATOM     24  C   UNL     1       0.002  -0.004   0.002  0.00  0.00    +0.075 C 
BRANCH  24  25
ATOM     25  S   UNL     1      -1.696  -0.631   0.015  0.00  0.00    -0.084 S 
BRANCH  25  26
ATOM     26  C   UNL     1      -1.383  -2.364   0.003  0.00  0.00    +0.214 A 
ATOM     27  N   UNL     1      -0.202  -2.946  -0.011  0.00  0.00    -0.101 NA
ATOM     28  N   UNL     1      -0.330  -4.224  -0.017  0.00  0.00    -0.022 NA
ATOM     29  N   UNL     1      -1.577  -4.551  -0.007  0.00  0.00    -0.038 NA
ATOM     30  N   UNL     1      -2.312  -3.353   0.012  0.00  0.00    -0.187 N 
BRANCH  30  31
ATOM     31  C   UNL     1      -3.707  -3.209   0.033  0.00  0.00    +0.070 A 
ATOM     32  C   UNL     1      -4.289  -2.166   0.740  0.00  0.00    +0.028 A 
ATOM     33  C   UNL     1      -5.663  -2.024   0.754  0.00  0.00    +0.002 A 
ATOM     34  C   UNL     1      -6.459  -2.927   0.074  0.00  0.00    +0.000 A 
ATOM     35  C   UNL     1      -5.883  -3.971  -0.627  0.00  0.00    +0.002 A 
ATOM     36  C   UNL     1      -4.510  -4.114  -0.649  0.00  0.00    +0.028 A 
ENDBRANCH  30  31
ENDBRANCH  25  26
ENDBRANCH  24  25
ENDBRANCH  23  24
ENDBRANCH  22  23
ENDBRANCH  19  22
ENDBRANCH   1  19
TORSDOF 12
