REMARK  Name = ZINC14471841
REMARK  7 active torsions:
REMARK  status: ('A' for Active; 'I' for Inactive)
REMARK    1  A    between atoms: C_1  and  C_2
REMARK    2  A    between atoms: C_2  and  C_3
REMARK    3  A    between atoms: C_2  and  N_4
REMARK    4  A    between atoms: N_4  and  S_5
REMARK    5  A    between atoms: S_5  and  C_8
REMARK    6  A    between atoms: C_21  and  C_24
REMARK    7  A    between atoms: C_28  and  N_30
REMARK                            x       y       z     vdW  Elec       q    Type
REMARK                         _______ _______ _______ _____ _____    ______ ____
ROOT
ATOM      1  C   UNL     1       1.200  -0.689  -0.012  0.00  0.00    +0.106 A 
ATOM      2  C   UNL     1       2.398   0.001  -0.020  0.00  0.00    +0.030 A 
ATOM      3  C   UNL     1       2.393   1.381  -0.013  0.00  0.00    +0.025 A 
ATOM      4  C   UNL     1       1.187   2.072   0.002  0.00  0.00    +0.031 A 
ATOM      5  C   UNL     1      -0.017   1.384   0.010  0.00  0.00    -0.018 A 
ATOM      6  C   UNL     1       0.002  -0.004   0.002  0.00  0.00    +0.034 A 
ATOM      7  C   UNL     1      -1.338   2.085   0.032  0.00  0.00    +0.049 C 
ATOM      8  C   UNL     1      -2.008   2.037  -1.324  0.00  0.00    -0.023 C 
ATOM      9  C   UNL     1      -2.651   3.156  -1.552  0.00  0.00    -0.030 C 
ATOM     10  C   UNL     1      -2.502   4.103  -0.376  0.00  0.00    +0.033 C 
ATOM     11  C   UNL     1      -1.216   3.590   0.338  0.00  0.00    +0.029 C 
ATOM     12  C   UNL     1      -0.016   4.179  -0.408  0.00  0.00    +0.105 C 
ATOM     13  N   UNL     1       1.198   3.471   0.008  0.00  0.00    -0.336 N 
ATOM     14  H   UNL     1       1.990   3.960   0.281  0.00  0.00    +0.147 HD
ENDROOT
BRANCH  12  15
ATOM     15  C   UNL     1      -0.214   4.013  -1.893  0.00  0.00    -0.025 A 
ATOM     16  C   UNL     1       0.044   2.794  -2.493  0.00  0.00    +0.005 A 
ATOM     17  C   UNL     1      -0.137   2.642  -3.854  0.00  0.00    +0.003 A 
ATOM     18  C   UNL     1      -0.577   3.708  -4.617  0.00  0.00    +0.033 A 
ATOM     19  C   UNL     1      -0.835   4.926  -4.018  0.00  0.00    +0.127 A 
ATOM     20  C   UNL     1      -0.658   5.077  -2.655  0.00  0.00    +0.038 A 
BRANCH  19  21
ATOM     21  N   UNL     1      -1.306   6.067  -4.834  0.00  0.00    +0.056 N 
ATOM     22  O   UNL     1      -1.466   5.933  -6.034  0.00  0.00    -0.126 OA
ATOM     23  O   UNL     1      -1.533   7.141  -4.306  0.00  0.00    -0.126 OA
ENDBRANCH  19  21
ENDBRANCH  12  15
BRANCH   1  24
ATOM     24  S   UNL     1       1.202  -2.451  -0.021  0.00  0.00    +0.059 S 
ATOM     25  O   UNL     1       2.453  -2.858   0.517  0.00  0.00    -0.153 OA
ATOM     26  O   UNL     1      -0.037  -2.862   0.540  0.00  0.00    -0.153 OA
BRANCH  24  27
ATOM     27  N   UNL     1       1.188  -2.933  -1.605  0.00  0.00    -0.187 NA
ATOM     28  H   UNL     1       0.425  -3.415  -1.958  0.00  0.00    +0.148 HD
BRANCH  27  30
ATOM     29  C   UNL     1       2.537  -3.781  -3.460  0.00  0.00    +0.025 C 
ATOM     30  C   UNL     1       2.330  -2.632  -2.472  0.00  0.00    +0.070 C 
ATOM     31  C   UNL     1       2.057  -1.339  -3.244  0.00  0.00    +0.025 C 
ENDBRANCH  27  30
ENDBRANCH  24  27
ENDBRANCH   1  24
TORSDOF 5
