REMARK  Name = ZINC09363579
REMARK  7 active torsions:
REMARK  status: ('A' for Active; 'I' for Inactive)
REMARK    1  A    between atoms: C_6  and  C_7
REMARK    2  A    between atoms: C_9  and  C_13
REMARK    3  A    between atoms: C_16  and  S_19
REMARK    4  A    between atoms: N_17  and  N_18
REMARK    5  A    between atoms: S_19  and  C_20
REMARK    6  A    between atoms: C_20  and  C_21
REMARK    7  A    between atoms: N_23  and  C_24
REMARK                            x       y       z     vdW  Elec       q    Type
REMARK                         _______ _______ _______ _____ _____    ______ ____
ROOT
ATOM      1  C   UNL     1      -3.317  -3.818   0.000  0.00  0.00    +0.199 A 
ATOM      2  N   UNL     1      -2.694  -4.941  -0.280  0.00  0.00    -0.125 NA
ATOM      3  N   UNL     1      -3.506  -5.931  -0.175  0.00  0.00    -0.120 NA
ATOM      4  C   UNL     1      -4.698  -5.503   0.177  0.00  0.00    +0.209 A 
ATOM      5  N   UNL     1      -4.619  -4.145   0.306  0.00  0.00    -0.223 N 
ENDROOT
BRANCH   1   8
ATOM      6  C   UNL     1      -1.279  -0.762  -0.026  0.00  0.00    +0.093 A 
ATOM      7  C   UNL     1      -1.399  -2.162  -0.026  0.00  0.00    +0.061 A 
ATOM      8  C   UNL     1      -2.732  -2.466  -0.006  0.00  0.00    +0.105 A 
ATOM      9  N   UNL     1      -3.421  -1.287   0.006  0.00  0.00    -0.273 N 
ATOM     10  H   UNL     1      -4.386  -1.190   0.021  0.00  0.00    +0.189 HD
ATOM     11  N   UNL     1      -2.488  -0.242  -0.002  0.00  0.00    -0.173 NA
BRANCH   6  17
ATOM     12  C   UNL     1      -0.025   1.393  -0.036  0.00  0.00    +0.013 A 
ATOM     13  C   UNL     1       1.161   2.098  -0.053  0.00  0.00    +0.039 A 
ATOM     14  C   UNL     1       2.370   1.422  -0.077  0.00  0.00    +0.123 A 
ATOM     15  C   UNL     1       2.394   0.037  -0.086  0.00  0.00    +0.039 A 
ATOM     16  C   UNL     1       1.213  -0.675  -0.070  0.00  0.00    +0.013 A 
ATOM     17  C   UNL     1      -0.005   0.000  -0.044  0.00  0.00    +0.002 A 
ATOM     18  F   UNL     1       3.529   2.116  -0.094  0.00  0.00    -0.205 F 
ENDBRANCH   6  17
ENDBRANCH   1   8
BRANCH   5  19
ATOM     19  N   UNL     1      -5.623  -3.290   0.662  0.00  0.00    -0.295 N 
ATOM     20  H   UNL     1      -6.127  -2.965  -0.149  0.00  0.00    +0.163 HD
ATOM     21  H   UNL     1      -6.248  -3.722   1.327  0.00  0.00    +0.163 HD
ENDBRANCH   5  19
BRANCH   4  22
ATOM     22  S   UNL     1      -6.130  -6.496   0.440  0.00  0.00    -0.075 S 
BRANCH  22  23
ATOM     23  C   UNL     1      -5.558  -8.186   0.113  0.00  0.00    +0.173 C 
BRANCH  23  24
ATOM     24  C   UNL     1      -6.700  -9.149   0.304  0.00  0.00    +0.227 C 
ATOM     25  O   UNL     1      -7.794  -8.736   0.629  0.00  0.00    -0.275 OA
ATOM     26  N   UNL     1      -6.508 -10.469   0.114  0.00  0.00    -0.285 N 
ATOM     27  H   UNL     1      -5.653 -10.793  -0.210  0.00  0.00    +0.155 HD
BRANCH  26  28
ATOM     28  C   UNL     1      -7.542 -11.374   0.385  0.00  0.00    +0.036 A 
ATOM     29  C   UNL     1      -7.250 -12.627   0.906  0.00  0.00    +0.026 A 
ATOM     30  C   UNL     1      -8.271 -13.519   1.173  0.00  0.00    +0.043 A 
ATOM     31  C   UNL     1      -9.585 -13.164   0.923  0.00  0.00    +0.159 A 
ATOM     32  C   UNL     1      -9.880 -11.913   0.403  0.00  0.00    +0.160 A 
ATOM     33  C   UNL     1      -8.861 -11.016   0.139  0.00  0.00    +0.064 A 
ATOM     34  F   UNL     1     -11.163 -11.568   0.159  0.00  0.00    -0.202 F 
ATOM     35  F   UNL     1     -10.582 -14.038   1.184  0.00  0.00    -0.202 F 
ENDBRANCH  26  28
ENDBRANCH  23  24
ENDBRANCH  22  23
ENDBRANCH   4  22
TORSDOF 7
