REMARK  Name = ZINC43746427
REMARK  4 active torsions:
REMARK  status: ('A' for Active; 'I' for Inactive)
REMARK    1  A    between atoms: C_1  and  C_2
REMARK    2  A    between atoms: C_5  and  C_8
REMARK    3  A    between atoms: C_8  and  C_10
REMARK    4  A    between atoms: C_33  and  C_38
REMARK                            x       y       z     vdW  Elec       q    Type
REMARK                         _______ _______ _______ _____ _____    ______ ____
ROOT
ATOM      1  C   UNL     1       0.120  -4.913   1.328  0.00  0.00    +0.066 C 
ATOM      2  C   UNL     1       1.577  -5.027   1.811  0.00  0.00    -0.055 C 
ATOM      3  C   UNL     1       1.918  -3.862   2.750  0.00  0.00    -0.016 C 
ATOM      4  C   UNL     1       2.296  -4.528   4.093  0.00  0.00    -0.020 C 
ATOM      5  C   UNL     1       1.564  -5.889   4.020  0.00  0.00    -0.076 C 
ATOM      6  N   UNL     1       1.678  -6.291   2.574  0.00  0.00    +0.395 N 
ATOM      7  C   UNL     1       0.526  -7.137   2.226  0.00  0.00    +0.060 C 
ATOM      8  C   UNL     1      -0.342  -6.375   1.230  0.00  0.00    +0.085 C 
ATOM      9  C   UNL     1      -0.188  -6.899  -0.170  0.00  0.00    -0.011 A 
ATOM     10  C   UNL     1       0.889  -7.044  -1.015  0.00  0.00    +0.006 A 
ATOM     11  C   UNL     1       0.710  -7.571  -2.282  0.00  0.00    +0.000 A 
ATOM     12  C   UNL     1      -0.553  -7.952  -2.696  0.00  0.00    +0.002 A 
ATOM     13  C   UNL     1      -1.635  -7.809  -1.853  0.00  0.00    +0.023 A 
ATOM     14  C   UNL     1      -1.464  -7.280  -0.576  0.00  0.00    +0.038 A 
ATOM     15  N   UNL     1      -2.387  -7.039   0.444  0.00  0.00    -0.285 N 
ATOM     16  C   UNL     1      -1.809  -6.507   1.538  0.00  0.00    +0.228 C 
ATOM     17  O   UNL     1      -2.363  -6.194   2.570  0.00  0.00    -0.275 OA
ATOM     18  C   UNL     1      -0.258  -7.506   3.459  0.00  0.00    -0.026 A 
ATOM     19  C   UNL     1      -0.927  -6.764   4.407  0.00  0.00    +0.006 A 
ATOM     20  C   UNL     1      -1.571  -7.398   5.454  0.00  0.00    +0.020 A 
ATOM     21  C   UNL     1      -1.539  -8.779   5.546  0.00  0.00    +0.046 A 
ATOM     22  C   UNL     1      -0.868  -9.526   4.598  0.00  0.00    -0.011 A 
ATOM     23  C   UNL     1      -0.219  -8.893   3.541  0.00  0.00    +0.040 A 
ATOM     24  N   UNL     1       0.513  -9.418   2.474  0.00  0.00    -0.286 N 
ATOM     25  C   UNL     1       0.984  -8.458   1.658  0.00  0.00    +0.212 C 
ATOM     26  O   UNL     1       1.649  -8.622   0.657  0.00  0.00    -0.277 OA
ATOM     27  C   UNL     1      -0.840 -11.028   4.708  0.00  0.00    +0.047 C 
ATOM     28 CL   UNL     1      -2.346  -9.576   6.861  0.00  0.00    -0.083 Cl
ATOM     29  H   UNL     1      -3.335  -7.233   0.373  0.00  0.00    +0.155 HD
ATOM     30  H   UNL     1       0.665 -10.367   2.338  0.00  0.00    +0.155 HD
ATOM     31  H   UNL     1       2.554  -6.757   2.389  0.00  0.00    -0.079 HD
ENDROOT
BRANCH   1  32
ATOM     32  C   UNL     1       0.058  -4.245  -0.021  0.00  0.00    +0.166 C 
ATOM     33  O   UNL     1       1.038  -4.230  -0.736  0.00  0.00    -0.292 OA
BRANCH  32  38
ATOM     34  C   UNL     1      -4.824  -1.773  -1.783  0.00  0.00    +0.044 C 
ATOM     35  C   UNL     1      -3.544  -2.421  -1.321  0.00  0.00    -0.050 A 
ATOM     36  C   UNL     1      -2.465  -2.506  -2.184  0.00  0.00    +0.004 A 
ATOM     37  C   UNL     1      -1.290  -3.097  -1.769  0.00  0.00    +0.011 A 
ATOM     38  C   UNL     1      -1.191  -3.612  -0.472  0.00  0.00    +0.018 A 
ATOM     39  C   UNL     1      -2.286  -3.522   0.394  0.00  0.00    +0.011 A 
ATOM     40  C   UNL     1      -3.452  -2.923  -0.035  0.00  0.00    +0.004 A 
ENDBRANCH  32  38
ENDBRANCH   1  32
TORSDOF 2
