REMARK  Name = ZINC09184769
REMARK  15 active torsions:
REMARK  status: ('A' for Active; 'I' for Inactive)
REMARK    1  A    between atoms: C_1  and  C_2
REMARK    2  A    between atoms: C_2  and  C_3
REMARK    3  A    between atoms: C_3  and  C_4
REMARK    4  A    between atoms: C_4  and  O_5
REMARK    5  A    between atoms: O_5  and  C_6
REMARK    6  A    between atoms: C_9  and  C_14
REMARK    7  A    between atoms: C_11  and  O_12
REMARK    8  A    between atoms: O_12  and  C_13
REMARK    9  A    between atoms: C_17  and  C_28
REMARK   10  A    between atoms: N_24  and  C_25
REMARK   11  A    between atoms: C_25  and  C_26
REMARK   12  A    between atoms: C_26  and  O_27
REMARK   13  A    between atoms: C_29  and  C_36
REMARK   14  A    between atoms: C_31  and  C_35
REMARK   15  A    between atoms: C_33  and  O_34
REMARK                            x       y       z     vdW  Elec       q    Type
REMARK                         _______ _______ _______ _____ _____    ______ ____
ROOT
ATOM      1  C   UNL     1       2.051  -8.042  -3.139  0.00  0.00    +0.141 C 
ATOM      2  C   UNL     1       0.709  -8.459  -3.675  0.00  0.00    +0.035 A 
ATOM      3  C   UNL     1      -0.234  -8.357  -4.703  0.00  0.00    +0.102 A 
ATOM      4  N   UNL     1      -1.258  -9.121  -4.377  0.00  0.00    -0.173 NA
ATOM      5  N   UNL     1      -1.055  -9.695  -3.245  0.00  0.00    -0.272 N 
ATOM      6  H   UNL     1      -1.674 -10.302  -2.809  0.00  0.00    +0.189 HD
ATOM      7  C   UNL     1       0.162  -9.324  -2.747  0.00  0.00    +0.126 A 
ATOM      8  C   UNL     1       1.107  -9.475  -1.635  0.00  0.00    +0.266 C 
ATOM      9  O   UNL     1       0.922 -10.171  -0.655  0.00  0.00    -0.268 OA
ATOM     10  N   UNL     1       2.210  -8.734  -1.853  0.00  0.00    -0.283 N 
ENDROOT
BRANCH   3  11
ATOM     11  C   UNL     1      -0.105  -7.540  -5.935  0.00  0.00    +0.047 A 
ATOM     12  C   UNL     1      -1.141  -6.694  -6.325  0.00  0.00    -0.037 A 
ATOM     13  C   UNL     1      -1.017  -5.936  -7.471  0.00  0.00    +0.007 A 
ATOM     14  C   UNL     1       0.134  -6.012  -8.236  0.00  0.00    -0.047 A 
ATOM     15  C   UNL     1       1.168  -6.848  -7.858  0.00  0.00    +0.049 A 
ATOM     16  C   UNL     1       1.059  -7.610  -6.706  0.00  0.00    +0.127 A 
ATOM     17  C   UNL     1       0.261  -5.180  -9.486  0.00  0.00    +0.044 C 
ATOM     18  C   UNL     1      -2.397  -6.609  -5.496  0.00  0.00    +0.044 C 
BRANCH  16  19
ATOM     19  O   UNL     1       2.077  -8.427  -6.330  0.00  0.00    -0.506 OA
ATOM     20  H   UNL     1       2.061  -9.296  -6.754  0.00  0.00    +0.292 HD
ENDBRANCH  16  19
ENDBRANCH   3  11
BRANCH   1  24
ATOM     21  C   UNL     1       2.147  -3.808  -2.548  0.00  0.00    +0.162 A 
ATOM     22  C   UNL     1       1.344  -4.604  -1.748  0.00  0.00    +0.050 A 
ATOM     23  C   UNL     1       1.315  -5.972  -1.941  0.00  0.00    +0.009 A 
ATOM     24  C   UNL     1       2.086  -6.550  -2.933  0.00  0.00    -0.019 A 
ATOM     25  C   UNL     1       2.890  -5.761  -3.735  0.00  0.00    +0.055 A 
ATOM     26  C   UNL     1       2.919  -4.388  -3.550  0.00  0.00    +0.162 A 
BRANCH  26  27
ATOM     27  O   UNL     1       3.705  -3.611  -4.342  0.00  0.00    -0.491 OA
ATOM     28  C   UNL     1       4.470  -4.275  -5.349  0.00  0.00    +0.277 C 
ENDBRANCH  26  27
BRANCH  21  29
ATOM     29  O   UNL     1       2.176  -2.461  -2.360  0.00  0.00    -0.488 OA
BRANCH  29  30
ATOM     30  C   UNL     1       1.358  -1.935  -1.313  0.00  0.00    +0.229 C 
BRANCH  30  31
ATOM     31  C   UNL     1       1.521  -0.415  -1.253  0.00  0.00    +0.041 C 
BRANCH  31  33
ATOM     32  C   UNL     1       0.809   1.669  -0.073  0.00  0.00    +0.004 C 
ATOM     33  C   UNL     1       0.645   0.149  -0.133  0.00  0.00    -0.000 C 
ENDBRANCH  31  33
ENDBRANCH  30  31
ENDBRANCH  29  30
ENDBRANCH  21  29
ENDBRANCH   1  24
BRANCH  10  34
ATOM     34  C   UNL     1       3.369  -8.634  -0.962  0.00  0.00    +0.137 C 
BRANCH  34  35
ATOM     35  C   UNL     1       3.098  -7.579   0.111  0.00  0.00    +0.175 C 
BRANCH  35  36
ATOM     36  O   UNL     1       2.027  -8.017   0.950  0.00  0.00    -0.393 OA
ATOM     37  H   UNL     1       1.800  -7.395   1.655  0.00  0.00    +0.209 HD
ENDBRANCH  35  36
ENDBRANCH  34  35
ENDBRANCH  10  34
TORSDOF 11
