REMARK  Name = ZINC12496681
REMARK  8 active torsions:
REMARK  status: ('A' for Active; 'I' for Inactive)
REMARK    1  A    between atoms: C_1  and  C_2
REMARK    2  A    between atoms: C_2  and  C_3
REMARK    3  A    between atoms: C_3  and  C_4
REMARK    4  A    between atoms: C_4  and  C_28
REMARK    5  A    between atoms: C_9  and  C_11
REMARK    6  A    between atoms: N_18  and  C_21
REMARK    7  A    between atoms: C_28  and  O_30
REMARK    8  A    between atoms: O_30  and  C_31
REMARK                            x       y       z     vdW  Elec       q    Type
REMARK                         _______ _______ _______ _____ _____    ______ ____
ROOT
ATOM      1  C   UNL     1      -1.489   3.443   2.579  0.00  0.00    +0.044 C 
ATOM      2  C   UNL     1      -0.936   4.778   2.921  0.00  0.00    +0.086 C 
ATOM      3  C   UNL     1      -1.228   4.839   4.473  0.00  0.00    +0.078 C 
ATOM      4  C   UNL     1      -0.644   3.498   4.846  0.00  0.00    -0.020 C 
ATOM      5  C   UNL     1      -0.625   6.165   4.732  0.00  0.00    +0.229 C 
ATOM      6  O   UNL     1      -0.016   6.515   5.720  0.00  0.00    -0.275 OA
ATOM      7  N   UNL     1      -0.903   6.913   3.619  0.00  0.00    -0.210 N 
ATOM      8  C   UNL     1      -1.301   6.144   2.553  0.00  0.00    +0.229 C 
ATOM      9  O   UNL     1      -1.837   6.517   1.532  0.00  0.00    -0.275 OA
ATOM     10  N   UNL     1      -1.199   2.609   3.781  0.00  0.00    +0.396 N 
ATOM     11  H   UNL     1      -0.513   1.883   3.542  0.00  0.00    -0.083 HD
ATOM     12  H   UNL     1      -2.063   2.167   4.114  0.00  0.00    -0.083 HD
ENDROOT
BRANCH   7  13
ATOM     13  C   UNL     1      -0.793   8.311   3.572  0.00  0.00    +0.044 A 
ATOM     14  C   UNL     1      -1.089   8.992   2.399  0.00  0.00    +0.027 A 
ATOM     15  C   UNL     1      -0.986  10.369   2.357  0.00  0.00    +0.040 A 
ATOM     16  C   UNL     1      -0.578  11.068   3.480  0.00  0.00    +0.124 A 
ATOM     17  C   UNL     1      -0.277  10.390   4.649  0.00  0.00    +0.040 A 
ATOM     18  C   UNL     1      -0.384   9.014   4.697  0.00  0.00    +0.027 A 
ATOM     19  F   UNL     1      -0.473  12.415   3.436  0.00  0.00    -0.205 F 
ENDBRANCH   7  13
BRANCH   4  20
ATOM     20  C   UNL     1      -1.115   3.069   6.212  0.00  0.00    -0.023 A 
ATOM     21  C   UNL     1      -0.431   3.048   7.383  0.00  0.00    +0.009 A 
ATOM     22  C   UNL     1      -1.075   2.615   8.527  0.00  0.00    +0.008 A 
ATOM     23  C   UNL     1      -2.367   2.213   8.442  0.00  0.00    +0.045 A 
ATOM     24  S   UNL     1      -2.714   2.451   6.707  0.00  0.00    -0.103 S 
ENDBRANCH   4  20
BRANCH   1  25
ATOM     25  C   UNL     1      -0.797   2.883   1.363  0.00  0.00    +0.297 C 
ATOM     26  O   UNL     1      -0.336   3.630   0.533  0.00  0.00    -0.252 OA
BRANCH  25  27
ATOM     27  O   UNL     1      -0.692   1.554   1.203  0.00  0.00    -0.469 OA
ATOM     28  C   UNL     1      -0.013   1.086   0.008  0.00  0.00    +0.280 C 
ENDBRANCH  25  27
ENDBRANCH   1  25
BRANCH   1  29
ATOM     29  C   UNL     1      -2.998   3.532   2.338  0.00  0.00    -0.001 C 
BRANCH  29  31
ATOM     30  C   UNL     1      -5.078   2.215   1.914  0.00  0.00    +0.004 C 
ATOM     31  C   UNL     1      -3.569   2.125   2.154  0.00  0.00    -0.004 C 
ENDBRANCH  29  31
ENDBRANCH   1  29
TORSDOF 6
