REMARK  Name = ZINC17211589
REMARK  8 active torsions:
REMARK  status: ('A' for Active; 'I' for Inactive)
REMARK    1  A    between atoms: C_1  and  C_2
REMARK    2  A    between atoms: C_2  and  C_4
REMARK    3  A    between atoms: C_9  and  N_10
REMARK    4  A    between atoms: C_11  and  C_13
REMARK    5  A    between atoms: C_13  and  C_14
REMARK    6  A    between atoms: C_14  and  C_15
REMARK    7  A    between atoms: C_26  and  C_28
REMARK    8  A    between atoms: C_33  and  C_34
REMARK                            x       y       z     vdW  Elec       q    Type
REMARK                         _______ _______ _______ _____ _____    ______ ____
ROOT
ATOM      1  C   UNL     1       0.912  -6.575  -0.306  0.00  0.00    +0.096 C 
ATOM      2  C   UNL     1       2.079  -7.261  -0.033  0.00  0.00    +0.197 C 
ATOM      3  O   UNL     1       2.110  -8.608  -0.136  0.00  0.00    -0.287 OA
ENDROOT
BRANCH   1   4
ATOM      4  C   UNL     1      -0.356  -7.333  -0.602  0.00  0.00    +0.245 C 
ATOM      5  C   UNL     1      -0.827  -7.023  -2.000  0.00  0.00    +0.011 A 
ATOM      6  C   UNL     1      -0.272  -7.196  -3.247  0.00  0.00    +0.008 A 
ATOM      7  C   UNL     1      -0.971  -6.799  -4.375  0.00  0.00    +0.000 A 
ATOM      8  C   UNL     1      -2.226  -6.229  -4.253  0.00  0.00    +0.001 A 
ATOM      9  C   UNL     1      -2.792  -6.051  -3.007  0.00  0.00    +0.015 A 
ATOM     10  C   UNL     1      -2.094  -6.448  -1.867  0.00  0.00    +0.066 A 
ATOM     11  C   UNL     1      -2.411  -6.397  -0.428  0.00  0.00    +0.340 C 
ATOM     12  O   UNL     1      -3.440  -5.955   0.043  0.00  0.00    -0.245 OA
ATOM     13  O   UNL     1      -1.396  -6.913   0.286  0.00  0.00    -0.448 OA
ENDBRANCH   1   4
BRANCH   2  14
ATOM     14  C   UNL     1       3.287  -6.527   0.371  0.00  0.00    +0.030 A 
ATOM     15  C   UNL     1       3.785  -5.495  -0.431  0.00  0.00    +0.012 A 
ATOM     16  C   UNL     1       4.918  -4.810  -0.047  0.00  0.00    +0.001 A 
ATOM     17  C   UNL     1       5.570  -5.137   1.131  0.00  0.00    +0.001 A 
ATOM     18  C   UNL     1       5.095  -6.153   1.937  0.00  0.00    +0.009 A 
ATOM     19  C   UNL     1       3.949  -6.853   1.571  0.00  0.00    -0.007 A 
BRANCH  19  20
ATOM     20  C   UNL     1       3.432  -7.940   2.436  0.00  0.00    -0.017 A 
ATOM     21  C   UNL     1       2.112  -7.909   2.885  0.00  0.00    +0.008 A 
ATOM     22  C   UNL     1       1.636  -8.924   3.690  0.00  0.00    +0.001 A 
ATOM     23  C   UNL     1       2.466  -9.970   4.052  0.00  0.00    +0.000 A 
ATOM     24  C   UNL     1       3.776 -10.006   3.609  0.00  0.00    +0.001 A 
ATOM     25  C   UNL     1       4.262  -9.000   2.799  0.00  0.00    +0.008 A 
ENDBRANCH  19  20
ENDBRANCH   2  14
BRANCH   1  26
ATOM     26  C   UNL     1       0.908  -5.174  -0.307  0.00  0.00    +0.251 C 
ATOM     27  O   UNL     1       0.928  -4.566  -1.362  0.00  0.00    -0.282 OA
BRANCH  26  29
ATOM     28  N   UNL     1       0.996  -3.085   0.987  0.00  0.00    -0.278 N 
ATOM     29  C   UNL     1       0.879  -4.428   0.982  0.00  0.00    +0.289 C 
ATOM     30  O   UNL     1       0.751  -5.029   2.029  0.00  0.00    -0.266 OA
ATOM     31  H   UNL     1       1.030  -2.598   0.148  0.00  0.00    +0.155 HD
BRANCH  28  37
ATOM     32  C   UNL     1       1.833  -1.223   2.293  0.00  0.00    +0.038 A 
ATOM     33  C   UNL     1       1.890  -0.539   3.513  0.00  0.00    +0.013 A 
ATOM     34  C   UNL     1       1.201  -1.020   4.603  0.00  0.00    +0.001 A 
ATOM     35  C   UNL     1       0.450  -2.182   4.501  0.00  0.00    +0.002 A 
ATOM     36  C   UNL     1       0.384  -2.869   3.306  0.00  0.00    +0.024 A 
ATOM     37  C   UNL     1       1.066  -2.397   2.192  0.00  0.00    +0.044 A 
BRANCH  32  39
ATOM     38  C   UNL     1       3.277   0.610   1.201  0.00  0.00    +0.091 C 
ATOM     39  C   UNL     1       2.565  -0.716   1.126  0.00  0.00    +0.162 C 
ATOM     40  O   UNL     1       2.595  -1.364   0.101  0.00  0.00    -0.292 OA
ENDBRANCH  32  39
ENDBRANCH  28  37
ENDBRANCH  26  29
ENDBRANCH   1  26
TORSDOF 7
