REMARK  Name = ZINC50274200
REMARK  11 active torsions:
REMARK  status: ('A' for Active; 'I' for Inactive)
REMARK    1  A    between atoms: C_1  and  C_2
REMARK    2  A    between atoms: C_5  and  N_8
REMARK    3  A    between atoms: N_8  and  C_9
REMARK    4  A    between atoms: N_8  and  C_10
REMARK    5  A    between atoms: C_10  and  C_11
REMARK    6  A    between atoms: N_13  and  C_14
REMARK    7  A    between atoms: C_14  and  C_16
REMARK    8  A    between atoms: C_14  and  C_27
REMARK    9  A    between atoms: C_16  and  C_17
REMARK   10  A    between atoms: C_27  and  O_29
REMARK   11  A    between atoms: O_29  and  C_30
REMARK                            x       y       z     vdW  Elec       q    Type
REMARK                         _______ _______ _______ _____ _____    ______ ____
ROOT
ATOM      1  C   UNL     1      -6.229   0.244   6.258  0.00  0.00    +0.186 C 
ENDROOT
BRANCH   1   4
ATOM      2  C   UNL     1      -4.217   0.003   4.904  0.00  0.00    +0.197 C 
ATOM      3  O   UNL     1      -3.654   0.767   5.658  0.00  0.00    -0.278 OA
ATOM      4  N   UNL     1      -5.508  -0.325   5.117  0.00  0.00    -0.304 N 
ATOM      5  H   UNL     1      -5.958  -0.936   4.514  0.00  0.00    +0.149 HD
BRANCH   2   6
ATOM      6  C   UNL     1      -3.475  -0.582   3.730  0.00  0.00    +0.019 C 
BRANCH   6   7
ATOM      7  N   UNL     1      -2.097  -0.073   3.720  0.00  0.00    +0.385 N 
ATOM      8  C   UNL     1      -1.387  -0.560   4.910  0.00  0.00    -0.095 C 
ATOM      9  H   UNL     1      -2.111   0.936   3.725  0.00  0.00    -0.081 HD
BRANCH   7  14
ATOM     10  C   UNL     1      -0.019   1.526   0.010  0.00  0.00    +0.007 C 
ATOM     11  C   UNL     1       0.002  -0.004   0.002  0.00  0.00    -0.014 C 
ATOM     12  C   UNL     1      -1.433  -0.534   0.013  0.00  0.00    +0.002 C 
ATOM     13  C   UNL     1      -2.149  -0.040   1.272  0.00  0.00    -0.015 C 
ATOM     14  C   UNL     1      -1.409  -0.547   2.511  0.00  0.00    -0.068 C 
ATOM     15  C   UNL     1       0.026  -0.018   2.500  0.00  0.00    -0.015 C 
ATOM     16  C   UNL     1       0.742  -0.511   1.242  0.00  0.00    +0.002 C 
ENDBRANCH   7  14
ENDBRANCH   6   7
ENDBRANCH   2   6
ENDBRANCH   1   4
BRANCH   1  17
ATOM     17  C   UNL     1      -6.784   1.593   5.881  0.00  0.00    +0.328 C 
ATOM     18  O   UNL     1      -6.596   2.035   4.772  0.00  0.00    -0.249 OA
BRANCH  17  19
ATOM     19  O   UNL     1      -7.487   2.304   6.776  0.00  0.00    -0.467 OA
ATOM     20  C   UNL     1      -7.983   3.575   6.350  0.00  0.00    +0.280 C 
ENDBRANCH  17  19
ENDBRANCH   1  17
BRANCH   1  21
ATOM     21  C   UNL     1      -7.377  -0.688   6.651  0.00  0.00    +0.071 C 
BRANCH  21  22
ATOM     22  C   UNL     1      -6.816  -1.996   7.145  0.00  0.00    -0.020 A 
ATOM     23  C   UNL     1      -6.627  -3.109   6.419  0.00  0.00    +0.087 A 
ATOM     24  N   UNL     1      -6.099  -4.096   7.206  0.00  0.00    -0.360 N 
ATOM     25  H   UNL     1      -5.876  -4.991   6.904  0.00  0.00    +0.165 HD
ATOM     26  C   UNL     1      -5.932  -3.631   8.491  0.00  0.00    +0.047 A 
ATOM     27  C   UNL     1      -6.368  -2.293   8.508  0.00  0.00    +0.003 A 
ATOM     28  C   UNL     1      -6.309  -1.556   9.692  0.00  0.00    +0.010 A 
ATOM     29  C   UNL     1      -5.824  -2.137  10.829  0.00  0.00    +0.001 A 
ATOM     30  C   UNL     1      -5.389  -3.455  10.817  0.00  0.00    +0.002 A 
ATOM     31  C   UNL     1      -5.447  -4.204   9.662  0.00  0.00    +0.026 A 
ENDBRANCH  21  22
ENDBRANCH   1  21
TORSDOF 8
