REMARK  Name = ZINC48596118
REMARK  6 active torsions:
REMARK  status: ('A' for Active; 'I' for Inactive)
REMARK    1  A    between atoms: C_1  and  C_2
REMARK    2  A    between atoms: C_2  and  O_3
REMARK    3  A    between atoms: O_3  and  C_4
REMARK    4  A    between atoms: C_9  and  N_10
REMARK    5  A    between atoms: C_11  and  C_13
REMARK    6  A    between atoms: C_20  and  C_23
REMARK                            x       y       z     vdW  Elec       q    Type
REMARK                         _______ _______ _______ _____ _____    ______ ____
ROOT
ATOM      1  C   UNL     1       0.788  -1.819  -1.331  0.00  0.00    +0.142 A 
ATOM      2  C   UNL     1       0.266  -2.683  -0.382  0.00  0.00    +0.055 A 
ATOM      3  C   UNL     1       0.383  -4.046  -0.551  0.00  0.00    +0.001 A 
ATOM      4  C   UNL     1       1.016  -4.575  -1.669  0.00  0.00    +0.126 A 
ATOM      5  C   UNL     1       1.544  -3.707  -2.620  0.00  0.00    +0.073 A 
ATOM      6  C   UNL     1       1.426  -2.337  -2.456  0.00  0.00    +0.079 A 
ATOM      7  O   UNL     1       1.000  -5.938  -1.646  0.00  0.00    -0.488 OA
ATOM      8  C   UNL     1       0.751  -6.385  -0.302  0.00  0.00    +0.175 C 
ATOM      9  C   UNL     1      -0.066  -5.218   0.301  0.00  0.00    +0.083 C 
ATOM     10  C   UNL     1       2.065  -6.581   0.456  0.00  0.00    +0.052 C 
ENDROOT
BRANCH   6  11
ATOM     11  N   UNL     1       1.955  -1.470  -3.421  0.00  0.00    -0.284 N 
ATOM     12  C   UNL     1       2.116  -1.892  -4.690  0.00  0.00    +0.204 C 
ATOM     13  O   UNL     1       1.712  -2.986  -5.021  0.00  0.00    -0.277 OA
ATOM     14  H   UNL     1       2.206  -0.565  -3.175  0.00  0.00    +0.155 HD
BRANCH  12  15
ATOM     15  C   UNL     1       2.799  -1.004  -5.699  0.00  0.00    +0.027 C 
ATOM     16  C   UNL     1       2.013   0.327  -5.794  0.00  0.00    +0.060 C 
ATOM     17  S   UNL     1       2.151   0.653  -7.608  0.00  0.00    -0.181 S 
ATOM     18  C   UNL     1       2.242  -1.116  -8.132  0.00  0.00    -0.011 C 
ATOM     19  N   UNL     1       2.903  -1.729  -6.958  0.00  0.00    +0.393 N 
ATOM     20  H   UNL     1       3.882  -1.840  -7.176  0.00  0.00    -0.084 HD
ATOM     21  H   UNL     1       2.509  -2.648  -6.824  0.00  0.00    -0.084 HD
ENDBRANCH  12  15
ENDBRANCH   6  11
BRANCH   1  22
ATOM     22  O   UNL     1       0.674  -0.473  -1.168  0.00  0.00    -0.490 OA
BRANCH  22  24
ATOM     23  C   UNL     1      -0.025   1.513   0.018  0.00  0.00    +0.048 C 
ATOM     24  C   UNL     1       0.007  -0.017   0.010  0.00  0.00    +0.226 C 
ENDBRANCH  22  24
ENDBRANCH   1  22
TORSDOF 4
