REMARK  Name = ZINC12374893
REMARK  4 active torsions:
REMARK  status: ('A' for Active; 'I' for Inactive)
REMARK    1  A    between atoms: C_3  and  C_6
REMARK    2  A    between atoms: C_9  and  C_35
REMARK    3  A    between atoms: C_13  and  C_16
REMARK    4  A    between atoms: N_21  and  C_24
REMARK                            x       y       z     vdW  Elec       q    Type
REMARK                         _______ _______ _______ _____ _____    ______ ____
ROOT
ATOM      1  C   UNL     1       5.887  -0.057  -0.617  0.00  0.00    +0.140 C 
ATOM      2  C   UNL     1       5.869  -0.724  -1.996  0.00  0.00    +0.066 C 
ATOM      3  C   UNL     1       4.496  -1.357  -2.249  0.00  0.00    +0.215 C 
ATOM      4  N   UNL     1       4.128  -2.173  -1.087  0.00  0.00    -0.238 N 
ATOM      5  C   UNL     1       4.693  -2.033   0.136  0.00  0.00    +0.130 A 
ATOM      6  C   UNL     1       4.107  -2.963   0.975  0.00  0.00    +0.096 A 
ATOM      7  C   UNL     1       3.157  -3.672   0.197  0.00  0.00    +0.149 A 
ATOM      8  N   UNL     1       3.182  -3.193  -1.017  0.00  0.00    -0.177 NA
ATOM      9  N   UNL     1       5.677  -1.095   0.412  0.00  0.00    -0.319 N 
ATOM     10  H   UNL     1       6.199  -1.119   1.230  0.00  0.00    +0.148 HD
ENDROOT
BRANCH   6  11
ATOM     11  C   UNL     1       4.410  -3.174   2.395  0.00  0.00    +0.251 C 
ATOM     12  O   UNL     1       4.657  -2.223   3.113  0.00  0.00    -0.270 OA
ATOM     13  N   UNL     1       4.414  -4.422   2.905  0.00  0.00    -0.301 N 
ATOM     14  C   UNL     1       4.237  -5.595   2.035  0.00  0.00    +0.089 C 
ATOM     15  C   UNL     1       5.358  -6.596   2.336  0.00  0.00    -0.059 C 
ATOM     16  N   UNL     1       5.367  -6.902   3.772  0.00  0.00    +0.385 N 
ATOM     17  C   UNL     1       5.700  -5.694   4.538  0.00  0.00    -0.059 C 
ATOM     18  C   UNL     1       4.601  -4.649   4.346  0.00  0.00    +0.089 C 
ATOM     19  H   UNL     1       4.456  -7.235   4.049  0.00  0.00    -0.081 HD
BRANCH  16  20
ATOM     20  C   UNL     1       6.368  -7.942   4.042  0.00  0.00    -0.065 C 
ATOM     21  C   UNL     1       7.751  -7.443   3.617  0.00  0.00    -0.009 C 
ATOM     22  C   UNL     1       8.793  -8.527   3.899  0.00  0.00    -0.012 C 
ATOM     23  C   UNL     1       8.804  -8.847   5.395  0.00  0.00    +0.007 C 
ATOM     24  C   UNL     1       7.422  -9.347   5.820  0.00  0.00    -0.012 C 
ATOM     25  C   UNL     1       6.379  -8.263   5.538  0.00  0.00    -0.009 C 
ATOM     26  C   UNL     1       7.071 -10.610   5.030  0.00  0.00    +0.007 C 
ATOM     27  C   UNL     1       7.060 -10.289   3.534  0.00  0.00    -0.012 C 
ATOM     28  C   UNL     1       8.443  -9.790   3.109  0.00  0.00    +0.007 C 
ATOM     29  C   UNL     1       6.018  -9.205   3.252  0.00  0.00    -0.009 C 
ENDBRANCH  16  20
ENDBRANCH   6  11
BRANCH   1  32
ATOM     30  C   UNL     1       3.650   2.871  -0.529  0.00  0.00    +0.041 A 
ATOM     31  C   UNL     1       4.933   2.296  -0.680  0.00  0.00    +0.046 A 
ATOM     32  C   UNL     1       4.784   0.967  -0.535  0.00  0.00    +0.125 A 
ATOM     33  O   UNL     1       3.487   0.708  -0.306  0.00  0.00    -0.466 OA
ATOM     34  C   UNL     1       2.794   1.858  -0.301  0.00  0.00    +0.195 A 
ENDBRANCH   1  32
BRANCH   3  35
ATOM     35  C   UNL     1       4.560  -2.239  -3.498  0.00  0.00    +0.412 C 
ATOM     36  F   UNL     1       5.509  -3.248  -3.308  0.00  0.00    -0.168 F 
ATOM     37  F   UNL     1       3.306  -2.815  -3.727  0.00  0.00    -0.168 F 
ATOM     38  F   UNL     1       4.923  -1.459  -4.601  0.00  0.00    -0.168 F 
ENDBRANCH   3  35
TORSDOF 4
