REMARK  Name = ZINC20696074
REMARK  6 active torsions:
REMARK  status: ('A' for Active; 'I' for Inactive)
REMARK    1  A    between atoms: C_4  and  C_7
REMARK    2  A    between atoms: C_7  and  N_8
REMARK    3  A    between atoms: N_8  and  S_9
REMARK    4  A    between atoms: S_9  and  C_12
REMARK    5  A    between atoms: C_25  and  C_28
REMARK    6  A    between atoms: C_33  and  O_34
REMARK                            x       y       z     vdW  Elec       q    Type
REMARK                         _______ _______ _______ _____ _____    ______ ____
ROOT
ATOM      1  C   UNL     1       6.856  -1.211  -2.174  0.00  0.00    +0.106 A 
ATOM      2  C   UNL     1       7.182  -1.175  -0.830  0.00  0.00    +0.030 A 
ATOM      3  C   UNL     1       6.493  -0.343   0.028  0.00  0.00    +0.025 A 
ATOM      4  C   UNL     1       5.466   0.463  -0.449  0.00  0.00    +0.031 A 
ATOM      5  C   UNL     1       5.133   0.411  -1.807  0.00  0.00    -0.018 A 
ATOM      6  C   UNL     1       5.832  -0.417  -2.658  0.00  0.00    +0.034 A 
ATOM      7  C   UNL     1       4.015   1.263  -2.269  0.00  0.00    +0.049 C 
ATOM      8  C   UNL     1       3.919   1.744  -3.670  0.00  0.00    -0.023 C 
ATOM      9  C   UNL     1       3.309   2.924  -3.672  0.00  0.00    -0.030 C 
ATOM     10  C   UNL     1       2.977   3.343  -2.239  0.00  0.00    +0.033 C 
ATOM     11  C   UNL     1       4.042   2.581  -1.439  0.00  0.00    +0.029 C 
ATOM     12  C   UNL     1       3.682   2.174  -0.021  0.00  0.00    +0.108 C 
ATOM     13  N   UNL     1       4.790   1.309   0.439  0.00  0.00    -0.336 N 
ATOM     14  H   UNL     1       5.097   1.323   1.495  0.00  0.00    +0.147 HD
ENDROOT
BRANCH  12  15
ATOM     15  C   UNL     1       2.385   1.406  -0.013  0.00  0.00    +0.015 A 
ATOM     16  C   UNL     1       2.399   0.025  -0.021  0.00  0.00    +0.024 A 
ATOM     17  C   UNL     1       1.209  -0.680  -0.014  0.00  0.00    +0.018 A 
ATOM     18  C   UNL     1       0.002  -0.004   0.002  0.00  0.00    +0.019 A 
ATOM     19  C   UNL     1      -0.017   1.377   0.010  0.00  0.00    +0.047 A 
ATOM     20  C   UNL     1       1.176   2.086   0.002  0.00  0.00    +0.122 A 
ATOM     21 BR   UNL     1       1.232  -2.571  -0.025  0.00  0.00    -0.050 Br
BRANCH  20  22
ATOM     22  O   UNL     1       1.160   3.445   0.009  0.00  0.00    -0.506 OA
ATOM     23  H   UNL     1       0.201   3.984   0.021  0.00  0.00    +0.292 HD
ENDBRANCH  20  22
ENDBRANCH  12  15
BRANCH   1  24
ATOM     24  S   UNL     1       7.744  -2.268  -3.269  0.00  0.00    +0.059 S 
ATOM     25  O   UNL     1       8.290  -3.310  -2.472  0.00  0.00    -0.153 OA
ATOM     26  O   UNL     1       6.887  -2.522  -4.373  0.00  0.00    -0.153 OA
BRANCH  24  27
ATOM     27  N   UNL     1       9.026  -1.399  -3.855  0.00  0.00    -0.186 NA
ATOM     28  H   UNL     1       8.992  -1.020  -4.887  0.00  0.00    +0.148 HD
BRANCH  27  29
ATOM     29  C   UNL     1      10.087  -0.955  -2.947  0.00  0.00    +0.141 C 
BRANCH  29  33
ATOM     30  C   UNL     1      13.490   0.268  -5.221  0.00  0.00    +0.000 A 
ATOM     31  C   UNL     1      12.509   1.186  -4.897  0.00  0.00    +0.000 A 
ATOM     32  C   UNL     1      11.408   0.791  -4.161  0.00  0.00    +0.005 A 
ATOM     33  C   UNL     1      11.287  -0.523  -3.749  0.00  0.00    -0.032 A 
ATOM     34  C   UNL     1      12.271  -1.441  -4.068  0.00  0.00    +0.005 A 
ATOM     35  C   UNL     1      13.370  -1.046  -4.808  0.00  0.00    +0.000 A 
ENDBRANCH  29  33
ENDBRANCH  27  29
ENDBRANCH  24  27
ENDBRANCH   1  24
TORSDOF 6
