REMARK  Name = ZINC64540123
REMARK  8 active torsions:
REMARK  status: ('A' for Active; 'I' for Inactive)
REMARK    1  A    between atoms: C_1  and  O_2
REMARK    2  A    between atoms: O_2  and  C_3
REMARK    3  A    between atoms: C_9  and  C_12
REMARK    4  A    between atoms: C_12  and  C_13
REMARK    5  A    between atoms: C_13  and  N_14
REMARK    6  A    between atoms: C_15  and  C_17
REMARK    7  A    between atoms: C_22  and  N_23
REMARK    8  A    between atoms: C_24  and  C_26
REMARK                            x       y       z     vdW  Elec       q    Type
REMARK                         _______ _______ _______ _____ _____    ______ ____
ROOT
ATOM      1  C   UNL     1       0.514  -8.547   2.584  0.00  0.00    +0.058 A 
ATOM      2  C   UNL     1       0.947  -9.095   1.375  0.00  0.00    +0.015 A 
ATOM      3  C   UNL     1       1.807 -10.172   1.376  0.00  0.00    +0.001 A 
ATOM      4  C   UNL     1       2.245 -10.716   2.573  0.00  0.00    +0.002 A 
ATOM      5  C   UNL     1       1.825 -10.186   3.776  0.00  0.00    +0.024 A 
ATOM      6  C   UNL     1       0.964  -9.097   3.794  0.00  0.00    +0.046 A 
ENDROOT
BRANCH   1   8
ATOM      7  N   UNL     1      -0.755  -6.806   1.429  0.00  0.00    -0.311 N 
ATOM      8  C   UNL     1      -0.406  -7.394   2.590  0.00  0.00    +0.246 C 
ATOM      9  O   UNL     1      -0.848  -6.974   3.642  0.00  0.00    -0.270 OA
ATOM     10  H   UNL     1      -0.403  -7.141   0.590  0.00  0.00    +0.149 HD
BRANCH   7  11
ATOM     11  C   UNL     1      -1.669  -5.660   1.434  0.00  0.00    +0.109 C 
BRANCH  11  12
ATOM     12  C   UNL     1      -1.900  -5.186  -0.002  0.00  0.00    +0.052 C 
BRANCH  12  19
ATOM     13  C   UNL     1      -1.179  -0.650  -0.017  0.00  0.00    +0.121 A 
ATOM     14  C   UNL     1      -2.352   0.127  -0.009  0.00  0.00    +0.047 A 
ATOM     15  C   UNL     1      -3.586  -0.420   0.002  0.00  0.00    +0.029 A 
ATOM     16  C   UNL     1      -3.735  -1.879   0.006  0.00  0.00    +0.043 A 
ATOM     17  N   UNL     1      -4.793  -2.651   0.017  0.00  0.00    -0.380 N 
ATOM     18  C   UNL     1      -4.351  -4.050   0.016  0.00  0.00    +0.144 C 
ATOM     19  C   UNL     1      -2.839  -4.007   0.003  0.00  0.00    -0.040 C 
ATOM     20  C   UNL     1      -2.501  -2.698  -0.003  0.00  0.00    +0.002 A 
ATOM     21  C   UNL     1      -1.209  -2.004  -0.019  0.00  0.00    +0.055 A 
ATOM     22  H   UNL     1      -5.715  -2.349   0.024  0.00  0.00    +0.160 HD
BRANCH  13  24
ATOM     23  C   UNL     1       0.010   1.409  -0.025  0.00  0.00    +0.277 C 
ATOM     24  O   UNL     1       0.025  -0.020  -0.028  0.00  0.00    -0.495 OA
ENDBRANCH  13  24
ENDBRANCH  12  19
ENDBRANCH  11  12
ENDBRANCH   7  11
ENDBRANCH   1   8
BRANCH   6  25
ATOM     25  N   UNL     1       0.543  -8.557   5.007  0.00  0.00    -0.283 N 
ATOM     26  C   UNL     1       1.383  -8.533   6.061  0.00  0.00    +0.240 C 
ATOM     27  O   UNL     1       2.533  -8.893   5.928  0.00  0.00    -0.273 OA
ATOM     28  H   UNL     1      -0.354  -8.198   5.093  0.00  0.00    +0.155 HD
BRANCH  26  29
ATOM     29  C   UNL     1       0.892  -8.059   7.405  0.00  0.00    +0.182 C 
ATOM     30  C   UNL     1       0.088  -9.161   8.045  0.00  0.00    -0.006 A 
ATOM     31  C   UNL     1      -0.795 -10.046   7.427  0.00  0.00    +0.007 A 
ATOM     32  C   UNL     1      -1.473 -10.996   8.160  0.00  0.00    +0.000 A 
ATOM     33  C   UNL     1      -1.296 -11.097   9.528  0.00  0.00    +0.001 A 
ATOM     34  C   UNL     1      -0.420 -10.233  10.161  0.00  0.00    +0.016 A 
ATOM     35  C   UNL     1       0.263  -9.289   9.422  0.00  0.00    +0.028 A 
ATOM     36  S   UNL     1       1.470  -8.061   9.862  0.00  0.00    -0.043 S 
ATOM     37  N   UNL     1       2.058  -7.652   8.223  0.00  0.00    -0.243 NA
ATOM     38  H   UNL     1       2.874  -8.195   7.985  0.00  0.00    +0.137 HD
ENDBRANCH  26  29
ENDBRANCH   6  25
TORSDOF 7
