REMARK  Name = ZINC35307125
REMARK  12 active torsions:
REMARK  status: ('A' for Active; 'I' for Inactive)
REMARK    1  A    between atoms: C_1  and  N_2
REMARK    2  A    between atoms: N_2  and  C_3
REMARK    3  A    between atoms: C_3  and  C_4
REMARK    4  A    between atoms: C_4  and  C_5
REMARK    5  A    between atoms: C_8  and  O_13
REMARK    6  A    between atoms: C_9  and  O_11
REMARK    7  A    between atoms: O_11  and  C_12
REMARK    8  A    between atoms: O_13  and  C_14
REMARK    9  A    between atoms: C_19  and  S_21
REMARK   10  A    between atoms: S_21  and  C_22
REMARK   11  A    between atoms: C_22  and  C_23
REMARK   12  A    between atoms: N_25  and  C_26
REMARK                            x       y       z     vdW  Elec       q    Type
REMARK                         _______ _______ _______ _____ _____    ______ ____
ROOT
ATOM      1  C   UNL     1      -0.018   1.461   0.010  0.00  0.00    +0.130 C 
ATOM      2  N   UNL     1       0.002  -0.004   0.002  0.00  0.00    -0.318 N 
ATOM      3  C   UNL     1       0.000  -0.690  -1.202  0.00  0.00    +0.127 A 
ATOM      4  C   UNL     1       0.090   0.001  -2.411  0.00  0.00    +0.083 A 
ATOM      5  C   UNL     1       0.085  -0.725  -3.588  0.00  0.00    +0.135 A 
ATOM      6  N   UNL     1      -0.005  -2.047  -3.534  0.00  0.00    -0.210 NA
ATOM      7  C   UNL     1      -0.089  -2.676  -2.371  0.00  0.00    +0.192 A 
ATOM      8  N   UNL     1      -0.082  -2.017  -1.221  0.00  0.00    -0.207 NA
ATOM      9 CL   UNL     1       0.194   0.085  -5.120  0.00  0.00    -0.062 Cl
ENDROOT
BRANCH   2  10
ATOM     10  C   UNL     1       0.024  -0.743   1.267  0.00  0.00    +0.111 C 
BRANCH  10  11
ATOM     11  C   UNL     1      -1.411  -1.020   1.720  0.00  0.00    +0.054 C 
BRANCH  11  12
ATOM     12  C   UNL     1      -1.388  -1.781   3.021  0.00  0.00    -0.042 A 
ATOM     13  C   UNL     1      -1.363  -3.163   3.012  0.00  0.00    +0.007 A 
ATOM     14  C   UNL     1      -1.343  -3.865   4.203  0.00  0.00    +0.049 A 
ATOM     15  C   UNL     1      -1.346  -3.183   5.409  0.00  0.00    +0.161 A 
ATOM     16  C   UNL     1      -1.370  -1.792   5.418  0.00  0.00    +0.162 A 
ATOM     17  C   UNL     1      -1.386  -1.095   4.221  0.00  0.00    +0.053 A 
BRANCH  16  18
ATOM     18  O   UNL     1      -1.373  -1.119   6.600  0.00  0.00    -0.491 OA
ATOM     19  C   UNL     1      -1.398   0.308   6.533  0.00  0.00    +0.277 C 
ENDBRANCH  16  18
BRANCH  15  20
ATOM     20  O   UNL     1      -1.326  -3.873   6.581  0.00  0.00    -0.491 OA
ATOM     21  C   UNL     1      -1.302  -5.299   6.495  0.00  0.00    +0.277 C 
ENDBRANCH  15  20
ENDBRANCH  11  12
ENDBRANCH  10  11
ENDBRANCH   2  10
BRANCH   7  22
ATOM     22  S   UNL     1      -0.206  -4.434  -2.352  0.00  0.00    -0.077 S 
BRANCH  22  23
ATOM     23  C   UNL     1      -0.173  -4.895  -4.106  0.00  0.00    +0.173 C 
BRANCH  23  24
ATOM     24  C   UNL     1      -0.267  -6.394  -4.233  0.00  0.00    +0.224 C 
ATOM     25  O   UNL     1      -0.349  -7.083  -3.239  0.00  0.00    -0.275 OA
ATOM     26  N   UNL     1      -0.261  -6.968  -5.453  0.00  0.00    -0.303 N 
ATOM     27  H   UNL     1      -0.195  -6.417  -6.248  0.00  0.00    +0.149 HD
BRANCH  26  28
ATOM     28  C   UNL     1      -0.353  -8.425  -5.577  0.00  0.00    +0.159 C 
ATOM     29  C   UNL     1      -0.929  -8.789  -6.947  0.00  0.00    +0.032 C 
ATOM     30  C   UNL     1      -1.590 -10.155  -6.907  0.00  0.00    +0.004 C 
ATOM     31  C   UNL     1      -0.619 -11.300  -6.682  0.00  0.00    +0.019 C 
ATOM     32  C   UNL     1      -0.009 -11.230  -5.280  0.00  0.00    +0.104 C 
ATOM     33  N   UNL     1       1.172 -10.353  -5.323  0.00  0.00    -0.314 N 
ATOM     34  C   UNL     1       1.028  -9.034  -5.454  0.00  0.00    +0.233 C 
ATOM     35  O   UNL     1       2.008  -8.320  -5.480  0.00  0.00    -0.274 OA
ATOM     36  H   UNL     1       2.060 -10.737  -5.253  0.00  0.00    +0.149 HD
ENDBRANCH  26  28
ENDBRANCH  23  24
ENDBRANCH  22  23
ENDBRANCH   7  22
TORSDOF 9
