REMARK  Name = ZINC36500745
REMARK  13 active torsions:
REMARK  status: ('A' for Active; 'I' for Inactive)
REMARK    1  A    between atoms: C_1  and  C_2
REMARK    2  A    between atoms: C_2  and  C_3
REMARK    3  A    between atoms: C_2  and  C_4
REMARK    4  A    between atoms: C_2  and  N_5
REMARK    5  A    between atoms: C_6  and  C_8
REMARK    6  A    between atoms: C_8  and  C_10
REMARK    7  A    between atoms: C_8  and  N_20
REMARK    8  A    between atoms: C_13  and  C_16
REMARK    9  A    between atoms: N_20  and  C_21
REMARK   10  A    between atoms: C_21  and  C_22
REMARK   11  A    between atoms: C_27  and  C_29
REMARK   12  A    between atoms: C_33  and  O_36
REMARK   13  A    between atoms: C_34  and  O_35
REMARK                            x       y       z     vdW  Elec       q    Type
REMARK                         _______ _______ _______ _____ _____    ______ ____
ROOT
ATOM      1  C   UNL     1       4.123   0.882  -3.380  0.00  0.00    +0.193 C 
ENDROOT
BRANCH   1   2
ATOM      2  C   UNL     1       2.914   0.063  -3.751  0.00  0.00    -0.018 A 
ATOM      3  C   UNL     1       2.139  -0.512  -2.761  0.00  0.00    +0.006 A 
ATOM      4  C   UNL     1       1.030  -1.263  -3.102  0.00  0.00    +0.013 A 
ATOM      5  C   UNL     1       0.695  -1.440  -4.431  0.00  0.00    +0.055 A 
ATOM      6  C   UNL     1       1.470  -0.864  -5.421  0.00  0.00    +0.013 A 
ATOM      7  C   UNL     1       2.577  -0.109  -5.080  0.00  0.00    +0.006 A 
BRANCH   5   8
ATOM      8  C   UNL     1      -0.513  -2.260  -4.802  0.00  0.00    +0.417 C 
ATOM      9  F   UNL     1      -1.637  -1.429  -4.872  0.00  0.00    -0.166 F 
ATOM     10  F   UNL     1      -0.303  -2.865  -6.045  0.00  0.00    -0.166 F 
ATOM     11  F   UNL     1      -0.723  -3.246  -3.833  0.00  0.00    -0.166 F 
ENDBRANCH   5   8
ENDBRANCH   1   2
BRANCH   1  13
ATOM     12  N   UNL     1       4.231   2.333  -5.381  0.00  0.00    -0.309 N 
ATOM     13  C   UNL     1       4.042   2.230  -4.050  0.00  0.00    +0.239 C 
ATOM     14  O   UNL     1       3.806   3.221  -3.393  0.00  0.00    -0.273 OA
ATOM     15  H   UNL     1       4.340   1.534  -5.919  0.00  0.00    +0.149 HD
BRANCH  12  17
ATOM     16  C   UNL     1       5.234   4.560  -5.242  0.00  0.00    +0.031 C 
ATOM     17  C   UNL     1       4.273   3.654  -6.014  0.00  0.00    +0.026 C 
ATOM     18  C   UNL     1       2.872   4.268  -6.004  0.00  0.00    +0.031 C 
ATOM     19  C   UNL     1       4.756   3.511  -7.459  0.00  0.00    +0.031 C 
ENDBRANCH  12  17
ENDBRANCH   1  13
BRANCH   1  20
ATOM     20  N   UNL     1       4.165   1.062  -1.927  0.00  0.00    -0.275 N 
ATOM     21  C   UNL     1       5.130   0.462  -1.201  0.00  0.00    +0.252 C 
ATOM     22  O   UNL     1       5.108   0.529   0.013  0.00  0.00    -0.270 OA
BRANCH  21  23
ATOM     23  C   UNL     1       6.212  -0.276  -1.880  0.00  0.00    +0.082 A 
ATOM     24  C   UNL     1       5.906  -1.313  -2.767  0.00  0.00    +0.017 A 
ATOM     25  C   UNL     1       6.920  -2.000  -3.399  0.00  0.00    +0.005 A 
ATOM     26  C   UNL     1       8.244  -1.669  -3.161  0.00  0.00    +0.049 A 
ATOM     27  C   UNL     1       8.562  -0.645  -2.285  0.00  0.00    +0.159 A 
ATOM     28  C   UNL     1       7.550   0.062  -1.644  0.00  0.00    +0.171 A 
BRANCH  28  29
ATOM     29  O   UNL     1       7.857   1.070  -0.789  0.00  0.00    -0.503 OA
ATOM     30  H   UNL     1       7.974   0.787   0.128  0.00  0.00    +0.292 HD
ENDBRANCH  28  29
BRANCH  27  31
ATOM     31  O   UNL     1       9.864  -0.326  -2.057  0.00  0.00    -0.503 OA
ATOM     32  H   UNL     1      10.216   0.344  -2.658  0.00  0.00    +0.292 HD
ENDBRANCH  27  31
ENDBRANCH  21  23
BRANCH  20  33
ATOM     33  C   UNL     1       3.158   1.893  -1.262  0.00  0.00    +0.183 C 
BRANCH  33  34
ATOM     34  C   UNL     1       3.829   3.082  -0.626  0.00  0.00    +0.122 A 
ATOM     35  C   UNL     1       3.456   4.367  -0.770  0.00  0.00    +0.046 A 
ATOM     36  C   UNL     1       4.356   5.143  -0.005  0.00  0.00    +0.041 A 
ATOM     37  C   UNL     1       5.226   4.287   0.561  0.00  0.00    +0.195 A 
ATOM     38  O   UNL     1       4.898   3.040   0.186  0.00  0.00    -0.466 OA
ENDBRANCH  33  34
ENDBRANCH  20  33
ENDBRANCH   1  20
TORSDOF 10
