REMARK  Name = ZINC16132497
REMARK  11 active torsions:
REMARK  status: ('A' for Active; 'I' for Inactive)
REMARK    1  A    between atoms: C_1  and  C_2
REMARK    2  A    between atoms: C_2  and  C_3
REMARK    3  A    between atoms: C_3  and  C_5
REMARK    4  A    between atoms: C_3  and  C_6
REMARK    5  A    between atoms: C_6  and  C_7
REMARK    6  A    between atoms: C_8  and  C_32
REMARK    7  A    between atoms: C_16  and  S_18
REMARK    8  A    between atoms: S_18  and  C_19
REMARK    9  A    between atoms: C_19  and  C_20
REMARK   10  A    between atoms: C_23  and  C_29
REMARK   11  A    between atoms: C_25  and  N_26
REMARK                            x       y       z     vdW  Elec       q    Type
REMARK                         _______ _______ _______ _____ _____    ______ ____
ROOT
ATOM      1  C   UNL     1       1.451   1.796   2.709  0.00  0.00    -0.023 A 
ATOM      2  C   UNL     1       1.611   3.065   3.113  0.00  0.00    -0.007 A 
ATOM      3  S   UNL     1       3.325   3.401   2.755  0.00  0.00    -0.073 S 
ATOM      4  C   UNL     1       3.777   1.827   2.072  0.00  0.00    +0.117 A 
ATOM      5  C   UNL     1       2.585   1.083   2.147  0.00  0.00    +0.075 A 
ATOM      6  C   UNL     1       2.655  -0.257   1.648  0.00  0.00    +0.261 A 
ATOM      7  O   UNL     1       1.670  -0.975   1.669  0.00  0.00    -0.267 OA
ATOM      8  N   UNL     1       3.822  -0.714   1.161  0.00  0.00    -0.301 N 
ATOM      9  H   UNL     1       3.875  -1.623   0.825  0.00  0.00    +0.171 HD
ATOM     10  C   UNL     1       4.935   0.076   1.130  0.00  0.00    +0.170 A 
ATOM     11  N   UNL     1       4.898   1.314   1.578  0.00  0.00    -0.216 NA
ATOM     12  C   UNL     1       0.587   3.986   3.724  0.00  0.00    +0.052 C 
ENDROOT
BRANCH   1  13
ATOM     13  C   UNL     1       0.113   1.117   2.842  0.00  0.00    +0.040 C 
BRANCH  13  14
ATOM     14  C   UNL     1      -0.707   1.352   1.572  0.00  0.00    -0.010 C 
ATOM     15  C   UNL     1      -0.021   0.667   0.388  0.00  0.00    +0.008 C 
BRANCH  14  17
ATOM     16  C   UNL     1      -2.968   1.113   0.536  0.00  0.00    +0.004 C 
ATOM     17  C   UNL     1      -2.110   0.770   1.755  0.00  0.00    +0.000 C 
ENDBRANCH  14  17
ENDBRANCH  13  14
ENDBRANCH   1  13
BRANCH  10  18
ATOM     18  S   UNL     1       6.441  -0.569   0.482  0.00  0.00    -0.083 S 
BRANCH  18  19
ATOM     19  C   UNL     1       7.516   0.872   0.692  0.00  0.00    +0.114 C 
BRANCH  19  20
ATOM     20  C   UNL     1       8.899   0.544   0.191  0.00  0.00    -0.007 A 
ATOM     21  C   UNL     1       9.273   0.911  -1.090  0.00  0.00    +0.007 A 
ATOM     22  C   UNL     1      10.537   0.615  -1.554  0.00  0.00    +0.013 A 
ATOM     23  C   UNL     1      11.441  -0.057  -0.729  0.00  0.00    +0.039 A 
ATOM     24  C   UNL     1      11.058  -0.424   0.561  0.00  0.00    +0.046 A 
ATOM     25  C   UNL     1       9.792  -0.117   1.016  0.00  0.00    +0.131 A 
BRANCH  23  26
ATOM     26  C   UNL     1      12.798  -0.378  -1.221  0.00  0.00    +0.242 C 
ATOM     27  O   UNL     1      13.583  -0.963  -0.500  0.00  0.00    -0.270 OA
ATOM     28  N   UNL     1      13.165  -0.022  -2.468  0.00  0.00    -0.325 N 
ATOM     29  H   UNL     1      12.538   0.445  -3.043  0.00  0.00    +0.145 HD
ATOM     30  H   UNL     1      14.055  -0.233  -2.790  0.00  0.00    +0.145 HD
ENDBRANCH  23  26
BRANCH  25  31
ATOM     31  N   UNL     1       9.386  -0.501   2.386  0.00  0.00    +0.057 N 
ATOM     32  O   UNL     1      10.203  -0.981   3.151  0.00  0.00    -0.126 OA
ATOM     33  O   UNL     1       8.235  -0.336   2.749  0.00  0.00    -0.126 OA
ENDBRANCH  25  31
ENDBRANCH  19  20
ENDBRANCH  18  19
ENDBRANCH  10  18
TORSDOF 8
