REMARK  Name = ZINC45334428
REMARK  7 active torsions:
REMARK  status: ('A' for Active; 'I' for Inactive)
REMARK    1  A    between atoms: C_1  and  C_2
REMARK    2  A    between atoms: C_5  and  C_8
REMARK    3  A    between atoms: C_8  and  C_34
REMARK    4  A    between atoms: N_11  and  C_15
REMARK    5  A    between atoms: C_15  and  C_16
REMARK    6  A    between atoms: C_19  and  C_29
REMARK    7  A    between atoms: C_22  and  C_24
REMARK                            x       y       z     vdW  Elec       q    Type
REMARK                         _______ _______ _______ _____ _____    ______ ____
ROOT
ATOM      1  C   UNL     1       2.931  -6.184   1.360  0.00  0.00    +0.215 C 
ENDROOT
BRANCH   1   5
ATOM      2  C   UNL     1       0.059  -4.275  -0.021  0.00  0.00    +0.135 C 
ATOM      3  C   UNL     1       0.874  -4.805   1.142  0.00  0.00    +0.251 C 
ATOM      4  O   UNL     1       0.656  -4.640   2.324  0.00  0.00    -0.272 OA
ATOM      5  N   UNL     1       1.890  -5.497   0.591  0.00  0.00    -0.215 N 
ATOM      6  C   UNL     1       1.832  -5.479  -0.746  0.00  0.00    +0.310 C 
ATOM      7  O   UNL     1       2.639  -6.033  -1.465  0.00  0.00    -0.252 OA
ATOM      8  N   UNL     1       0.779  -4.778  -1.205  0.00  0.00    -0.281 N 
ATOM      9  C   UNL     1      -1.366  -4.831   0.018  0.00  0.00    +0.047 C 
ATOM     10  H   UNL     1       0.540  -4.632  -2.133  0.00  0.00    +0.152 HD
BRANCH   2  15
ATOM     11  C   UNL     1      -0.018   1.503   0.010  0.00  0.00    +0.044 C 
ATOM     12  C   UNL     1       0.002  -0.004   0.002  0.00  0.00    -0.050 A 
ATOM     13  C   UNL     1       0.006  -0.689  -1.199  0.00  0.00    +0.004 A 
ATOM     14  C   UNL     1       0.025  -2.071  -1.206  0.00  0.00    +0.006 A 
ATOM     15  C   UNL     1       0.040  -2.768  -0.013  0.00  0.00    -0.015 A 
ATOM     16  C   UNL     1       0.037  -2.084   1.188  0.00  0.00    +0.006 A 
ATOM     17  C   UNL     1       0.023  -0.702   1.195  0.00  0.00    +0.004 A 
ENDBRANCH   2  15
ENDBRANCH   1   5
BRANCH   1  18
ATOM     18  C   UNL     1       2.495  -7.598   1.643  0.00  0.00    +0.253 C 
ATOM     19  O   UNL     1       1.421  -7.994   1.242  0.00  0.00    -0.272 OA
ATOM     20  N   UNL     1       3.299  -8.424   2.342  0.00  0.00    -0.183 N 
ATOM     21  C   UNL     1       3.001  -9.824   2.682  0.00  0.00    +0.144 C 
ATOM     22  C   UNL     1       4.243 -10.278   3.473  0.00  0.00    +0.090 C 
ATOM     23  C   UNL     1       5.130  -9.054   3.494  0.00  0.00    +0.104 C 
ATOM     24  N   UNL     1       4.552  -8.092   2.855  0.00  0.00    -0.178 NA
BRANCH  23  25
ATOM     25  C   UNL     1       6.446  -8.974   4.135  0.00  0.00    +0.150 A 
ATOM     26  C   UNL     1       7.256  -7.876   4.167  0.00  0.00    +0.051 A 
ATOM     27  C   UNL     1       8.411  -8.246   4.881  0.00  0.00    +0.042 A 
ATOM     28  C   UNL     1       8.255  -9.534   5.247  0.00  0.00    +0.196 A 
ATOM     29  O   UNL     1       7.065  -9.969   4.800  0.00  0.00    -0.462 OA
ENDBRANCH  23  25
BRANCH  21  30
ATOM     30  C   UNL     1       1.763  -9.909   3.538  0.00  0.00    +0.013 A 
ATOM     31  C   UNL     1       0.771 -10.832   3.514  0.00  0.00    +0.013 A 
ATOM     32  C   UNL     1      -0.280 -10.710   4.403  0.00  0.00    +0.008 A 
ATOM     33  C   UNL     1      -0.287  -9.670   5.273  0.00  0.00    +0.045 A 
ATOM     34  S   UNL     1       1.228  -8.825   4.851  0.00  0.00    -0.100 S 
ENDBRANCH  21  30
ENDBRANCH   1  18
TORSDOF 5
