REMARK  Name = ZINC00189018
REMARK  9 active torsions:
REMARK  status: ('A' for Active; 'I' for Inactive)
REMARK    1  A    between atoms: C_1  and  C_2
REMARK    2  A    between atoms: C_4  and  C_22
REMARK    3  A    between atoms: C_6  and  N_21
REMARK    4  A    between atoms: C_7  and  C_11
REMARK    5  A    between atoms: C_11  and  C_13
REMARK    6  A    between atoms: C_16  and  O_20
REMARK    7  A    between atoms: C_17  and  O_19
REMARK    8  A    between atoms: C_22  and  O_23
REMARK    9  A    between atoms: O_23  and  C_24
REMARK                            x       y       z     vdW  Elec       q    Type
REMARK                         _______ _______ _______ _____ _____    ______ ____
ROOT
ATOM      1  C   UNL     1      -1.297  -0.759   0.134  0.00  0.00    +0.065 C 
ATOM      2  C   UNL     1       0.002   0.005   0.111  0.00  0.00    +0.040 A 
ATOM      3  C   UNL     1      -0.014   1.392   0.139  0.00  0.00    +0.029 A 
ATOM      4  C   UNL     1       1.163   2.102   0.117  0.00  0.00    -0.009 A 
ATOM      5  C   UNL     1       2.391   1.395   0.066  0.00  0.00    +0.034 A 
ATOM      6  C   UNL     1       3.744   1.927   0.036  0.00  0.00    +0.052 A 
ATOM      7  C   UNL     1       4.796   1.034  -0.014  0.00  0.00    +0.083 A 
ATOM      8  S   UNL     1       3.990  -0.554  -0.022  0.00  0.00    -0.064 S 
ATOM      9  C   UNL     1       2.299  -0.015   0.040  0.00  0.00    +0.111 A 
ATOM     10  N   UNL     1       1.146  -0.649   0.062  0.00  0.00    -0.245 NA
ENDROOT
BRANCH   6  11
ATOM     11  N   UNL     1       3.971   3.294   0.057  0.00  0.00    -0.356 N 
ATOM     12  H   UNL     1       3.223   3.910   0.091  0.00  0.00    +0.142 HD
ATOM     13  H   UNL     1       4.879   3.635   0.036  0.00  0.00    +0.142 HD
ENDBRANCH   6  11
BRANCH   7  14
ATOM     14  C   UNL     1       6.184   1.314  -0.049  0.00  0.00    +0.202 C 
ATOM     15  O   UNL     1       6.570   2.465  -0.159  0.00  0.00    -0.286 OA
BRANCH  14  16
ATOM     16  C   UNL     1       7.162   0.212   0.047  0.00  0.00    +0.027 A 
ATOM     17  C   UNL     1       8.451   0.373  -0.468  0.00  0.00    +0.015 A 
ATOM     18  C   UNL     1       9.363  -0.656  -0.378  0.00  0.00    +0.050 A 
ATOM     19  C   UNL     1       9.004  -1.855   0.224  0.00  0.00    +0.158 A 
ATOM     20  C   UNL     1       7.720  -2.022   0.741  0.00  0.00    +0.159 A 
ATOM     21  C   UNL     1       6.803  -0.992   0.658  0.00  0.00    +0.061 A 
BRANCH  20  22
ATOM     22  O   UNL     1       7.372  -3.196   1.331  0.00  0.00    -0.503 OA
ATOM     23  H   UNL     1       7.545  -3.225   2.282  0.00  0.00    +0.292 HD
ENDBRANCH  20  22
BRANCH  19  24
ATOM     24  O   UNL     1       9.906  -2.866   0.311  0.00  0.00    -0.503 OA
ATOM     25  H   UNL     1      10.441  -2.849   1.117  0.00  0.00    +0.292 HD
ENDBRANCH  19  24
ENDBRANCH  14  16
ENDBRANCH   7  14
BRANCH   4  26
ATOM     26  C   UNL     1       1.149   3.608   0.148  0.00  0.00    +0.195 C 
BRANCH  26  27
ATOM     27  O   UNL     1      -0.202   4.071   0.197  0.00  0.00    -0.378 OA
ATOM     28  C   UNL     1      -0.329   5.494   0.229  0.00  0.00    +0.194 C 
ENDBRANCH  26  27
ENDBRANCH   4  26
TORSDOF 7
