REMARK  Name = ZINC07178476
REMARK  7 active torsions:
REMARK  status: ('A' for Active; 'I' for Inactive)
REMARK    1  A    between atoms: C_1  and  C_2
REMARK    2  A    between atoms: C_3  and  C_25
REMARK    3  A    between atoms: N_4  and  C_19
REMARK    4  A    between atoms: C_5  and  S_7
REMARK    5  A    between atoms: S_7  and  C_8
REMARK    6  A    between atoms: C_8  and  C_10
REMARK    7  A    between atoms: C_8  and  C_11
REMARK                            x       y       z     vdW  Elec       q    Type
REMARK                         _______ _______ _______ _____ _____    ______ ____
ROOT
ATOM      1  C   UNL     1      -0.018   1.503   0.010  0.00  0.00    +0.067 C 
ATOM      2  C   UNL     1       0.002  -0.004   0.002  0.00  0.00    +0.060 A 
ATOM      3  C   UNL     1       0.008  -0.785  -1.092  0.00  0.00    +0.039 A 
ATOM      4  N   UNL     1       0.028  -2.090  -0.654  0.00  0.00    -0.320 N 
ATOM      5  C   UNL     1       0.034  -2.053   0.707  0.00  0.00    +0.170 A 
ATOM      6  N   UNL     1       0.024  -0.796   1.087  0.00  0.00    -0.227 NA
ATOM      7  C   UNL     1      -0.006  -0.320  -2.525  0.00  0.00    +0.065 C 
ENDROOT
BRANCH   4   8
ATOM      8  C   UNL     1       0.041  -3.291  -1.493  0.00  0.00    +0.089 C 
ATOM      9  C   UNL     1      -1.195  -4.139  -1.187  0.00  0.00    +0.025 C 
ATOM     10  C   UNL     1      -1.182  -5.393  -2.064  0.00  0.00    +0.002 C 
ATOM     11  C   UNL     1       0.080  -6.207  -1.771  0.00  0.00    +0.000 C 
ATOM     12  C   UNL     1       1.316  -5.358  -2.077  0.00  0.00    +0.002 C 
ATOM     13  C   UNL     1       1.303  -4.104  -1.200  0.00  0.00    +0.025 C 
ENDBRANCH   4   8
BRANCH   5  14
ATOM     14  S   UNL     1       0.059  -3.453   1.776  0.00  0.00    -0.075 S 
BRANCH  14  15
ATOM     15  C   UNL     1       0.057  -2.734   3.441  0.00  0.00    +0.137 C 
ATOM     16  C   UNL     1      -1.260  -1.990   3.674  0.00  0.00    +0.029 C 
BRANCH  15  17
ATOM     17  C   UNL     1       0.202  -3.832   4.463  0.00  0.00    +0.236 C 
ATOM     18  O   UNL     1      -0.063  -4.977   4.164  0.00  0.00    -0.274 OA
ATOM     19  N   UNL     1       0.625  -3.542   5.709  0.00  0.00    -0.224 N 
ATOM     20  C   UNL     1       0.813  -4.517   6.794  0.00  0.00    +0.136 C 
ATOM     21  C   UNL     1       1.301  -3.661   7.979  0.00  0.00    +0.125 C 
ATOM     22  N   UNL     1       1.335  -2.294   7.436  0.00  0.00    -0.297 N 
ATOM     23  C   UNL     1       0.946  -2.320   6.155  0.00  0.00    +0.309 C 
ATOM     24  O   UNL     1       0.886  -1.324   5.460  0.00  0.00    -0.252 OA
ATOM     25  H   UNL     1       1.601  -1.501   7.927  0.00  0.00    +0.150 HD
ENDBRANCH  15  17
ENDBRANCH  14  15
ENDBRANCH   5  14
TORSDOF 4
