REMARK  Name = ZINC20725287
REMARK  6 active torsions:
REMARK  status: ('A' for Active; 'I' for Inactive)
REMARK    1  A    between atoms: C_1  and  N_2
REMARK    2  A    between atoms: C_3  and  C_21
REMARK    3  A    between atoms: C_6  and  S_7
REMARK    4  A    between atoms: S_7  and  C_8
REMARK    5  A    between atoms: C_19  and  O_20
REMARK    6  A    between atoms: C_24  and  O_27
REMARK                            x       y       z     vdW  Elec       q    Type
REMARK                         _______ _______ _______ _____ _____    ______ ____
ROOT
ATOM      1  C   UNL     1      -0.039   1.460   0.012  0.00  0.00    +0.153 C 
ATOM      2  N   UNL     1      -0.007  -0.004   0.003  0.00  0.00    -0.305 N 
ATOM      3  C   UNL     1      -0.087  -0.831  -1.094  0.00  0.00    +0.165 A 
ATOM      4  N   UNL     1      -0.019  -2.065  -0.652  0.00  0.00    -0.128 NA
ATOM      5  N   UNL     1       0.096  -2.067   0.628  0.00  0.00    -0.122 NA
ATOM      6  C   UNL     1       0.114  -0.834   1.081  0.00  0.00    +0.192 A 
ENDROOT
BRANCH   3   7
ATOM      7  C   UNL     1      -0.224  -0.409  -2.504  0.00  0.00    +0.019 A 
ATOM      8  C   UNL     1      -0.719  -1.301  -3.457  0.00  0.00    +0.015 A 
ATOM      9  C   UNL     1      -0.846  -0.903  -4.771  0.00  0.00    +0.046 A 
ATOM     10  C   UNL     1      -0.481   0.383  -5.147  0.00  0.00    +0.117 A 
ATOM     11  C   UNL     1       0.012   1.273  -4.202  0.00  0.00    +0.046 A 
ATOM     12  C   UNL     1       0.136   0.885  -2.885  0.00  0.00    +0.015 A 
BRANCH  10  13
ATOM     13  O   UNL     1      -0.607   0.771  -6.443  0.00  0.00    -0.507 OA
ATOM     14  H   UNL     1      -1.465   1.164  -6.654  0.00  0.00    +0.292 HD
ENDBRANCH  10  13
ENDBRANCH   3   7
BRANCH   6  15
ATOM     15  S   UNL     1       0.262  -0.343   2.767  0.00  0.00    -0.073 S 
BRANCH  15  16
ATOM     16  C   UNL     1       0.384  -1.910   3.672  0.00  0.00    +0.140 C 
ATOM     17  C   UNL     1       0.671  -1.617   5.124  0.00  0.00    +0.029 C 
ATOM     18  C   UNL     1       1.131  -2.819   5.889  0.00  0.00    +0.039 C 
ATOM     19  C   UNL     1       0.061  -3.801   6.247  0.00  0.00    -0.022 A 
ATOM     20  C   UNL     1       0.215  -4.446   7.472  0.00  0.00    +0.006 A 
ATOM     21  C   UNL     1      -0.696  -5.379   7.913  0.00  0.00    +0.000 A 
ATOM     22  C   UNL     1      -1.792  -5.689   7.126  0.00  0.00    +0.002 A 
ATOM     23  C   UNL     1      -1.961  -5.061   5.919  0.00  0.00    +0.028 A 
ATOM     24  C   UNL     1      -1.037  -4.098   5.455  0.00  0.00    +0.071 A 
ATOM     25  N   UNL     1      -1.341  -3.547   4.265  0.00  0.00    -0.216 NA
ATOM     26  C   UNL     1      -0.883  -2.669   3.496  0.00  0.00    +0.201 C 
BRANCH  26  27
ATOM     27  O   UNL     1      -1.612  -2.385   2.397  0.00  0.00    -0.495 OA
ATOM     28  H   UNL     1      -2.427  -2.901   2.322  0.00  0.00    +0.293 HD
ENDBRANCH  26  27
ENDBRANCH  15  16
ENDBRANCH   6  15
TORSDOF 5
