REMARK  Name = ZINC19891471
REMARK  5 active torsions:
REMARK  status: ('A' for Active; 'I' for Inactive)
REMARK    1  A    between atoms: C_1  and  O_2
REMARK    2  A    between atoms: O_2  and  C_3
REMARK    3  A    between atoms: C_6  and  N_9
REMARK    4  A    between atoms: C_14  and  C_31
REMARK    5  A    between atoms: C_31  and  C_32
REMARK                            x       y       z     vdW  Elec       q    Type
REMARK                         _______ _______ _______ _____ _____    ______ ____
ROOT
ATOM      1  N   UNL     1       3.688   6.634   3.017  0.00  0.00    -0.210 N 
ATOM      2  C   UNL     1       3.635   6.297   1.724  0.00  0.00    +0.228 C 
ATOM      3  O   UNL     1       2.777   6.649   0.943  0.00  0.00    -0.275 OA
ATOM      4  C   UNL     1       4.812   5.410   1.386  0.00  0.00    +0.074 C 
ATOM      5  C   UNL     1       4.303   3.982   1.095  0.00  0.00    -0.053 C 
ATOM      6  N   UNL     1       5.220   3.090   1.853  0.00  0.00    +0.394 N 
ATOM      7  C   UNL     1       5.466   3.812   3.114  0.00  0.00    +0.050 C 
ATOM      8  C   UNL     1       5.572   5.295   2.737  0.00  0.00    +0.088 C 
ATOM      9  C   UNL     1       4.732   6.125   3.681  0.00  0.00    +0.229 C 
ATOM     10  O   UNL     1       4.968   6.301   4.857  0.00  0.00    -0.275 OA
ATOM     11  C   UNL     1       6.715   3.327   3.794  0.00  0.00    -0.028 A 
ATOM     12  C   UNL     1       8.039   3.274   3.419  0.00  0.00    +0.004 A 
ATOM     13  C   UNL     1       8.985   2.760   4.289  0.00  0.00    +0.000 A 
ATOM     14  C   UNL     1       8.597   2.300   5.534  0.00  0.00    +0.002 A 
ATOM     15  C   UNL     1       7.272   2.351   5.913  0.00  0.00    +0.023 A 
ATOM     16  C   UNL     1       6.313   2.867   5.045  0.00  0.00    +0.036 A 
ATOM     17  N   UNL     1       4.934   3.023   5.196  0.00  0.00    -0.286 N 
ATOM     18  C   UNL     1       4.362   3.574   4.108  0.00  0.00    +0.211 C 
ATOM     19  O   UNL     1       3.186   3.828   3.958  0.00  0.00    -0.277 OA
ATOM     20  H   UNL     1       4.731   2.119   2.021  0.00  0.00    -0.083 HD
ATOM     21  H   UNL     1       4.444   2.708   6.129  0.00  0.00    +0.155 HD
ATOM     22  H   UNL     1       6.144   2.939   1.276  0.00  0.00    -0.083 HD
ENDROOT
BRANCH   1  26
ATOM     23  C   UNL     1       0.831   9.073   4.832  0.00  0.00    +0.120 A 
ATOM     24  C   UNL     1       2.133   9.527   4.678  0.00  0.00    +0.047 A 
ATOM     25  C   UNL     1       3.079   8.720   4.078  0.00  0.00    +0.027 A 
ATOM     26  C   UNL     1       2.727   7.454   3.628  0.00  0.00    +0.044 A 
ATOM     27  C   UNL     1       1.423   7.003   3.778  0.00  0.00    +0.027 A 
ATOM     28  C   UNL     1       0.479   7.809   4.383  0.00  0.00    +0.047 A 
BRANCH  23  30
ATOM     29  C   UNL     1      -1.421   9.336   5.550  0.00  0.00    +0.277 C 
ATOM     30  O   UNL     1      -0.100   9.868   5.424  0.00  0.00    -0.495 OA
ENDBRANCH  23  30
ENDBRANCH   1  26
BRANCH   5  31
ATOM     31  C   UNL     1       4.385   3.682  -0.403  0.00  0.00    +0.022 C 
BRANCH  31  32
ATOM     32  C   UNL     1       3.771   2.334  -0.679  0.00  0.00    -0.024 A 
ATOM     33  C   UNL     1       4.423   1.164  -0.772  0.00  0.00    +0.087 A 
ATOM     34  N   UNL     1       3.536   0.155  -1.032  0.00  0.00    -0.360 N 
ATOM     35  H   UNL     1       3.895  -0.879  -1.141  0.00  0.00    +0.165 HD
ATOM     36  C   UNL     1       2.259   0.664  -1.115  0.00  0.00    +0.047 A 
ATOM     37  C   UNL     1       2.350   2.051  -0.897  0.00  0.00    +0.003 A 
ATOM     38  C   UNL     1       1.198   2.838  -0.923  0.00  0.00    +0.010 A 
ATOM     39  C   UNL     1      -0.016   2.256  -1.160  0.00  0.00    +0.001 A 
ATOM     40  C   UNL     1      -0.112   0.888  -1.374  0.00  0.00    +0.002 A 
ATOM     41  C   UNL     1       1.014   0.092  -1.353  0.00  0.00    +0.026 A 
ENDBRANCH  31  32
ENDBRANCH   5  31
TORSDOF 4
