REMARK  Name = ZINC36500532
REMARK  11 active torsions:
REMARK  status: ('A' for Active; 'I' for Inactive)
REMARK    1  A    between atoms: C_1  and  C_2
REMARK    2  A    between atoms: C_2  and  C_4
REMARK    3  A    between atoms: C_2  and  C_10
REMARK    4  A    between atoms: C_10  and  C_12
REMARK    5  A    between atoms: C_10  and  N_21
REMARK    6  A    between atoms: N_14  and  C_15
REMARK    7  A    between atoms: N_21  and  C_22
REMARK    8  A    between atoms: C_22  and  C_23
REMARK    9  A    between atoms: C_28  and  C_30
REMARK   10  A    between atoms: C_31  and  O_37
REMARK   11  A    between atoms: C_35  and  O_36
REMARK                            x       y       z     vdW  Elec       q    Type
REMARK                         _______ _______ _______ _____ _____    ______ ____
ROOT
ATOM      1  C   UNL     1      -1.276  -0.214   0.324  0.00  0.00    +0.170 C 
ENDROOT
BRANCH   1   2
ATOM      2  C   UNL     1      -1.978   0.027  -0.988  0.00  0.00    +0.234 C 
ATOM      3  O   UNL     1      -2.447  -0.906  -1.605  0.00  0.00    -0.274 OA
ATOM      4  N   UNL     1      -2.085   1.278  -1.476  0.00  0.00    -0.311 N 
ATOM      5  H   UNL     1      -1.647   2.015  -1.021  0.00  0.00    +0.149 HD
BRANCH   4   6
ATOM      6  C   UNL     1      -2.862   1.527  -2.692  0.00  0.00    +0.073 C 
ATOM      7  C   UNL     1      -1.982   1.282  -3.919  0.00  0.00    +0.022 C 
ATOM      8  C   UNL     1      -2.794   1.541  -5.189  0.00  0.00    +0.002 C 
ATOM      9  C   UNL     1      -3.284   2.991  -5.195  0.00  0.00    +0.000 C 
ATOM     10  C   UNL     1      -4.164   3.236  -3.968  0.00  0.00    +0.002 C 
ATOM     11  C   UNL     1      -3.352   2.977  -2.697  0.00  0.00    +0.022 C 
ENDBRANCH   4   6
ENDBRANCH   1   2
BRANCH   1  12
ATOM     12  N   UNL     1      -1.617  -1.548   0.823  0.00  0.00    -0.278 N 
ATOM     13  C   UNL     1      -2.122  -1.695   2.064  0.00  0.00    +0.255 C 
ATOM     14  O   UNL     1      -2.293  -0.719   2.769  0.00  0.00    -0.270 OA
BRANCH  13  15
ATOM     15  C   UNL     1      -2.465  -3.036   2.566  0.00  0.00    +0.119 A 
ATOM     16  C   UNL     1      -1.509  -3.798   3.253  0.00  0.00    +0.133 A 
ATOM     17  C   UNL     1      -1.843  -5.059   3.721  0.00  0.00    +0.046 A 
ATOM     18  C   UNL     1      -3.112  -5.566   3.513  0.00  0.00    +0.007 A 
ATOM     19  C   UNL     1      -4.061  -4.822   2.836  0.00  0.00    +0.046 A 
ATOM     20  C   UNL     1      -3.751  -3.557   2.365  0.00  0.00    +0.133 A 
BRANCH  20  21
ATOM     21  O   UNL     1      -4.686  -2.828   1.706  0.00  0.00    -0.506 OA
ATOM     22  H   UNL     1      -4.694  -2.970   0.750  0.00  0.00    +0.292 HD
ENDBRANCH  20  21
BRANCH  16  23
ATOM     23  O   UNL     1      -0.263  -3.304   3.458  0.00  0.00    -0.506 OA
ATOM     24  H   UNL     1      -0.168  -2.806   4.282  0.00  0.00    +0.292 HD
ENDBRANCH  16  23
ENDBRANCH  13  15
BRANCH  12  25
ATOM     25  C   UNL     1      -1.410  -2.724  -0.027  0.00  0.00    +0.183 C 
BRANCH  25  26
ATOM     26  C   UNL     1      -0.051  -3.312   0.251  0.00  0.00    +0.122 A 
ATOM     27  C   UNL     1       0.207  -4.337   1.083  0.00  0.00    +0.046 A 
ATOM     28  C   UNL     1       1.603  -4.557   1.041  0.00  0.00    +0.041 A 
ATOM     29  C   UNL     1       2.115  -3.652   0.187  0.00  0.00    +0.195 A 
ATOM     30  O   UNL     1       1.108  -2.904  -0.292  0.00  0.00    -0.466 OA
ENDBRANCH  25  26
ENDBRANCH  12  25
ENDBRANCH   1  12
BRANCH   1  32
ATOM     31  C   UNL     1       0.578   1.216  -0.551  0.00  0.00    +0.015 C 
ATOM     32  C   UNL     1       0.237  -0.118   0.117  0.00  0.00    +0.045 C 
BRANCH  32  33
ATOM     33  C   UNL     1       0.933  -0.204   1.451  0.00  0.00    -0.042 A 
ATOM     34  C   UNL     1       0.458   0.523   2.526  0.00  0.00    +0.004 A 
ATOM     35  C   UNL     1       1.096   0.444   3.750  0.00  0.00    +0.000 A 
ATOM     36  C   UNL     1       2.209  -0.362   3.898  0.00  0.00    +0.000 A 
ATOM     37  C   UNL     1       2.683  -1.090   2.823  0.00  0.00    +0.000 A 
ATOM     38  C   UNL     1       2.043  -1.015   1.601  0.00  0.00    +0.004 A 
ENDBRANCH  32  33
ENDBRANCH   1  32
TORSDOF 10
