REMARK  Name = ZINC13567726
REMARK  5 active torsions:
REMARK  status: ('A' for Active; 'I' for Inactive)
REMARK    1  A    between atoms: C_1  and  C_2
REMARK    2  A    between atoms: C_5  and  N_9
REMARK    3  A    between atoms: N_24  and  C_27
REMARK    4  A    between atoms: C_28  and  C_31
REMARK    5  A    between atoms: C_29  and  N_30
REMARK                            x       y       z     vdW  Elec       q    Type
REMARK                         _______ _______ _______ _____ _____    ______ ____
ROOT
ATOM      1  N   UNL     1       2.394   1.457  -0.230  0.00  0.00    -0.260 N 
ATOM      2  C   UNL     1       2.575   0.499   0.733  0.00  0.00    +0.025 C 
ATOM      3  C   UNL     1       1.564  -0.326   1.082  0.00  0.00    +0.037 C 
ATOM      4  C   UNL     1       1.737  -1.304   2.076  0.00  0.00    +0.162 C 
ATOM      5  O   UNL     1       0.810  -2.036   2.360  0.00  0.00    -0.292 OA
ATOM      6  C   UNL     1       3.049  -1.462   2.795  0.00  0.00    +0.080 C 
ATOM      7  C   UNL     1       3.764  -0.106   2.829  0.00  0.00    +0.014 C 
ATOM      8  C   UNL     1       3.929   0.390   1.391  0.00  0.00    +0.052 C 
ATOM      9  C   UNL     1       0.218  -0.221   0.414  0.00  0.00    +0.141 C 
ATOM     10  C   UNL     1       0.010  -1.370  -0.525  0.00  0.00    -0.001 A 
ATOM     11  C   UNL     1       0.690  -1.752  -1.661  0.00  0.00    +0.007 A 
ATOM     12  C   UNL     1       0.235  -2.893  -2.314  0.00  0.00    +0.000 A 
ATOM     13  C   UNL     1      -0.849  -3.606  -1.844  0.00  0.00    +0.002 A 
ATOM     14  C   UNL     1      -1.538  -3.226  -0.703  0.00  0.00    +0.024 A 
ATOM     15  C   UNL     1      -1.091  -2.083  -0.037  0.00  0.00    +0.041 A 
ATOM     16  N   UNL     1      -1.582  -1.486   1.110  0.00  0.00    -0.273 N 
ATOM     17  C   UNL     1      -0.876  -0.388   1.450  0.00  0.00    +0.240 C 
ATOM     18  O   UNL     1      -1.079   0.332   2.405  0.00  0.00    -0.274 OA
ATOM     19  C   UNL     1      -2.732  -1.987   1.866  0.00  0.00    +0.138 C 
ATOM     20  C   UNL     1       0.054   1.089  -0.296  0.00  0.00    +0.089 C 
ATOM     21  C   UNL     1       1.130   1.865  -0.588  0.00  0.00    +0.108 C 
ENDROOT
BRANCH   1  26
ATOM     22  C   UNL     1       6.912   3.772  -2.766  0.00  0.00    +0.045 C 
ATOM     23  C   UNL     1       5.713   3.157  -2.092  0.00  0.00    -0.032 A 
ATOM     24  C   UNL     1       5.165   3.758  -0.974  0.00  0.00    +0.006 A 
ATOM     25  C   UNL     1       4.063   3.200  -0.357  0.00  0.00    +0.024 A 
ATOM     26  C   UNL     1       3.509   2.027  -0.856  0.00  0.00    +0.041 A 
ATOM     27  C   UNL     1       4.060   1.425  -1.979  0.00  0.00    +0.044 A 
ATOM     28  C   UNL     1       5.160   1.991  -2.595  0.00  0.00    +0.046 A 
ATOM     29 CL   UNL     1       5.850   1.240  -3.999  0.00  0.00    -0.083 Cl
ENDBRANCH   1  26
BRANCH  21  30
ATOM     30  N   UNL     1       0.955   3.061  -1.244  0.00  0.00    -0.345 N 
ATOM     31  H   UNL     1       0.079   3.307  -1.579  0.00  0.00    +0.144 HD
ATOM     32  H   UNL     1       1.708   3.658  -1.371  0.00  0.00    +0.144 HD
ENDBRANCH  21  30
BRANCH  20  33
ATOM     33  C   UNL     1      -1.256   1.526  -0.676  0.00  0.00    +0.100 C 
ATOM     34  N   UNL     1      -2.295   1.873  -0.978  0.00  0.00    -0.191 NA
ENDBRANCH  20  33
TORSDOF 3
