REMARK  Name = ZINC57577587
REMARK  9 active torsions:
REMARK  status: ('A' for Active; 'I' for Inactive)
REMARK    1  A    between atoms: C_1  and  C_2
REMARK    2  A    between atoms: C_4  and  S_24
REMARK    3  A    between atoms: C_6  and  N_9
REMARK    4  A    between atoms: C_7  and  C_8
REMARK    5  A    between atoms: C_10  and  C_12
REMARK    6  A    between atoms: C_13  and  C_14
REMARK    7  A    between atoms: C_17  and  O_20
REMARK    8  A    between atoms: O_20  and  C_21
REMARK    9  A    between atoms: S_24  and  N_27
REMARK                            x       y       z     vdW  Elec       q    Type
REMARK                         _______ _______ _______ _____ _____    ______ ____
ROOT
ATOM      1  N   UNL     1       0.050  -2.797   2.392  0.00  0.00    -0.282 N 
ATOM      2  C   UNL     1      -0.034  -4.142   2.384  0.00  0.00    +0.241 C 
ATOM      3  O   UNL     1      -0.030  -4.747   1.327  0.00  0.00    -0.270 OA
ATOM      4  H   UNL     1       0.129  -2.321   3.233  0.00  0.00    +0.155 HD
ENDROOT
BRANCH   1  10
ATOM      5  C   UNL     1       1.207   1.235  -0.172  0.00  0.00    +0.044 C 
ATOM      6  C   UNL     1       0.578  -0.132  -0.085  0.00  0.00    -0.044 A 
ATOM      7  C   UNL     1      -0.027  -0.686  -1.198  0.00  0.00    +0.032 A 
ATOM      8  C   UNL     1      -0.605  -1.940  -1.123  0.00  0.00    +0.107 A 
ATOM      9  C   UNL     1      -0.582  -2.642   0.066  0.00  0.00    +0.052 A 
ATOM     10  C   UNL     1       0.025  -2.088   1.187  0.00  0.00    +0.039 A 
ATOM     11  C   UNL     1       0.610  -0.831   1.105  0.00  0.00    -0.026 A 
ATOM     12  C   UNL     1       1.275  -0.229   2.317  0.00  0.00    +0.046 C 
BRANCH   8  13
ATOM     13  S   UNL     1      -1.374  -2.641  -2.544  0.00  0.00    +0.056 S 
ATOM     14  O   UNL     1      -2.319  -3.590  -2.068  0.00  0.00    -0.153 OA
ATOM     15  O   UNL     1      -1.742  -1.556  -3.384  0.00  0.00    -0.153 OA
BRANCH  13  16
ATOM     16  N   UNL     1      -0.212  -3.496  -3.357  0.00  0.00    -0.204 NA
ATOM     17  H   UNL     1      -0.460  -4.277  -3.878  0.00  0.00    +0.144 HD
ATOM     18  H   UNL     1       0.715  -3.216  -3.314  0.00  0.00    +0.144 HD
ENDBRANCH  13  16
ENDBRANCH   8  13
ENDBRANCH   1  10
BRANCH   2  19
ATOM     19  C   UNL     1      -0.128  -4.876   3.646  0.00  0.00    +0.068 C 
ATOM     20  C   UNL     1      -0.212  -6.223   3.638  0.00  0.00    +0.013 C 
BRANCH  20  21
ATOM     21  C   UNL     1      -0.308  -6.960   4.906  0.00  0.00    -0.025 A 
ATOM     22  C   UNL     1      -0.317  -6.268   6.123  0.00  0.00    +0.011 A 
ATOM     23  C   UNL     1      -0.407  -6.963   7.307  0.00  0.00    +0.046 A 
ATOM     24  C   UNL     1      -0.488  -8.351   7.297  0.00  0.00    +0.127 A 
ATOM     25  C   UNL     1      -0.478  -9.044   6.092  0.00  0.00    +0.046 A 
ATOM     26  C   UNL     1      -0.395  -8.357   4.902  0.00  0.00    +0.011 A 
BRANCH  24  27
ATOM     27  O   UNL     1      -0.576  -9.031   8.468  0.00  0.00    -0.434 OA
BRANCH  27  28
ATOM     28  C   UNL     1      -0.656 -10.456   8.386  0.00  0.00    +0.541 C 
ATOM     29  F   UNL     1      -1.792 -10.818   7.654  0.00  0.00    -0.166 F 
ATOM     30  F   UNL     1       0.487 -10.951   7.748  0.00  0.00    -0.166 F 
ENDBRANCH  27  28
ENDBRANCH  24  27
ENDBRANCH  20  21
ENDBRANCH   2  19
TORSDOF 7
