REMARK  Name = ZINC14884791
REMARK  7 active torsions:
REMARK  status: ('A' for Active; 'I' for Inactive)
REMARK    1  A    between atoms: C_4  and  C_7
REMARK    2  A    between atoms: C_7  and  C_8
REMARK    3  A    between atoms: C_8  and  C_9
REMARK    4  A    between atoms: C_9  and  N_10
REMARK    5  A    between atoms: C_11  and  C_13
REMARK    6  A    between atoms: C_21  and  C_22
REMARK    7  A    between atoms: C_21  and  N_64
REMARK                            x       y       z     vdW  Elec       q    Type
REMARK                         _______ _______ _______ _____ _____    ______ ____
ROOT
ATOM      1  C   UNL     1       5.363   1.568   5.069  0.00  0.00    +0.082 C 
ATOM      2  C   UNL     1       5.048   0.594   3.931  0.00  0.00    +0.020 C 
ATOM      3  C   UNL     1       4.924   2.100   3.706  0.00  0.00    -0.021 C 
ATOM      4  C   UNL     1       5.980   2.781   2.829  0.00  0.00    -0.011 C 
ATOM      5  C   UNL     1       5.455   2.845   1.391  0.00  0.00    -0.078 C 
ATOM      6  C   UNL     1       3.136   2.761   2.106  0.00  0.00    -0.078 C 
ATOM      7  C   UNL     1       3.516   2.692   3.589  0.00  0.00    -0.011 C 
ATOM      8  N   UNL     1       4.157   3.556   1.389  0.00  0.00    +0.383 N 
ATOM      9  H   UNL     1       4.272   4.458   1.866  0.00  0.00    -0.081 HD
ENDROOT
BRANCH   1  11
ATOM     10  N   UNL     1       4.709   1.203   7.426  0.00  0.00    -0.315 N 
ATOM     11  C   UNL     1       4.374   1.658   6.202  0.00  0.00    +0.217 C 
ATOM     12  O   UNL     1       3.277   2.139   6.013  0.00  0.00    -0.275 OA
ATOM     13  H   UNL     1       5.587   0.818   7.577  0.00  0.00    +0.149 HD
BRANCH  10  14
ATOM     14  C   UNL     1       3.748   1.290   8.528  0.00  0.00    +0.104 C 
BRANCH  14  15
ATOM     15  C   UNL     1       4.373   0.709   9.798  0.00  0.00    +0.023 C 
BRANCH  15  16
ATOM     16  C   UNL     1       3.369   0.800  10.949  0.00  0.00    +0.036 C 
BRANCH  16  20
ATOM     17  C   UNL     1       5.116  -0.822  14.494  0.00  0.00    +0.000 A 
ATOM     18  C   UNL     1       5.259   0.522  14.206  0.00  0.00    +0.000 A 
ATOM     19  C   UNL     1       4.694   1.047  13.059  0.00  0.00    +0.003 A 
ATOM     20  C   UNL     1       3.986   0.228  12.199  0.00  0.00    -0.047 A 
ATOM     21  C   UNL     1       3.838  -1.115  12.490  0.00  0.00    +0.003 A 
ATOM     22  C   UNL     1       4.407  -1.641  13.635  0.00  0.00    +0.000 A 
ENDBRANCH  16  20
ENDBRANCH  15  16
ENDBRANCH  14  15
ENDBRANCH  10  14
ENDBRANCH   1  11
BRANCH   8  23
ATOM     23  C   UNL     1       3.721   3.801  -0.001  0.00  0.00    -0.024 C 
BRANCH  23  24
ATOM     24  C   UNL     1       2.289   4.272   0.009  0.00  0.00    +0.009 A 
ATOM     25  C   UNL     1       1.879   5.556   0.014  0.00  0.00    +0.021 A 
ATOM     26  C   UNL     1       0.469   5.550   0.028  0.00  0.00    +0.020 A 
ATOM     27  C   UNL     1       0.069   4.263   0.025  0.00  0.00    +0.093 A 
ATOM     28  N   UNL     1       1.182   3.470   0.009  0.00  0.00    -0.307 N 
ATOM     29  C   UNL     1       1.188   2.072   0.002  0.00  0.00    +0.138 A 
ATOM     30  C   UNL     1      -0.017   1.380   0.010  0.00  0.00    +0.048 A 
ATOM     31  C   UNL     1       0.002  -0.004   0.002  0.00  0.00    +0.025 A 
ATOM     32  C   UNL     1       1.232  -0.650  -0.013  0.00  0.00    +0.059 A 
ATOM     33  C   UNL     1       2.391   0.104  -0.020  0.00  0.00    +0.133 A 
ATOM     34  N   UNL     1       2.340   1.422  -0.013  0.00  0.00    -0.236 NA
ATOM     35 CL   UNL     1       1.313  -2.384  -0.023  0.00  0.00    -0.082 Cl
ENDBRANCH  23  24
ENDBRANCH   8  23
TORSDOF 7
