REMARK  Name = ZINC21260474
REMARK  9 active torsions:
REMARK  status: ('A' for Active; 'I' for Inactive)
REMARK    1  A    between atoms: C_1  and  O_2
REMARK    2  A    between atoms: O_2  and  C_3
REMARK    3  A    between atoms: C_5  and  C_13
REMARK    4  A    between atoms: C_7  and  O_11
REMARK    5  A    between atoms: C_8  and  O_9
REMARK    6  A    between atoms: O_9  and  C_10
REMARK    7  A    between atoms: O_11  and  C_12
REMARK    8  A    between atoms: C_18  and  C_28
REMARK    9  A    between atoms: C_33  and  O_34
REMARK                            x       y       z     vdW  Elec       q    Type
REMARK                         _______ _______ _______ _____ _____    ______ ____
ROOT
ATOM      1  C   UNL     1      -3.083   4.865  -4.202  0.00  0.00    +0.032 C 
ATOM      2  C   UNL     1      -4.358   4.497  -3.445  0.00  0.00    +0.059 C 
ATOM      3  C   UNL     1      -4.026   4.157  -2.002  0.00  0.00    +0.017 C 
ATOM      4  C   UNL     1      -2.999   4.758  -1.377  0.00  0.00    +0.037 C 
ATOM      5  C   UNL     1      -2.567   4.520   0.050  0.00  0.00    +0.139 C 
ATOM      6  N   UNL     1      -3.507   3.757   0.843  0.00  0.00    -0.331 N 
ATOM      7  C   UNL     1      -3.795   2.428   0.534  0.00  0.00    +0.049 A 
ATOM      8  C   UNL     1      -3.410   1.392   1.369  0.00  0.00    +0.025 A 
ATOM      9  C   UNL     1      -3.616   0.083   0.968  0.00  0.00    +0.002 A 
ATOM     10  C   UNL     1      -4.202  -0.190  -0.255  0.00  0.00    +0.002 A 
ATOM     11  C   UNL     1      -4.607   0.844  -1.081  0.00  0.00    +0.025 A 
ATOM     12  C   UNL     1      -4.419   2.153  -0.673  0.00  0.00    +0.052 A 
ATOM     13  N   UNL     1      -4.845   3.237  -1.431  0.00  0.00    -0.316 N 
ATOM     14  C   UNL     1      -2.208   5.711  -2.063  0.00  0.00    +0.163 C 
ATOM     15  O   UNL     1      -1.297   6.254  -1.469  0.00  0.00    -0.292 OA
ATOM     16  C   UNL     1      -2.454   6.072  -3.497  0.00  0.00    +0.088 C 
ATOM     17  H   UNL     1      -4.006   4.224   1.705  0.00  0.00    +0.147 HD
ATOM     18  H   UNL     1      -5.935   3.321  -1.553  0.00  0.00    +0.152 HD
ENDROOT
BRANCH   5  19
ATOM     19  C   UNL     1      -1.251   3.787   0.034  0.00  0.00    +0.020 A 
ATOM     20  C   UNL     1      -0.829   3.147  -1.116  0.00  0.00    +0.029 A 
ATOM     21  C   UNL     1       0.377   2.470  -1.130  0.00  0.00    +0.042 A 
ATOM     22  C   UNL     1       1.169   2.441   0.005  0.00  0.00    +0.023 A 
ATOM     23  C   UNL     1       0.754   3.083   1.155  0.00  0.00    +0.047 A 
ATOM     24  C   UNL     1      -0.458   3.759   1.172  0.00  0.00    +0.122 A 
ATOM     25 CL   UNL     1       0.901   1.662  -2.574  0.00  0.00    -0.084 Cl
BRANCH  24  26
ATOM     26  O   UNL     1      -0.868   4.392   2.302  0.00  0.00    -0.506 OA
ATOM     27  H   UNL     1      -0.239   4.369   3.204  0.00  0.00    +0.292 HD
ENDBRANCH  24  26
ENDBRANCH   5  19
BRANCH   1  30
ATOM     28  C   UNL     1      -3.155   4.847  -7.981  0.00  0.00    +0.165 A 
ATOM     29  C   UNL     1      -2.846   4.521  -6.669  0.00  0.00    +0.053 A 
ATOM     30  C   UNL     1      -3.421   5.223  -5.626  0.00  0.00    -0.036 A 
ATOM     31  C   UNL     1      -4.308   6.251  -5.886  0.00  0.00    +0.053 A 
ATOM     32  C   UNL     1      -4.617   6.588  -7.196  0.00  0.00    +0.165 A 
ATOM     33  C   UNL     1      -4.042   5.883  -8.247  0.00  0.00    +0.204 A 
BRANCH  28  35
ATOM     34  C   UNL     1      -1.686   3.103  -8.658  0.00  0.00    +0.277 C 
ATOM     35  O   UNL     1      -2.589   4.155  -9.006  0.00  0.00    -0.491 OA
ENDBRANCH  28  35
BRANCH  33  36
ATOM     36  O   UNL     1      -4.347   6.207  -9.533  0.00  0.00    -0.488 OA
ATOM     37  C   UNL     1      -5.462   5.537 -10.124  0.00  0.00    +0.277 C 
ENDBRANCH  33  36
BRANCH  32  38
ATOM     38  O   UNL     1      -5.486   7.602  -7.451  0.00  0.00    -0.491 OA
ATOM     39  C   UNL     1      -6.038   8.283  -6.322  0.00  0.00    +0.277 C 
ENDBRANCH  32  38
ENDBRANCH   1  30
TORSDOF 6
