REMARK  Name = ZINC12428102
REMARK  5 active torsions:
REMARK  status: ('A' for Active; 'I' for Inactive)
REMARK    1  A    between atoms: C_1  and  N_2
REMARK    2  A    between atoms: N_20  and  C_23
REMARK    3  A    between atoms: C_23  and  C_24
REMARK    4  A    between atoms: C_31  and  C_35
REMARK    5  A    between atoms: C_32  and  N_34
REMARK                            x       y       z     vdW  Elec       q    Type
REMARK                         _______ _______ _______ _____ _____    ______ ____
ROOT
ATOM      1  C   UNL     1       0.149  -0.714  -4.882  0.00  0.00    +0.152 C 
ATOM      2  N   UNL     1      -0.568  -0.878  -3.615  0.00  0.00    -0.311 N 
ATOM      3  C   UNL     1      -1.797  -1.504  -3.607  0.00  0.00    +0.055 A 
ATOM      4  C   UNL     1      -2.364  -1.985  -4.783  0.00  0.00    +0.026 A 
ATOM      5  C   UNL     1      -3.593  -2.608  -4.744  0.00  0.00    +0.002 A 
ATOM      6  C   UNL     1      -4.271  -2.761  -3.543  0.00  0.00    +0.001 A 
ATOM      7  C   UNL     1      -3.733  -2.295  -2.377  0.00  0.00    +0.013 A 
ATOM      8  C   UNL     1      -2.489  -1.660  -2.393  0.00  0.00    +0.041 A 
ATOM      9  C   UNL     1      -1.880  -1.146  -1.158  0.00  0.00    +0.149 A 
ATOM     10  C   UNL     1      -0.661  -0.541  -1.236  0.00  0.00    +0.084 A 
ATOM     11  C   UNL     1      -0.018  -0.415  -2.480  0.00  0.00    +0.260 A 
ATOM     12  O   UNL     1       1.072   0.130  -2.531  0.00  0.00    -0.267 OA
ATOM     13  C   UNL     1       0.002  -0.004   0.002  0.00  0.00    +0.147 C 
ATOM     14  C   UNL     1      -0.018   1.493   0.010  0.00  0.00    -0.001 A 
ATOM     15  C   UNL     1      -1.063   2.391   0.020  0.00  0.00    +0.007 A 
ATOM     16  C   UNL     1      -0.734   3.742   0.028  0.00  0.00    +0.000 A 
ATOM     17  C   UNL     1       0.581   4.161   0.017  0.00  0.00    +0.002 A 
ATOM     18  C   UNL     1       1.637   3.264   0.003  0.00  0.00    +0.024 A 
ATOM     19  C   UNL     1       1.320   1.904  -0.000  0.00  0.00    +0.041 A 
ATOM     20  N   UNL     1       2.161   0.806  -0.013  0.00  0.00    -0.265 N 
ATOM     21  C   UNL     1       1.476  -0.356  -0.012  0.00  0.00    +0.241 C 
ATOM     22  O   UNL     1       1.950  -1.472  -0.022  0.00  0.00    -0.274 OA
ATOM     23  C   UNL     1      -0.645  -0.559   1.237  0.00  0.00    +0.110 C 
ATOM     24  C   UNL     1      -1.860  -1.158   1.177  0.00  0.00    +0.199 C 
ATOM     25  O   UNL     1      -2.528  -1.276   0.016  0.00  0.00    -0.440 OA
ENDROOT
BRANCH  24  26
ATOM     26  N   UNL     1      -2.420  -1.656   2.327  0.00  0.00    -0.328 N 
ATOM     27  H   UNL     1      -3.288  -2.087   2.296  0.00  0.00    +0.145 HD
ATOM     28  H   UNL     1      -1.947  -1.577   3.170  0.00  0.00    +0.145 HD
ENDBRANCH  24  26
BRANCH  23  29
ATOM     29  C   UNL     1       0.030  -0.455   2.496  0.00  0.00    +0.102 C 
ATOM     30  N   UNL     1       0.565  -0.373   3.495  0.00  0.00    -0.191 NA
ENDBRANCH  23  29
BRANCH  20  31
ATOM     31  C   UNL     1       3.623   0.894  -0.026  0.00  0.00    +0.148 C 
BRANCH  31  32
ATOM     32  C   UNL     1       4.111   0.931  -1.452  0.00  0.00    -0.030 A 
ATOM     33  C   UNL     1       4.413  -0.248  -2.109  0.00  0.00    +0.008 A 
ATOM     34  C   UNL     1       4.855  -0.216  -3.417  0.00  0.00    +0.038 A 
ATOM     35  C   UNL     1       5.008   0.998  -4.067  0.00  0.00    +0.123 A 
ATOM     36  C   UNL     1       4.711   2.177  -3.406  0.00  0.00    +0.038 A 
ATOM     37  C   UNL     1       4.263   2.143  -2.099  0.00  0.00    +0.008 A 
ATOM     38  F   UNL     1       5.447   1.030  -5.344  0.00  0.00    -0.205 F 
ENDBRANCH  31  32
ENDBRANCH  20  31
TORSDOF 4
