REMARK  Name = ZINC39837504
REMARK  5 active torsions:
REMARK  status: ('A' for Active; 'I' for Inactive)
REMARK    1  A    between atoms: C_4  and  C_7
REMARK    2  A    between atoms: C_7  and  S_8
REMARK    3  A    between atoms: S_8  and  C_9
REMARK    4  A    between atoms: C_15  and  C_30
REMARK    5  A    between atoms: C_34  and  O_36
REMARK                            x       y       z     vdW  Elec       q    Type
REMARK                         _______ _______ _______ _____ _____    ______ ____
ROOT
ATOM      1  C   UNL     1       5.786  -1.866   1.477  0.00  0.00    +0.160 A 
ATOM      2  N   UNL     1       6.433  -2.222   0.377  0.00  0.00    -0.133 NA
ATOM      3  N   UNL     1       7.533  -2.838   0.420  0.00  0.00    -0.125 NA
ATOM      4  C   UNL     1       8.108  -3.166   1.566  0.00  0.00    +0.192 A 
ATOM      5  S   UNL     1       6.913  -2.496   2.718  0.00  0.00    -0.024 S 
ATOM      6  N   UNL     1       9.302  -3.836   1.806  0.00  0.00    -0.230 N 
ATOM      7  C   UNL     1      10.231  -4.343   0.782  0.00  0.00    +0.152 C 
ATOM      8  C   UNL     1      11.354  -4.981   1.532  0.00  0.00    +0.072 A 
ATOM      9  C   UNL     1      12.564  -5.664   1.064  0.00  0.00    +0.199 A 
ATOM     10  O   UNL     1      12.923  -5.660  -0.101  0.00  0.00    -0.287 OA
ATOM     11  C   UNL     1      13.309  -6.360   2.143  0.00  0.00    +0.064 A 
ATOM     12  C   UNL     1      14.366  -7.216   1.833  0.00  0.00    +0.015 A 
ATOM     13  C   UNL     1      15.039  -7.853   2.837  0.00  0.00    +0.001 A 
ATOM     14  C   UNL     1      14.675  -7.651   4.161  0.00  0.00    +0.004 A 
ATOM     15  C   UNL     1      13.636  -6.808   4.485  0.00  0.00    +0.047 A 
ATOM     16  C   UNL     1      12.934  -6.144   3.479  0.00  0.00    +0.139 A 
ATOM     17  O   UNL     1      11.923  -5.313   3.821  0.00  0.00    -0.450 OA
ATOM     18  C   UNL     1      11.093  -4.846   2.867  0.00  0.00    +0.199 A 
ATOM     19  C   UNL     1       9.816  -4.130   3.018  0.00  0.00    +0.289 C 
ATOM     20  O   UNL     1       9.298  -3.846   4.081  0.00  0.00    -0.266 OA
ENDROOT
BRANCH   7  21
ATOM     21  C   UNL     1       9.540  -5.361  -0.087  0.00  0.00    -0.019 A 
ATOM     22  C   UNL     1       8.647  -6.256   0.473  0.00  0.00    +0.006 A 
ATOM     23  C   UNL     1       8.011  -7.191  -0.323  0.00  0.00    +0.004 A 
ATOM     24  C   UNL     1       8.267  -7.234  -1.680  0.00  0.00    +0.045 A 
ATOM     25  C   UNL     1       9.163  -6.338  -2.244  0.00  0.00    +0.117 A 
ATOM     26  C   UNL     1       9.795  -5.396  -1.444  0.00  0.00    +0.051 A 
BRANCH  25  27
ATOM     27  O   UNL     1       9.416  -6.378  -3.579  0.00  0.00    -0.507 OA
ATOM     28  H   UNL     1       8.830  -5.820  -4.107  0.00  0.00    +0.292 HD
ENDBRANCH  25  27
ENDBRANCH   7  21
BRANCH   1  29
ATOM     29  S   UNL     1       4.257  -1.011   1.666  0.00  0.00    -0.092 S 
BRANCH  29  30
ATOM     30  C   UNL     1       3.711  -0.707  -0.038  0.00  0.00    +0.111 C 
BRANCH  30  34
ATOM     31  C   UNL     1      -0.017   1.378   0.010  0.00  0.00    +0.000 A 
ATOM     32  C   UNL     1       1.171   2.086   0.002  0.00  0.00    +0.000 A 
ATOM     33  C   UNL     1       2.377   1.411  -0.013  0.00  0.00    +0.004 A 
ATOM     34  C   UNL     1       2.396   0.029  -0.020  0.00  0.00    -0.037 A 
ATOM     35  C   UNL     1       1.208  -0.679  -0.012  0.00  0.00    +0.004 A 
ATOM     36  C   UNL     1       0.002  -0.004   0.002  0.00  0.00    +0.000 A 
ENDBRANCH  30  34
ENDBRANCH  29  30
ENDBRANCH   1  29
TORSDOF 5
