REMARK  Name = ZINC12217935
REMARK  8 active torsions:
REMARK  status: ('A' for Active; 'I' for Inactive)
REMARK    1  A    between atoms: C_1  and  C_2
REMARK    2  A    between atoms: C_2  and  C_4
REMARK    3  A    between atoms: C_2  and  N_9
REMARK    4  A    between atoms: C_16  and  N_20
REMARK    5  A    between atoms: C_25  and  C_26
REMARK    6  A    between atoms: C_25  and  N_60
REMARK    7  A    between atoms: C_29  and  O_32
REMARK    8  A    between atoms: O_32  and  C_33
REMARK                            x       y       z     vdW  Elec       q    Type
REMARK                         _______ _______ _______ _____ _____    ______ ____
ROOT
ATOM      1  N   UNL     1      -2.012   1.308  -3.707  0.00  0.00    -0.333 N 
ATOM      2  C   UNL     1      -0.677   1.914  -3.606  0.00  0.00    +0.086 C 
ATOM      3  C   UNL     1       0.059   1.323  -2.401  0.00  0.00    -0.059 C 
ATOM      4  C   UNL     1      -2.058   0.966  -1.283  0.00  0.00    -0.059 C 
ATOM      5  C   UNL     1      -2.794   1.557  -2.488  0.00  0.00    +0.086 C 
ATOM      6  N   UNL     1      -0.727   1.600  -1.180  0.00  0.00    +0.384 N 
ATOM      7  H   UNL     1      -0.847   2.615  -1.084  0.00  0.00    -0.081 HD
ENDROOT
BRANCH   1  15
ATOM      8  N   UNL     1      -3.570  -0.921  -7.160  0.00  0.00    -0.226 N 
ATOM      9  C   UNL     1      -4.069   0.163  -7.782  0.00  0.00    +0.254 C 
ATOM     10  O   UNL     1      -4.648   0.165  -8.850  0.00  0.00    -0.270 OA
ATOM     11  C   UNL     1      -3.779   1.353  -6.955  0.00  0.00    +0.051 A 
ATOM     12  C   UNL     1      -4.031   2.707  -7.087  0.00  0.00    +0.014 A 
ATOM     13  C   UNL     1      -3.614   3.589  -6.099  0.00  0.00    +0.003 A 
ATOM     14  C   UNL     1      -2.948   3.130  -4.984  0.00  0.00    +0.024 A 
ATOM     15  C   UNL     1      -2.683   1.767  -4.830  0.00  0.00    +0.043 A 
ATOM     16  C   UNL     1      -3.093   0.873  -5.818  0.00  0.00    +0.070 A 
ATOM     17  C   UNL     1      -2.987  -0.585  -5.995  0.00  0.00    +0.256 C 
ATOM     18  O   UNL     1      -2.461  -1.357  -5.218  0.00  0.00    -0.269 OA
BRANCH   8  20
ATOM     19  C   UNL     1      -5.131  -2.672  -7.851  0.00  0.00    +0.034 C 
ATOM     20  C   UNL     1      -3.660  -2.288  -7.677  0.00  0.00    +0.118 C 
BRANCH  20  21
ATOM     21  C   UNL     1      -2.960  -2.369  -9.009  0.00  0.00    +0.010 A 
ATOM     22  C   UNL     1      -2.169  -3.355  -9.500  0.00  0.00    +0.013 A 
ATOM     23  C   UNL     1      -1.627  -3.213 -10.764  0.00  0.00    +0.008 A 
ATOM     24  C   UNL     1      -1.902  -2.092 -11.475  0.00  0.00    +0.045 A 
ATOM     25  S   UNL     1      -2.962  -1.194 -10.353  0.00  0.00    -0.100 S 
ENDBRANCH  20  21
ENDBRANCH   8  20
ENDBRANCH   1  15
BRANCH   6  26
ATOM     26  C   UNL     1      -0.013   1.086   0.008  0.00  0.00    -0.043 C 
BRANCH  26  27
ATOM     27  C   UNL     1      -0.718   1.572   1.248  0.00  0.00    -0.064 A 
ATOM     28  C   UNL     1      -0.359   2.779   1.818  0.00  0.00    +0.005 A 
ATOM     29  C   UNL     1      -1.008   3.230   2.951  0.00  0.00    +0.046 A 
ATOM     30  C   UNL     1      -2.013   2.464   3.524  0.00  0.00    +0.130 A 
ATOM     31  C   UNL     1      -2.368   1.250   2.954  0.00  0.00    +0.046 A 
ATOM     32  C   UNL     1      -1.720   0.807   1.817  0.00  0.00    +0.005 A 
BRANCH  30  33
ATOM     33  O   UNL     1      -2.649   2.902   4.642  0.00  0.00    -0.406 OA
BRANCH  33  34
ATOM     34  C   UNL     1      -2.232   4.161   5.174  0.00  0.00    +0.575 C 
ATOM     35  F   UNL     1      -2.426   5.161   4.215  0.00  0.00    -0.133 F 
ATOM     36  F   UNL     1      -2.985   4.458   6.315  0.00  0.00    -0.133 F 
ATOM     37  F   UNL     1      -0.876   4.097   5.514  0.00  0.00    -0.133 F 
ENDBRANCH  33  34
ENDBRANCH  30  33
ENDBRANCH  26  27
ENDBRANCH   6  26
TORSDOF 7
