REMARK  Name = ZINC62766943
REMARK  4 active torsions:
REMARK  status: ('A' for Active; 'I' for Inactive)
REMARK    1  A    between atoms: C_4  and  S_8
REMARK    2  A    between atoms: C_6  and  N_7
REMARK    3  A    between atoms: S_8  and  C_9
REMARK    4  A    between atoms: C_16  and  C_18
REMARK                            x       y       z     vdW  Elec       q    Type
REMARK                         _______ _______ _______ _____ _____    ______ ____
ROOT
ATOM      1  C   UNL     1      -0.017   1.388   0.010  0.00  0.00    +0.086 A 
ATOM      2  C   UNL     1       1.198   2.067   0.002  0.00  0.00    +0.122 A 
ATOM      3  N   UNL     1       2.331   1.368  -0.013  0.00  0.00    -0.207 NA
ATOM      4  C   UNL     1       2.311   0.043  -0.020  0.00  0.00    +0.192 A 
ATOM      5  N   UNL     1       1.173  -0.636  -0.013  0.00  0.00    -0.207 NA
ATOM      6  C   UNL     1       0.002  -0.004   0.002  0.00  0.00    +0.122 A 
ATOM      7  N   UNL     1       1.228   3.453   0.008  0.00  0.00    -0.343 N 
ATOM      8  H   UNL     1       0.398   3.956   0.019  0.00  0.00    +0.144 HD
ATOM      9  H   UNL     1       2.078   3.920   0.003  0.00  0.00    +0.144 HD
ENDROOT
BRANCH   6  10
ATOM     10  N   UNL     1      -1.183  -0.723   0.010  0.00  0.00    -0.343 N 
ATOM     11  H   UNL     1      -2.034  -0.255   0.021  0.00  0.00    +0.144 HD
ATOM     12  H   UNL     1      -1.163  -1.692   0.004  0.00  0.00    +0.144 HD
ENDBRANCH   6  10
BRANCH   4  13
ATOM     13  S   UNL     1       3.837  -0.838  -0.040  0.00  0.00    -0.082 S 
BRANCH  13  14
ATOM     14  C   UNL     1       3.337  -2.581  -0.044  0.00  0.00    +0.068 C 
ATOM     15  C   UNL     1       2.588  -2.888   1.267  0.00  0.00    +0.015 C 
ATOM     16  C   UNL     1       2.498  -4.397   1.564  0.00  0.00    +0.001 C 
ATOM     17  C   UNL     1       2.187  -5.208   0.335  0.00  0.00    +0.000 C 
ATOM     18  C   UNL     1       3.515  -5.700  -0.276  0.00  0.00    +0.001 C 
ATOM     19  C   UNL     1       4.176  -4.671  -1.066  0.00  0.00    +0.016 C 
ATOM     20  C   UNL     1       4.561  -3.438  -0.221  0.00  0.00    +0.115 C 
BRANCH  20  21
ATOM     21  C   UNL     1       5.631  -2.651  -0.931  0.00  0.00    +0.360 C 
ATOM     22  O   UNL     1       6.796  -2.757  -0.586  0.00  0.00    -0.246 OA
ATOM     23  O   UNL     1       5.333  -1.910  -1.852  0.00  0.00    -0.246 OA
ENDBRANCH  20  21
ENDBRANCH  13  14
ENDBRANCH   4  13
TORSDOF 4
