REMARK  Name = ZINC35971686
REMARK  15 active torsions:
REMARK  status: ('A' for Active; 'I' for Inactive)
REMARK    1  A    between atoms: C_1  and  C_2
REMARK    2  A    between atoms: C_2  and  C_3
REMARK    3  A    between atoms: C_2  and  C_4
REMARK    4  A    between atoms: C_4  and  C_5
REMARK    5  A    between atoms: C_5  and  C_7
REMARK    6  A    between atoms: C_5  and  N_15
REMARK    7  A    between atoms: N_9  and  C_10
REMARK    8  A    between atoms: C_10  and  C_11
REMARK    9  A    between atoms: C_11  and  N_12
REMARK   10  A    between atoms: N_12  and  C_13
REMARK   11  A    between atoms: N_12  and  C_14
REMARK   12  A    between atoms: C_21  and  C_30
REMARK   13  A    between atoms: N_26  and  C_27
REMARK   14  A    between atoms: C_27  and  C_28
REMARK   15  A    between atoms: C_35  and  C_36
REMARK                            x       y       z     vdW  Elec       q    Type
REMARK                         _______ _______ _______ _____ _____    ______ ____
ROOT
ATOM      1  N   UNL     1      -1.743  -0.968  -2.504  0.00  0.00    -0.281 N 
ATOM      2  C   UNL     1      -1.060  -0.243  -3.586  0.00  0.00    +0.160 C 
ATOM      3  C   UNL     1      -0.439  -1.322  -4.445  0.00  0.00    +0.043 C 
ATOM      4  C   UNL     1      -0.764  -2.498  -3.871  0.00  0.00    +0.058 C 
ATOM      5  C   UNL     1      -1.537  -2.281  -2.712  0.00  0.00    +0.247 C 
ATOM      6  O   UNL     1      -1.964  -3.166  -1.994  0.00  0.00    -0.270 OA
ATOM      7  C   UNL     1      -0.266  -3.767  -4.532  0.00  0.00    +0.142 C 
ATOM      8  N   UNL     1       0.538  -3.609  -5.756  0.00  0.00    -0.288 N 
ATOM      9  C   UNL     1       0.779  -2.363  -6.210  0.00  0.00    +0.307 C 
ATOM     10  O   UNL     1       1.441  -2.223  -7.220  0.00  0.00    -0.252 OA
ATOM     11  N   UNL     1       0.313  -1.275  -5.584  0.00  0.00    -0.253 N 
ATOM     12  H   UNL     1       0.885  -4.384  -6.225  0.00  0.00    +0.151 HD
ENDROOT
BRANCH   7  13
ATOM     13  C   UNL     1       0.565  -4.521  -3.526  0.00  0.00    -0.011 A 
ATOM     14  C   UNL     1       1.805  -4.037  -3.152  0.00  0.00    +0.006 A 
ATOM     15  C   UNL     1       2.567  -4.728  -2.229  0.00  0.00    +0.000 A 
ATOM     16  C   UNL     1       2.088  -5.903  -1.679  0.00  0.00    +0.001 A 
ATOM     17  C   UNL     1       0.848  -6.386  -2.052  0.00  0.00    +0.013 A 
ATOM     18  C   UNL     1       0.084  -5.692  -2.972  0.00  0.00    +0.060 A 
BRANCH  18  19
ATOM     19  C   UNL     1      -1.270  -6.216  -3.375  0.00  0.00    +0.418 C 
ATOM     20  F   UNL     1      -1.562  -7.369  -2.638  0.00  0.00    -0.166 F 
ATOM     21  F   UNL     1      -2.241  -5.242  -3.122  0.00  0.00    -0.166 F 
ATOM     22  F   UNL     1      -1.264  -6.525  -4.739  0.00  0.00    -0.166 F 
ENDBRANCH  18  19
ENDBRANCH   7  13
BRANCH   1  23
ATOM     23  C   UNL     1      -2.501  -0.370  -1.402  0.00  0.00    +0.163 C 
BRANCH  23  24
ATOM     24  C   UNL     1      -3.923  -0.867  -1.443  0.00  0.00    +0.234 C 
ATOM     25  O   UNL     1      -4.269  -1.643  -2.308  0.00  0.00    -0.274 OA
ATOM     26  N   UNL     1      -4.810  -0.448  -0.519  0.00  0.00    -0.316 N 
ATOM     27  H   UNL     1      -4.533   0.173   0.173  0.00  0.00    +0.149 HD
BRANCH  26  28
ATOM     28  C   UNL     1      -6.193  -0.931  -0.559  0.00  0.00    +0.085 C 
BRANCH  28  29
ATOM     29  C   UNL     1      -6.984  -0.307   0.592  0.00  0.00    -0.061 C 
BRANCH  29  30
ATOM     30  N   UNL     1      -8.371  -0.791   0.551  0.00  0.00    +0.377 N 
ATOM     31  C   UNL     1      -8.392  -2.238   0.804  0.00  0.00    -0.097 C 
ATOM     32  C   UNL     1      -9.160  -0.102   1.581  0.00  0.00    -0.097 C 
ATOM     33  H   UNL     1      -8.767  -0.603  -0.357  0.00  0.00    -0.083 HD
ENDBRANCH  29  30
ENDBRANCH  28  29
ENDBRANCH  26  28
ENDBRANCH  23  24
BRANCH  23  34
ATOM     34  C   UNL     1      -1.861  -0.766  -0.069  0.00  0.00    +0.035 C 
BRANCH  34  36
ATOM     35  C   UNL     1      -0.571   1.369   0.066  0.00  0.00    +0.007 C 
ATOM     36  C   UNL     1      -0.461  -0.156   0.025  0.00  0.00    -0.015 C 
ATOM     37  C   UNL     1       0.226  -0.653   1.299  0.00  0.00    +0.007 C 
ENDBRANCH  34  36
ENDBRANCH  23  34
ENDBRANCH   1  23
BRANCH  11  38
ATOM     38  C   UNL     1       0.627   0.039  -6.152  0.00  0.00    +0.141 C 
BRANCH  38  39
ATOM     39  C   UNL     1       1.919   0.545  -5.562  0.00  0.00    -0.015 C 
ATOM     40  C   UNL     1       2.905   0.897  -6.350  0.00  0.00    +0.005 C 
ENDBRANCH  38  39
ENDBRANCH  11  38
TORSDOF 11
