REMARK  Name = ZINC36073611
REMARK  9 active torsions:
REMARK  status: ('A' for Active; 'I' for Inactive)
REMARK    1  A    between atoms: C_1  and  C_2
REMARK    2  A    between atoms: C_6  and  C_7
REMARK    3  A    between atoms: C_7  and  N_8
REMARK    4  A    between atoms: N_8  and  C_9
REMARK    5  A    between atoms: N_8  and  C_21
REMARK    6  A    between atoms: C_9  and  C_10
REMARK    7  A    between atoms: C_10  and  C_11
REMARK    8  A    between atoms: C_21  and  C_22
REMARK    9  A    between atoms: C_24  and  C_27
REMARK                            x       y       z     vdW  Elec       q    Type
REMARK                         _______ _______ _______ _____ _____    ______ ____
ROOT
ATOM      1  N   UNL     1      -1.227   0.403   2.666  0.00  0.00    +0.389 N 
ATOM      2  H   UNL     1      -1.492   0.938   1.852  0.00  0.00    -0.081 HD
ENDROOT
BRANCH   1   3
ATOM      3  C   UNL     1       0.151  -0.081   2.505  0.00  0.00    -0.035 C 
BRANCH   3   9
ATOM      4  C   UNL     1       0.228  -3.092   3.107  0.00  0.00    +0.044 C 
ATOM      5  C   UNL     1       0.662  -2.048   4.103  0.00  0.00    -0.042 A 
ATOM      6  C   UNL     1       1.127  -2.418   5.351  0.00  0.00    +0.011 A 
ATOM      7  C   UNL     1       1.509  -1.453   6.223  0.00  0.00    +0.045 A 
ATOM      8  S   UNL     1       1.215   0.034   5.280  0.00  0.00    -0.103 S 
ATOM      9  C   UNL     1       0.607  -0.731   3.786  0.00  0.00    -0.024 A 
ENDBRANCH   3   9
ENDBRANCH   1   3
BRANCH   1  10
ATOM     10  C   UNL     1      -2.134  -0.742   2.817  0.00  0.00    -0.073 C 
BRANCH  10  11
ATOM     11  C   UNL     1      -2.220  -1.504   1.493  0.00  0.00    +0.019 C 
BRANCH  11  12
ATOM     12  C   UNL     1      -3.151  -2.678   1.648  0.00  0.00    -0.024 A 
ATOM     13  C   UNL     1      -2.798  -3.951   1.885  0.00  0.00    +0.087 A 
ATOM     14  N   UNL     1      -3.914  -4.738   1.964  0.00  0.00    -0.360 N 
ATOM     15  H   UNL     1      -3.912  -5.694   2.129  0.00  0.00    +0.165 HD
ATOM     16  C   UNL     1      -5.042  -3.971   1.776  0.00  0.00    +0.047 A 
ATOM     17  C   UNL     1      -4.614  -2.646   1.576  0.00  0.00    +0.003 A 
ATOM     18  C   UNL     1      -5.553  -1.635   1.362  0.00  0.00    +0.010 A 
ATOM     19  C   UNL     1      -6.885  -1.938   1.351  0.00  0.00    +0.001 A 
ATOM     20  C   UNL     1      -7.313  -3.243   1.552  0.00  0.00    +0.002 A 
ATOM     21  C   UNL     1      -6.403  -4.258   1.756  0.00  0.00    +0.026 A 
ENDBRANCH  11  12
ENDBRANCH  10  11
ENDBRANCH   1  10
BRANCH   1  22
ATOM     22  C   UNL     1      -1.310   1.255   3.860  0.00  0.00    +0.019 C 
BRANCH  22  23
ATOM     23  C   UNL     1      -0.474   2.492   3.653  0.00  0.00    +0.179 A 
ATOM     24  N   UNL     1      -0.896   3.609   3.141  0.00  0.00    -0.210 NA
ATOM     25  C   UNL     1       0.139   4.491   3.117  0.00  0.00    +0.164 A 
ATOM     26  C   UNL     1       1.221   3.853   3.642  0.00  0.00    +0.230 A 
ATOM     27  O   UNL     1       0.822   2.615   3.975  0.00  0.00    -0.449 OA
BRANCH  25  28
ATOM     28  C   UNL     1       0.098   5.877   2.615  0.00  0.00    +0.268 C 
ATOM     29  O   UNL     1       1.126   6.518   2.516  0.00  0.00    -0.268 OA
ATOM     30  N   UNL     1      -1.079   6.432   2.266  0.00  0.00    -0.296 N 
ATOM     31  C   UNL     1      -2.343   5.724   2.511  0.00  0.00    +0.108 C 
ATOM     32  C   UNL     1      -3.279   6.643   3.302  0.00  0.00    +0.019 C 
ATOM     33  C   UNL     1      -3.436   7.969   2.554  0.00  0.00    +0.003 C 
ATOM     34  C   UNL     1      -2.073   8.655   2.435  0.00  0.00    +0.019 C 
ATOM     35  C   UNL     1      -1.124   7.760   1.640  0.00  0.00    +0.108 C 
ENDBRANCH  25  28
ENDBRANCH  22  23
ENDBRANCH   1  22
TORSDOF 8
