REMARK  Name = ZINC14550742
REMARK  4 active torsions:
REMARK  status: ('A' for Active; 'I' for Inactive)
REMARK    1  A    between atoms: C_1  and  C_2
REMARK    2  A    between atoms: C_3  and  N_27
REMARK    3  A    between atoms: C_9  and  C_18
REMARK    4  A    between atoms: C_21  and  N_24
REMARK                            x       y       z     vdW  Elec       q    Type
REMARK                         _______ _______ _______ _____ _____    ______ ____
ROOT
ATOM      1  C   UNL     1       5.418   2.982  -2.660  0.00  0.00    +0.048 C 
ATOM      2  C   UNL     1       5.821   2.120  -1.492  0.00  0.00    +0.001 A 
ATOM      3  C   UNL     1       7.138   2.092  -1.088  0.00  0.00    +0.131 A 
ATOM      4  C   UNL     1       7.523   1.306  -0.019  0.00  0.00    +0.033 A 
ATOM      5  C   UNL     1       6.579   0.541   0.642  0.00  0.00    +0.008 A 
ATOM      6  C   UNL     1       5.260   0.559   0.242  0.00  0.00    -0.019 A 
ATOM      7  C   UNL     1       4.855   1.358  -0.831  0.00  0.00    +0.036 A 
ATOM      8  N   UNL     1       3.528   1.430  -1.296  0.00  0.00    -0.336 N 
ATOM      9  C   UNL     1       2.541   0.570  -0.623  0.00  0.00    +0.105 C 
ATOM     10  C   UNL     1       2.898   0.552   0.849  0.00  0.00    +0.029 C 
ATOM     11  C   UNL     1       4.230  -0.257   0.921  0.00  0.00    +0.049 C 
ATOM     12  C   UNL     1       4.330  -0.611   2.359  0.00  0.00    -0.023 C 
ATOM     13  C   UNL     1       3.102  -0.686   2.861  0.00  0.00    -0.030 C 
ATOM     14  C   UNL     1       2.074  -0.344   1.780  0.00  0.00    +0.033 C 
ATOM     15  H   UNL     1       3.475   1.324  -2.298  0.00  0.00    +0.147 HD
ENDROOT
BRANCH   9  16
ATOM     16  C   UNL     1       1.156   1.133  -0.809  0.00  0.00    -0.027 A 
ATOM     17  C   UNL     1       0.084   0.282  -1.003  0.00  0.00    +0.008 A 
ATOM     18  C   UNL     1      -1.186   0.799  -1.179  0.00  0.00    +0.033 A 
ATOM     19  C   UNL     1      -1.385   2.166  -1.152  0.00  0.00    +0.126 A 
ATOM     20  C   UNL     1      -0.314   3.017  -0.957  0.00  0.00    +0.033 A 
ATOM     21  C   UNL     1       0.957   2.501  -0.785  0.00  0.00    +0.008 A 
BRANCH  19  22
ATOM     22  N   UNL     1      -2.746   2.719  -1.336  0.00  0.00    +0.056 N 
ATOM     23  O   UNL     1      -2.921   3.925  -1.315  0.00  0.00    -0.126 OA
ATOM     24  O   UNL     1      -3.690   1.970  -1.508  0.00  0.00    -0.126 OA
ENDBRANCH  19  22
ENDBRANCH   9  16
BRANCH   3  25
ATOM     25  N   UNL     1       8.145   2.909  -1.803  0.00  0.00    +0.057 N 
ATOM     26  O   UNL     1       9.271   2.477  -1.971  0.00  0.00    -0.126 OA
ATOM     27  O   UNL     1       7.847   4.013  -2.222  0.00  0.00    -0.126 OA
ENDBRANCH   3  25
TORSDOF 3
