REMARK  Name = ZINC03991699
REMARK  8 active torsions:
REMARK  status: ('A' for Active; 'I' for Inactive)
REMARK    1  A    between atoms: C_1  and  C_2
REMARK    2  A    between atoms: N_8  and  C_9
REMARK    3  A    between atoms: C_9  and  C_10
REMARK    4  A    between atoms: N_12  and  C_13
REMARK    5  A    between atoms: C_13  and  C_14
REMARK    6  A    between atoms: C_19  and  C_20
REMARK    7  A    between atoms: N_24  and  C_28
REMARK    8  A    between atoms: C_28  and  C_29
REMARK                            x       y       z     vdW  Elec       q    Type
REMARK                         _______ _______ _______ _____ _____    ______ ____
ROOT
ATOM      1  C   UNL     1      -0.018   1.503   0.010  0.00  0.00    +0.063 C 
ATOM      2  C   UNL     1       0.002  -0.004   0.002  0.00  0.00    +0.021 A 
ATOM      3  C   UNL     1       0.005  -0.669  -1.177  0.00  0.00    +0.051 A 
ATOM      4  C   UNL     1       0.036  -2.068  -1.187  0.00  0.00    +0.133 A 
ATOM      5  C   UNL     1       0.067  -2.761  -0.011  0.00  0.00    +0.120 A 
ATOM      6  C   UNL     1       0.042  -2.030   1.202  0.00  0.00    +0.275 A 
ATOM      7  O   UNL     1       0.044  -2.621   2.271  0.00  0.00    -0.266 OA
ATOM      8  N   UNL     1       0.022  -0.685   1.179  0.00  0.00    -0.302 N 
ATOM      9  N   UNL     1       0.145  -4.153   0.036  0.00  0.00    -0.324 N 
ATOM     10  C   UNL     1      -0.266  -5.017  -1.068  0.00  0.00    +0.212 C 
ATOM     11  N   UNL     1       0.364  -4.525  -2.311  0.00  0.00    -0.159 NA
ATOM     12  S   UNL     1       0.024  -2.944  -2.721  0.00  0.00    +0.064 S 
ATOM     13  O   UNL     1      -1.312  -2.918  -3.203  0.00  0.00    -0.153 OA
ATOM     14  O   UNL     1       1.126  -2.467  -3.480  0.00  0.00    -0.153 OA
ATOM     15  H   UNL     1       0.489  -4.567   0.843  0.00  0.00    +0.148 HD
ENDROOT
BRANCH   8  16
ATOM     16  C   UNL     1       0.017   0.058   2.442  0.00  0.00    +0.220 C 
BRANCH  16  17
ATOM     17  C   UNL     1      -1.405   0.286   2.884  0.00  0.00    +0.233 C 
ATOM     18  O   UNL     1      -2.324  -0.131   2.211  0.00  0.00    -0.274 OA
ATOM     19  N   UNL     1      -1.657   0.954   4.028  0.00  0.00    -0.310 N 
ATOM     20  H   UNL     1      -0.922   1.287   4.566  0.00  0.00    +0.149 HD
BRANCH  19  21
ATOM     21  C   UNL     1      -3.039   1.175   4.458  0.00  0.00    +0.141 C 
BRANCH  21  22
ATOM     22  C   UNL     1      -3.045   1.940   5.757  0.00  0.00    -0.011 A 
ATOM     23  C   UNL     1      -3.227   1.273   6.962  0.00  0.00    +0.010 A 
ATOM     24  C   UNL     1      -3.226   2.012   8.131  0.00  0.00    +0.041 A 
ATOM     25  C   UNL     1      -3.043   3.389   8.061  0.00  0.00    +0.094 A 
ATOM     26  N   UNL     1      -2.872   3.988   6.893  0.00  0.00    -0.347 N 
ATOM     27  C   UNL     1      -2.863   3.308   5.762  0.00  0.00    +0.019 A 
ATOM     28  C   UNL     1      -2.658   4.035   4.458  0.00  0.00    +0.063 C 
ATOM     29  N   UNL     1      -3.039   4.144   9.229  0.00  0.00    -0.345 N 
ATOM     30  H   UNL     1      -3.164   3.710  10.087  0.00  0.00    +0.144 HD
ATOM     31  H   UNL     1      -2.912   5.105   9.185  0.00  0.00    +0.144 HD
ATOM     32  H   UNL     1      -2.747   4.949   6.867  0.00  0.00    +0.167 HD
ENDBRANCH  21  22
ENDBRANCH  19  21
ENDBRANCH  16  17
ENDBRANCH   8  16
BRANCH  11  33
ATOM     33  C   UNL     1       1.232  -5.373  -3.131  0.00  0.00    +0.114 C 
BRANCH  33  34
ATOM     34  C   UNL     1       0.376  -6.204  -4.089  0.00  0.00    +0.005 C 
ATOM     35  C   UNL     1       0.405  -7.725  -3.923  0.00  0.00    +0.005 C 
ATOM     36  C   UNL     1       1.106  -7.072  -5.116  0.00  0.00    +0.005 C 
ENDBRANCH  33  34
ENDBRANCH  11  33
TORSDOF 6
