REMARK  Name = ZINC40551847
REMARK  5 active torsions:
REMARK  status: ('A' for Active; 'I' for Inactive)
REMARK    1  A    between atoms: C_1  and  C_2
REMARK    2  A    between atoms: C_7  and  C_18
REMARK    3  A    between atoms: N_12  and  C_13
REMARK    4  A    between atoms: C_13  and  C_14
REMARK    5  A    between atoms: C_14  and  C_15
REMARK                            x       y       z     vdW  Elec       q    Type
REMARK                         _______ _______ _______ _____ _____    ______ ____
ROOT
ATOM      1  C   UNL     1       0.116   1.916   0.457  0.00  0.00    +0.028 C 
ATOM      2  C   UNL     1       0.186   0.419   0.147  0.00  0.00    +0.075 C 
ATOM      3  C   UNL     1      -1.101  -0.264   0.618  0.00  0.00    +0.022 C 
ATOM      4  C   UNL     1      -0.969  -1.777   0.432  0.00  0.00    +0.004 C 
ATOM      5  C   UNL     1       0.193  -2.297   1.282  0.00  0.00    +0.022 C 
ATOM      6  C   UNL     1       1.495  -1.637   0.818  0.00  0.00    +0.075 C 
ATOM      7  N   UNL     1       1.328  -0.178   0.853  0.00  0.00    -0.280 N 
ATOM      8  C   UNL     1       2.202   0.598   1.524  0.00  0.00    +0.303 C 
ATOM      9  O   UNL     1       2.363   1.758   1.194  0.00  0.00    -0.253 OA
ATOM     10  N   UNL     1       2.898   0.089   2.559  0.00  0.00    -0.299 N 
ATOM     11  C   UNL     1       2.638  -2.048   1.748  0.00  0.00    +0.028 C 
ATOM     12  H   UNL     1       2.658  -0.776   2.927  0.00  0.00    +0.150 HD
ENDROOT
BRANCH  10  13
ATOM     13  C   UNL     1       4.017   0.842   3.131  0.00  0.00    +0.117 C 
BRANCH  13  14
ATOM     14  C   UNL     1       4.631   0.047   4.285  0.00  0.00    +0.144 C 
BRANCH  14  15
ATOM     15  C   UNL     1       5.782   0.822   4.872  0.00  0.00    +0.357 C 
ATOM     16  O   UNL     1       6.084   1.909   4.410  0.00  0.00    -0.246 OA
ATOM     17  O   UNL     1       6.412   0.361   5.809  0.00  0.00    -0.246 OA
ENDBRANCH  14  15
ENDBRANCH  13  14
ENDBRANCH  10  13
TORSDOF 3
