REMARK  Name = ZINC36028073
REMARK  9 active torsions:
REMARK  status: ('A' for Active; 'I' for Inactive)
REMARK    1  A    between atoms: C_1  and  C_2
REMARK    2  A    between atoms: C_2  and  C_3
REMARK    3  A    between atoms: C_3  and  C_5
REMARK    4  A    between atoms: C_3  and  C_6
REMARK    5  A    between atoms: N_10  and  C_31
REMARK    6  A    between atoms: N_15  and  S_18
REMARK    7  A    between atoms: S_18  and  C_21
REMARK    8  A    between atoms: C_25  and  C_27
REMARK    9  A    between atoms: C_31  and  C_32
REMARK                            x       y       z     vdW  Elec       q    Type
REMARK                         _______ _______ _______ _____ _____    ______ ____
ROOT
ATOM      1  C   UNL     1      -1.329  -2.005  -0.071  0.00  0.00    +0.022 C 
ATOM      2  C   UNL     1      -0.783  -2.656   1.181  0.00  0.00    +0.201 C 
ATOM      3  O   UNL     1       0.188  -2.286   1.806  0.00  0.00    -0.277 OA
ATOM      4  N   UNL     1      -1.558  -3.718   1.484  0.00  0.00    -0.306 N 
ATOM      5  C   UNL     1      -2.627  -3.843   0.489  0.00  0.00    +0.006 C 
ATOM      6  N   UNL     1      -2.704  -2.541  -0.211  0.00  0.00    +0.401 N 
ATOM      7  C   UNL     1      -3.958  -4.140   1.177  0.00  0.00    +0.023 C 
ATOM      8  C   UNL     1      -3.855  -5.472   1.928  0.00  0.00    +0.109 C 
ATOM      9  N   UNL     1      -3.405  -6.510   0.991  0.00  0.00    -0.177 NA
ATOM     10  C   UNL     1      -2.172  -6.284   0.224  0.00  0.00    +0.109 C 
ATOM     11  C   UNL     1      -2.289  -4.945  -0.513  0.00  0.00    +0.023 C 
ATOM     12  H   UNL     1      -3.371  -1.934   0.240  0.00  0.00    -0.082 HD
ATOM     13  H   UNL     1      -2.939  -2.671  -1.184  0.00  0.00    -0.082 HD
ENDROOT
BRANCH   9  14
ATOM     14  S   UNL     1      -4.271  -7.909   0.802  0.00  0.00    +0.061 S 
ATOM     15  O   UNL     1      -3.361  -8.887   0.319  0.00  0.00    -0.153 OA
ATOM     16  O   UNL     1      -5.018  -8.088   1.998  0.00  0.00    -0.153 OA
BRANCH  14  17
ATOM     17  C   UNL     1      -5.440  -7.628  -0.486  0.00  0.00    +0.106 A 
ATOM     18  C   UNL     1      -6.694  -7.129  -0.185  0.00  0.00    +0.028 A 
ATOM     19  C   UNL     1      -7.611  -6.909  -1.195  0.00  0.00    +0.002 A 
ATOM     20  C   UNL     1      -7.274  -7.188  -2.507  0.00  0.00    +0.012 A 
ATOM     21  C   UNL     1      -6.021  -7.686  -2.808  0.00  0.00    +0.057 A 
ATOM     22  C   UNL     1      -5.102  -7.902  -1.798  0.00  0.00    +0.041 A 
BRANCH  21  23
ATOM     23  C   UNL     1      -5.655  -7.991  -4.237  0.00  0.00    +0.417 C 
ATOM     24  F   UNL     1      -6.737  -7.690  -5.071  0.00  0.00    -0.166 F 
ATOM     25  F   UNL     1      -4.550  -7.218  -4.611  0.00  0.00    -0.166 F 
ATOM     26  F   UNL     1      -5.337  -9.348  -4.358  0.00  0.00    -0.166 F 
ENDBRANCH  21  23
ENDBRANCH  14  17
ENDBRANCH   9  14
BRANCH   1  27
ATOM     27  C   UNL     1      -1.364  -0.484   0.091  0.00  0.00    -0.020 C 
ATOM     28  C   UNL     1      -2.095  -0.126   1.387  0.00  0.00    +0.006 C 
BRANCH  27  30
ATOM     29  C   UNL     1       0.032   1.586   0.184  0.00  0.00    +0.004 C 
ATOM     30  C   UNL     1       0.066   0.057   0.147  0.00  0.00    -0.001 C 
ENDBRANCH  27  30
ENDBRANCH   1  27
BRANCH   4  31
ATOM     31  C   UNL     1      -1.362  -4.608   2.631  0.00  0.00    +0.180 C 
BRANCH  31  32
ATOM     32  C   UNL     1      -1.974  -3.986   3.860  0.00  0.00    +0.122 A 
ATOM     33  C   UNL     1      -3.195  -4.259   4.354  0.00  0.00    +0.046 A 
ATOM     34  C   UNL     1      -3.359  -3.455   5.506  0.00  0.00    +0.041 A 
ATOM     35  C   UNL     1      -2.229  -2.740   5.647  0.00  0.00    +0.195 A 
ATOM     36  O   UNL     1      -1.391  -3.070   4.650  0.00  0.00    -0.466 OA
ENDBRANCH  31  32
ENDBRANCH   4  31
TORSDOF 7
