REMARK  Name = ZINC58849119
REMARK  10 active torsions:
REMARK  status: ('A' for Active; 'I' for Inactive)
REMARK    1  A    between atoms: C_1  and  C_2
REMARK    2  A    between atoms: C_2  and  O_3
REMARK    3  A    between atoms: O_3  and  C_4
REMARK    4  A    between atoms: C_7  and  C_10
REMARK    5  A    between atoms: C_21  and  S_26
REMARK    6  A    between atoms: S_26  and  N_29
REMARK    7  A    between atoms: N_29  and  C_30
REMARK    8  A    between atoms: C_35  and  O_36
REMARK    9  A    between atoms: O_36  and  C_37
REMARK   10  A    between atoms: C_37  and  C_38
REMARK                            x       y       z     vdW  Elec       q    Type
REMARK                         _______ _______ _______ _____ _____    ______ ____
ROOT
ATOM      1  C   UNL     1      -2.448  -5.786   0.072  0.00  0.00    +0.105 C 
ATOM      2  C   UNL     1      -2.668  -6.224  -1.345  0.00  0.00    +0.029 C 
ATOM      3  C   UNL     1      -3.690  -5.332  -2.080  0.00  0.00    +0.033 C 
ATOM      4  C   UNL     1      -4.289  -6.254  -3.122  0.00  0.00    -0.030 C 
ATOM      5  C   UNL     1      -4.055  -7.506  -2.828  0.00  0.00    -0.023 C 
ATOM      6  C   UNL     1      -3.292  -7.604  -1.530  0.00  0.00    +0.049 C 
ATOM      7  C   UNL     1      -4.267  -7.963  -0.445  0.00  0.00    -0.018 A 
ATOM      8  C   UNL     1      -5.118  -9.039  -0.653  0.00  0.00    +0.034 A 
ATOM      9  C   UNL     1      -6.039  -9.401   0.310  0.00  0.00    +0.109 A 
ATOM     10  C   UNL     1      -6.120  -8.690   1.493  0.00  0.00    +0.030 A 
ATOM     11  C   UNL     1      -5.276  -7.621   1.711  0.00  0.00    +0.025 A 
ATOM     12  C   UNL     1      -4.343  -7.259   0.743  0.00  0.00    +0.031 A 
ATOM     13  N   UNL     1      -3.473  -6.216   1.000  0.00  0.00    -0.336 N 
ATOM     14  H   UNL     1      -3.577  -5.733   1.835  0.00  0.00    +0.147 HD
ENDROOT
BRANCH   1  18
ATOM     15  C   UNL     1      -2.252  -1.518   0.155  0.00  0.00    +0.121 A 
ATOM     16  C   UNL     1      -1.084  -2.267   0.130  0.00  0.00    +0.046 A 
ATOM     17  C   UNL     1      -1.150  -3.647   0.104  0.00  0.00    +0.009 A 
ATOM     18  C   UNL     1      -2.379  -4.281   0.102  0.00  0.00    -0.027 A 
ATOM     19  C   UNL     1      -3.544  -3.537   0.126  0.00  0.00    +0.009 A 
ATOM     20  C   UNL     1      -3.483  -2.157   0.158  0.00  0.00    +0.046 A 
BRANCH  15  21
ATOM     21  O   UNL     1      -2.189  -0.161   0.181  0.00  0.00    -0.492 OA
BRANCH  21  23
ATOM     22  C   UNL     1      -1.019   1.953   0.207  0.00  0.00    +0.048 C 
ATOM     23  C   UNL     1      -0.888   0.429   0.175  0.00  0.00    +0.225 C 
ENDBRANCH  21  23
ENDBRANCH  15  21
ENDBRANCH   1  18
BRANCH   9  24
ATOM     24  S   UNL     1      -7.112 -10.770   0.030  0.00  0.00    +0.072 S 
ATOM     25  O   UNL     1      -8.252 -10.567   0.854  0.00  0.00    -0.150 OA
ATOM     26  O   UNL     1      -7.208 -10.929  -1.379  0.00  0.00    -0.150 OA
BRANCH  24  27
ATOM     27  N   UNL     1      -6.345 -12.119   0.608  0.00  0.00    -0.213 N 
ATOM     28  H   UNL     1      -6.137 -12.852   0.008  0.00  0.00    +0.174 HD
BRANCH  27  29
ATOM     29  C   UNL     1      -5.997 -12.201   1.961  0.00  0.00    +0.090 A 
ATOM     30  C   UNL     1      -6.824 -11.647   2.927  0.00  0.00    +0.028 A 
ATOM     31  C   UNL     1      -6.478 -11.729   4.262  0.00  0.00    +0.002 A 
ATOM     32  C   UNL     1      -5.309 -12.363   4.639  0.00  0.00    +0.004 A 
ATOM     33  C   UNL     1      -4.479 -12.918   3.682  0.00  0.00    +0.047 A 
ATOM     34  C   UNL     1      -4.821 -12.844   2.342  0.00  0.00    +0.143 A 
BRANCH  34  35
ATOM     35  O   UNL     1      -4.009 -13.394   1.400  0.00  0.00    -0.490 OA
BRANCH  35  36
ATOM     36  C   UNL     1      -2.820 -14.038   1.864  0.00  0.00    +0.226 C 
ATOM     37  C   UNL     1      -2.040 -14.591   0.669  0.00  0.00    +0.048 C 
ENDBRANCH  35  36
ENDBRANCH  34  35
ENDBRANCH  27  29
ENDBRANCH  24  27
ENDBRANCH   9  24
TORSDOF 8
