REMARK  Name = ZINC39674558
REMARK  9 active torsions:
REMARK  status: ('A' for Active; 'I' for Inactive)
REMARK    1  A    between atoms: C_1  and  C_2
REMARK    2  A    between atoms: C_5  and  C_8
REMARK    3  A    between atoms: C_8  and  C_9
REMARK    4  A    between atoms: C_13  and  C_22
REMARK    5  A    between atoms: N_24  and  C_25
REMARK    6  A    between atoms: C_25  and  C_27
REMARK    7  A    between atoms: C_25  and  C_28
REMARK    8  A    between atoms: C_29  and  C_35
REMARK    9  A    between atoms: C_32  and  C_34
REMARK                            x       y       z     vdW  Elec       q    Type
REMARK                         _______ _______ _______ _____ _____    ______ ____
ROOT
ATOM      1  C   UNL     1       2.151  -4.838  -0.318  0.00  0.00    +0.220 C 
ATOM      2  O   UNL     1       3.144  -4.141  -0.323  0.00  0.00    -0.275 OA
ATOM      3  N   UNL     1       2.269  -6.177  -0.229  0.00  0.00    -0.300 N 
ATOM      4  C   UNL     1       1.183  -7.186  -0.215  0.00  0.00    +0.121 C 
ATOM      5  C   UNL     1       1.725  -8.355  -1.068  0.00  0.00    +0.100 C 
ATOM      6  C   UNL     1       3.255  -8.212  -1.003  0.00  0.00    -0.004 C 
ATOM      7  C   UNL     1       3.515  -6.976  -0.130  0.00  0.00    +0.115 C 
ATOM      8  C   UNL     1       3.874  -9.451  -0.363  0.00  0.00    -0.010 C 
ATOM      9  C   UNL     1       5.399  -9.311  -0.362  0.00  0.00    -0.082 C 
ATOM     10  N   UNL     1       5.879  -9.156  -1.741  0.00  0.00    +0.379 N 
ATOM     11  C   UNL     1       5.352  -7.913  -2.317  0.00  0.00    -0.082 C 
ATOM     12  C   UNL     1       3.825  -7.994  -2.401  0.00  0.00    -0.010 C 
ATOM     13  H   UNL     1       6.887  -9.125  -1.743  0.00  0.00    -0.086 HD
ATOM     14  H   UNL     1       5.567  -9.940  -2.294  0.00  0.00    -0.086 HD
ENDROOT
BRANCH   5  15
ATOM     15  C   UNL     1       1.293  -9.675  -0.483  0.00  0.00    +0.219 C 
ATOM     16  O   UNL     1       1.169  -9.795   0.717  0.00  0.00    -0.275 OA
ATOM     17  N   UNL     1       1.045 -10.722  -1.294  0.00  0.00    -0.309 N 
ATOM     18  H   UNL     1       1.145 -10.626  -2.255  0.00  0.00    +0.149 HD
BRANCH  17  19
ATOM     19  C   UNL     1       0.625 -12.006  -0.726  0.00  0.00    +0.100 C 
ATOM     20  C   UNL     1       1.860 -12.808  -0.311  0.00  0.00    +0.033 C 
BRANCH  19  21
ATOM     21  C   UNL     1      -0.154 -12.781  -1.757  0.00  0.00    -0.001 C 
ATOM     22  C   UNL     1      -1.363 -13.331  -1.632  0.00  0.00    +0.063 C 
ATOM     23  N   UNL     1      -1.732 -13.946  -2.777  0.00  0.00    -0.159 NA
ATOM     24  N   UNL     1      -0.900 -13.880  -3.685  0.00  0.00    -0.180 NA
ATOM     25  C   UNL     1       0.253 -13.112  -3.182  0.00  0.00    +0.154 C 
ATOM     26  C   UNL     1       1.519 -13.971  -3.198  0.00  0.00    +0.039 C 
ATOM     27  C   UNL     1      -2.204 -13.273  -0.383  0.00  0.00    +0.067 C 
ENDBRANCH  19  21
ENDBRANCH  17  19
ENDBRANCH   5  15
BRANCH   1  28
ATOM     28  C   UNL     1       0.786  -4.206  -0.411  0.00  0.00    +0.131 C 
BRANCH  28  33
ATOM     29  C   UNL     1       1.338   1.536  -0.750  0.00  0.00    +0.044 C 
ATOM     30  C   UNL     1       1.194   0.039  -0.661  0.00  0.00    -0.050 A 
ATOM     31  C   UNL     1       1.176  -0.723  -1.815  0.00  0.00    +0.003 A 
ATOM     32  C   UNL     1       1.044  -2.097  -1.734  0.00  0.00    +0.004 A 
ATOM     33  C   UNL     1       0.931  -2.708  -0.499  0.00  0.00    -0.039 A 
ATOM     34  C   UNL     1       0.950  -1.947   0.654  0.00  0.00    +0.004 A 
ATOM     35  C   UNL     1       1.086  -0.573   0.573  0.00  0.00    +0.003 A 
ENDBRANCH  28  33
ENDBRANCH   1  28
TORSDOF 5
