REMARK  Name = ZINC20504561
REMARK  13 active torsions:
REMARK  status: ('A' for Active; 'I' for Inactive)
REMARK    1  A    between atoms: C_1  and  C_2
REMARK    2  A    between atoms: C_10  and  C_12
REMARK    3  A    between atoms: C_12  and  N_13
REMARK    4  A    between atoms: N_13  and  C_14
REMARK    5  A    between atoms: N_13  and  C_15
REMARK    6  A    between atoms: C_17  and  C_41
REMARK    7  A    between atoms: C_20  and  O_40
REMARK    8  A    between atoms: C_22  and  C_26
REMARK    9  A    between atoms: C_26  and  C_28
REMARK   10  A    between atoms: C_26  and  C_29
REMARK   11  A    between atoms: N_31  and  C_32
REMARK   12  A    between atoms: C_32  and  C_33
REMARK   13  A    between atoms: C_33  and  N_34
REMARK                            x       y       z     vdW  Elec       q    Type
REMARK                         _______ _______ _______ _____ _____    ______ ____
ROOT
ATOM      1  C   UNL     1       0.025   2.095   0.653  0.00  0.00    +0.014 C 
ATOM      2  C   UNL     1      -0.072   0.605   0.319  0.00  0.00    +0.042 C 
ATOM      3  C   UNL     1      -1.523   0.162   0.396  0.00  0.00    +0.057 A 
ATOM      4  C   UNL     1      -1.849  -1.028   0.960  0.00  0.00    +0.015 A 
ATOM      5  S   UNL     1      -3.613  -1.062   0.799  0.00  0.00    -0.057 S 
ATOM      6  C   UNL     1      -3.792   0.429   0.035  0.00  0.00    +0.165 A 
ATOM      7  N   UNL     1      -2.556   0.867  -0.060  0.00  0.00    -0.229 NA
ATOM      8  N   UNL     1      -4.962   1.047  -0.392  0.00  0.00    -0.266 N 
ATOM      9  C   UNL     1      -6.150   0.439  -0.207  0.00  0.00    +0.202 C 
ATOM     10  O   UNL     1      -6.199  -0.646   0.332  0.00  0.00    -0.277 OA
ATOM     11  C   UNL     1      -0.927  -2.031   1.558  0.00  0.00    +0.051 C 
ATOM     12  C   UNL     1       0.517  -1.699   1.133  0.00  0.00    -0.022 C 
ATOM     13  C   UNL     1       0.762  -0.201   1.324  0.00  0.00    +0.033 C 
ATOM     14  C   UNL     1       2.236   0.130   1.068  0.00  0.00    +0.123 C 
ATOM     15  C   UNL     1       3.133  -0.676   2.005  0.00  0.00    +0.029 C 
ATOM     16  C   UNL     1       2.910  -2.168   1.738  0.00  0.00    +0.007 C 
ATOM     17  C   UNL     1       1.451  -2.508   2.040  0.00  0.00    +0.008 C 
ATOM     18  C   UNL     1       0.736  -2.095  -0.328  0.00  0.00    +0.012 C 
ATOM     19  H   UNL     1      -4.922   1.915  -0.824  0.00  0.00    +0.157 HD
ENDROOT
BRANCH  15  20
ATOM     20  C   UNL     1       4.598  -0.319   1.746  0.00  0.00    +0.077 C 
ATOM     21  C   UNL     1       5.000  -0.795   0.349  0.00  0.00    +0.017 C 
BRANCH  20  22
ATOM     22  C   UNL     1       5.468  -0.992   2.776  0.00  0.00    +0.216 C 
ATOM     23  O   UNL     1       4.962  -1.631   3.674  0.00  0.00    -0.276 OA
ATOM     24  N   UNL     1       6.809  -0.883   2.700  0.00  0.00    -0.314 N 
ATOM     25  H   UNL     1       7.214  -0.371   1.982  0.00  0.00    +0.149 HD
BRANCH  24  26
ATOM     26  C   UNL     1       7.655  -1.537   3.701  0.00  0.00    +0.119 C 
BRANCH  26  27
ATOM     27  C   UNL     1       9.127  -1.258   3.387  0.00  0.00    +0.103 C 
BRANCH  27  28
ATOM     28  N   UNL     1       9.975  -1.914   4.391  0.00  0.00    -0.297 NA
ATOM     29  C   UNL     1       9.787  -1.308   5.716  0.00  0.00    +0.112 C 
ATOM     30  C   UNL     1      10.642  -2.058   6.741  0.00  0.00    +0.175 C 
ATOM     31  O   UNL     1      12.010  -2.032   6.323  0.00  0.00    -0.377 OA
ATOM     32  C   UNL     1      12.229  -2.616   5.035  0.00  0.00    +0.175 C 
ATOM     33  C   UNL     1      11.390  -1.871   3.994  0.00  0.00    +0.112 C 
ENDBRANCH  27  28
ENDBRANCH  26  27
ENDBRANCH  24  26
ENDBRANCH  20  22
ENDBRANCH  15  20
BRANCH  14  34
ATOM     34  O   UNL     1       2.454   1.524   1.293  0.00  0.00    -0.391 OA
ATOM     35  H   UNL     1       3.340   1.827   1.054  0.00  0.00    +0.210 HD
ENDBRANCH  14  34
BRANCH   9  36
ATOM     36  C   UNL     1      -7.419   1.109  -0.670  0.00  0.00    +0.018 C 
BRANCH  36  37
ATOM     37  N   UNL     1      -8.569   0.250  -0.355  0.00  0.00    +0.382 N 
ATOM     38  C   UNL     1      -9.812   0.953  -0.697  0.00  0.00    -0.096 C 
ATOM     39  C   UNL     1      -8.479  -0.993  -1.133  0.00  0.00    -0.096 C 
ATOM     40  H   UNL     1      -8.565   0.032   0.630  0.00  0.00    -0.082 HD
ENDBRANCH  36  37
ENDBRANCH   9  36
TORSDOF 8
