REMARK  Name = ZINC15959382
REMARK  6 active torsions:
REMARK  status: ('A' for Active; 'I' for Inactive)
REMARK    1  A    between atoms: C_4  and  C_7
REMARK    2  A    between atoms: C_7  and  C_8
REMARK    3  A    between atoms: C_8  and  N_9
REMARK    4  A    between atoms: C_14  and  C_31
REMARK    5  A    between atoms: C_31  and  C_32
REMARK    6  A    between atoms: C_35  and  O_38
REMARK                            x       y       z     vdW  Elec       q    Type
REMARK                         _______ _______ _______ _____ _____    ______ ____
ROOT
ATOM      1  N   UNL     1       5.450  -1.678   1.382  0.00  0.00    -0.241 N 
ATOM      2  C   UNL     1       5.532  -3.014   1.369  0.00  0.00    +0.227 C 
ATOM      3  O   UNL     1       4.587  -3.773   1.371  0.00  0.00    -0.275 OA
ATOM      4  C   UNL     1       6.986  -3.428   1.350  0.00  0.00    +0.107 C 
ATOM      5  C   UNL     1       7.312  -4.070  -0.015  0.00  0.00    +0.072 C 
ATOM      6  N   UNL     1       8.594  -3.445  -0.434  0.00  0.00    -0.295 NA
ATOM      7  C   UNL     1       8.468  -2.039  -0.008  0.00  0.00    +0.136 C 
ATOM      8  C   UNL     1       7.745  -2.072   1.362  0.00  0.00    +0.122 C 
ATOM      9  C   UNL     1       6.631  -1.049   1.373  0.00  0.00    +0.228 C 
ATOM     10  O   UNL     1       6.784   0.153   1.376  0.00  0.00    -0.275 OA
ATOM     11  C   UNL     1       9.811  -1.374   0.100  0.00  0.00    +0.003 A 
ATOM     12  C   UNL     1      10.940  -1.634   0.844  0.00  0.00    +0.008 A 
ATOM     13  C   UNL     1      12.052  -0.820   0.722  0.00  0.00    +0.000 A 
ATOM     14  C   UNL     1      12.027   0.254  -0.149  0.00  0.00    +0.002 A 
ATOM     15  C   UNL     1      10.897   0.519  -0.895  0.00  0.00    +0.023 A 
ATOM     16  C   UNL     1       9.773  -0.296  -0.779  0.00  0.00    +0.039 A 
ATOM     17  N   UNL     1       8.532  -0.235  -1.416  0.00  0.00    -0.283 N 
ATOM     18  C   UNL     1       7.708  -1.224  -1.019  0.00  0.00    +0.243 C 
ATOM     19  O   UNL     1       6.574  -1.421  -1.403  0.00  0.00    -0.273 OA
ATOM     20  H   UNL     1       9.378  -3.891   0.018  0.00  0.00    +0.124 HD
ATOM     21  H   UNL     1       8.291   0.440  -2.069  0.00  0.00    +0.155 HD
ENDROOT
BRANCH   1  22
ATOM     22  C   UNL     1       4.171  -0.963   1.399  0.00  0.00    +0.121 C 
BRANCH  22  23
ATOM     23  C   UNL     1       3.711  -0.707  -0.038  0.00  0.00    +0.054 C 
BRANCH  23  27
ATOM     24  C   UNL     1      -0.017   1.378   0.010  0.00  0.00    +0.000 A 
ATOM     25  C   UNL     1       1.171   2.086   0.002  0.00  0.00    +0.000 A 
ATOM     26  C   UNL     1       2.377   1.411  -0.013  0.00  0.00    +0.004 A 
ATOM     27  C   UNL     1       2.396   0.029  -0.020  0.00  0.00    -0.046 A 
ATOM     28  C   UNL     1       1.208  -0.679  -0.012  0.00  0.00    +0.004 A 
ATOM     29  C   UNL     1       0.002  -0.004   0.002  0.00  0.00    +0.000 A 
ENDBRANCH  23  27
ENDBRANCH  22  23
ENDBRANCH   1  22
BRANCH   5  30
ATOM     30  C   UNL     1       7.478  -5.583   0.134  0.00  0.00    +0.054 C 
BRANCH  30  31
ATOM     31  C   UNL     1       7.673  -6.204  -1.226  0.00  0.00    -0.046 A 
ATOM     32  C   UNL     1       6.577  -6.623  -1.957  0.00  0.00    +0.007 A 
ATOM     33  C   UNL     1       6.753  -7.192  -3.203  0.00  0.00    +0.045 A 
ATOM     34  C   UNL     1       8.031  -7.343  -3.721  0.00  0.00    +0.117 A 
ATOM     35  C   UNL     1       9.129  -6.921  -2.986  0.00  0.00    +0.045 A 
ATOM     36  C   UNL     1       8.947  -6.347  -1.743  0.00  0.00    +0.007 A 
BRANCH  34  37
ATOM     37  O   UNL     1       8.207  -7.903  -4.947  0.00  0.00    -0.507 OA
ATOM     38  H   UNL     1       8.200  -7.266  -5.675  0.00  0.00    +0.292 HD
ENDBRANCH  34  37
ENDBRANCH  30  31
ENDBRANCH   5  30
TORSDOF 6
