REMARK  Name = ZINC66739213
REMARK  7 active torsions:
REMARK  status: ('A' for Active; 'I' for Inactive)
REMARK    1  A    between atoms: C_1  and  C_2
REMARK    2  A    between atoms: C_2  and  C_3
REMARK    3  A    between atoms: C_2  and  C_4
REMARK    4  A    between atoms: C_2  and  O_5
REMARK    5  A    between atoms: O_5  and  C_6
REMARK    6  A    between atoms: N_23  and  C_24
REMARK    7  A    between atoms: C_24  and  C_25
REMARK                            x       y       z     vdW  Elec       q    Type
REMARK                         _______ _______ _______ _____ _____    ______ ____
ROOT
ATOM      1  C   UNL     1       1.952  -0.085  -1.337  0.00  0.00    +0.403 C 
ATOM      2  O   UNL     1       2.488   0.619  -0.503  0.00  0.00    -0.226 OA
ATOM      3  N   UNL     1       2.641  -0.485  -2.424  0.00  0.00    -0.264 N 
ATOM      4  C   UNL     1       2.005  -1.331  -3.443  0.00  0.00    +0.111 C 
ATOM      5  C   UNL     1       2.874  -2.573  -3.666  0.00  0.00    +0.023 C 
ATOM      6  C   UNL     1       4.301  -2.138  -4.009  0.00  0.00    +0.049 C 
ATOM      7  C   UNL     1       4.887  -1.340  -2.842  0.00  0.00    +0.119 C 
ATOM      8  C   UNL     1       4.040  -0.078  -2.616  0.00  0.00    +0.156 C 
ATOM      9  N   UNL     1       4.859  -2.166  -1.629  0.00  0.00    -0.321 N 
ATOM     10  C   UNL     1       5.630  -1.776  -0.539  0.00  0.00    +0.041 A 
ATOM     11  C   UNL     1       5.261  -2.078   0.761  0.00  0.00    +0.024 A 
ATOM     12  C   UNL     1       6.066  -1.677   1.810  0.00  0.00    +0.002 A 
ATOM     13  C   UNL     1       7.238  -0.976   1.571  0.00  0.00    +0.001 A 
ATOM     14  C   UNL     1       7.618  -0.665   0.282  0.00  0.00    +0.015 A 
ATOM     15  C   UNL     1       6.814  -1.059  -0.785  0.00  0.00    +0.058 A 
ATOM     16  C   UNL     1       7.163  -0.729  -2.178  0.00  0.00    +0.251 C 
ATOM     17  O   UNL     1       8.254  -0.262  -2.443  0.00  0.00    -0.270 OA
ATOM     18  N   UNL     1       6.262  -0.951  -3.156  0.00  0.00    -0.264 N 
ATOM     19  H   UNL     1       4.313  -2.967  -1.587  0.00  0.00    +0.148 HD
ENDROOT
BRANCH   1  20
ATOM     20  O   UNL     1       0.671  -0.465  -1.174  0.00  0.00    -0.445 OA
BRANCH  20  22
ATOM     21  C   UNL     1      -0.019   1.526   0.010  0.00  0.00    +0.055 C 
ATOM     22  C   UNL     1       0.002  -0.004   0.002  0.00  0.00    +0.107 C 
ATOM     23  C   UNL     1       0.742  -0.511   1.242  0.00  0.00    +0.055 C 
ATOM     24  C   UNL     1      -1.433  -0.534   0.013  0.00  0.00    +0.055 C 
ENDBRANCH  20  22
ENDBRANCH   1  20
BRANCH  18  25
ATOM     25  C   UNL     1       6.666  -0.798  -4.556  0.00  0.00    +0.199 C 
BRANCH  25  26
ATOM     26  C   UNL     1       6.431   0.589  -4.987  0.00  0.00    -0.086 C 
ATOM     27  C   UNL     1       6.244   1.696  -5.330  0.00  0.00    +0.005 C 
ENDBRANCH  25  26
ENDBRANCH  18  25
TORSDOF 4
