REMARK  Name = ZINC60065667
REMARK  8 active torsions:
REMARK  status: ('A' for Active; 'I' for Inactive)
REMARK    1  A    between atoms: C_1  and  C_2
REMARK    2  A    between atoms: C_2  and  C_4
REMARK    3  A    between atoms: C_2  and  O_16
REMARK    4  A    between atoms: N_6  and  C_7
REMARK    5  A    between atoms: C_9  and  C_13
REMARK    6  A    between atoms: C_13  and  C_14
REMARK    7  A    between atoms: C_13  and  C_15
REMARK    8  A    between atoms: O_16  and  C_17
REMARK                            x       y       z     vdW  Elec       q    Type
REMARK                         _______ _______ _______ _____ _____    ______ ____
ROOT
ATOM      1  C   UNL     1       0.768  -0.712  -1.225  0.00  0.00    +0.259 C 
ATOM      2  O   UNL     1       1.893  -1.136  -1.061  0.00  0.00    -0.271 OA
ATOM      3  N   UNL     1       0.237  -0.673  -2.463  0.00  0.00    -0.268 N 
ATOM      4  H   UNL     1      -0.662  -0.334  -2.594  0.00  0.00    +0.156 HD
ENDROOT
BRANCH   3   5
ATOM      5  C   UNL     1       0.980  -1.121  -3.555  0.00  0.00    +0.121 A 
ATOM      6  C   UNL     1       2.244  -1.624  -3.517  0.00  0.00    +0.068 A 
ATOM      7  C   UNL     1       2.614  -1.952  -4.824  0.00  0.00    +0.067 A 
ATOM      8  N   UNL     1       1.617  -1.660  -5.619  0.00  0.00    -0.177 NA
ATOM      9  N   UNL     1       0.573  -1.139  -4.845  0.00  0.00    -0.264 N 
ATOM     10  H   UNL     1      -0.290  -0.842  -5.176  0.00  0.00    +0.190 HD
BRANCH   7  11
ATOM     11  C   UNL     1       3.936  -2.540  -5.245  0.00  0.00    +0.033 C 
ATOM     12  C   UNL     1       4.953  -1.416  -5.449  0.00  0.00    +0.014 C 
ATOM     13  C   UNL     1       4.440  -3.493  -4.158  0.00  0.00    +0.014 C 
ENDBRANCH   7  11
ENDBRANCH   3   5
BRANCH   1  15
ATOM     14  C   UNL     1      -0.292   1.273  -0.184  0.00  0.00    +0.062 C 
ATOM     15  C   UNL     1      -0.034  -0.229  -0.045  0.00  0.00    +0.256 C 
BRANCH  15  16
ATOM     16  O   UNL     1       0.693  -0.477   1.160  0.00  0.00    -0.480 OA
BRANCH  16  17
ATOM     17  C   UNL     1      -0.031  -0.600   2.303  0.00  0.00    +0.123 A 
ATOM     18  C   UNL     1      -1.400  -0.376   2.286  0.00  0.00    +0.046 A 
ATOM     19  C   UNL     1      -2.134  -0.502   3.450  0.00  0.00    +0.005 A 
ATOM     20  C   UNL     1      -1.506  -0.849   4.631  0.00  0.00    +0.020 A 
ATOM     21  C   UNL     1      -0.141  -1.072   4.652  0.00  0.00    +0.044 A 
ATOM     22  C   UNL     1       0.597  -0.954   3.488  0.00  0.00    +0.065 A 
ATOM     23 CL   UNL     1       0.645  -1.508   6.137  0.00  0.00    -0.083 Cl
ENDBRANCH  16  17
ENDBRANCH  15  16
ENDBRANCH   1  15
TORSDOF 5
