REMARK  Name = ZINC38751971
REMARK  7 active torsions:
REMARK  status: ('A' for Active; 'I' for Inactive)
REMARK    1  A    between atoms: C_1  and  C_2
REMARK    2  A    between atoms: C_6  and  N_8
REMARK    3  A    between atoms: C_10  and  C_15
REMARK    4  A    between atoms: N_17  and  C_18
REMARK    5  A    between atoms: C_18  and  C_19
REMARK    6  A    between atoms: C_21  and  C_24
REMARK    7  A    between atoms: C_31  and  C_34
REMARK                            x       y       z     vdW  Elec       q    Type
REMARK                         _______ _______ _______ _____ _____    ______ ____
ROOT
ATOM      1  C   UNL     1      -0.321  -5.756   4.495  0.00  0.00    +0.218 C 
ATOM      2  O   UNL     1      -1.194  -6.284   3.838  0.00  0.00    -0.275 OA
ATOM      3  N   UNL     1      -0.047  -6.205   5.736  0.00  0.00    -0.309 N 
ATOM      4  H   UNL     1       0.651  -5.782   6.261  0.00  0.00    +0.149 HD
ENDROOT
BRANCH   1   7
ATOM      5  N   UNL     1       0.052  -2.797   2.393  0.00  0.00    -0.271 N 
ATOM      6  C   UNL     1      -0.027  -4.259   2.496  0.00  0.00    +0.127 C 
ATOM      7  C   UNL     1       0.456  -4.599   3.923  0.00  0.00    +0.101 C 
ATOM      8  C   UNL     1       0.140  -3.289   4.683  0.00  0.00    +0.110 C 
ATOM      9  C   UNL     1       0.147  -2.227   3.606  0.00  0.00    +0.221 C 
ATOM     10  O   UNL     1       0.225  -1.033   3.808  0.00  0.00    -0.275 OA
BRANCH   5  16
ATOM     11  C   UNL     1       0.060  -2.812  -2.524  0.00  0.00    +0.044 C 
ATOM     12  C   UNL     1       0.041  -2.071  -1.212  0.00  0.00    -0.049 A 
ATOM     13  C   UNL     1       0.008  -0.688  -1.200  0.00  0.00    +0.003 A 
ATOM     14  C   UNL     1      -0.011  -0.004   0.002  0.00  0.00    +0.002 A 
ATOM     15  C   UNL     1       0.004  -0.701   1.194  0.00  0.00    +0.023 A 
ATOM     16  C   UNL     1       0.037  -2.089   1.186  0.00  0.00    +0.037 A 
ATOM     17  C   UNL     1       0.050  -2.773  -0.023  0.00  0.00    +0.027 A 
ENDBRANCH   5  16
ENDBRANCH   1   7
BRANCH   3  18
ATOM     18  C   UNL     1      -0.803  -7.330   6.292  0.00  0.00    +0.163 C 
BRANCH  18  19
ATOM     19  C   UNL     1      -0.304  -7.632   7.682  0.00  0.00    +0.101 A 
ATOM     20  C   UNL     1      -0.861  -7.152   8.876  0.00  0.00    +0.077 A 
ATOM     21  C   UNL     1      -0.129  -7.649   9.910  0.00  0.00    +0.168 A 
ATOM     22  O   UNL     1       0.851  -8.411   9.389  0.00  0.00    -0.354 OA
ATOM     23  N   UNL     1       0.715  -8.388   7.980  0.00  0.00    -0.081 NA
BRANCH  21  24
ATOM     24  C   UNL     1      -0.366  -7.396  11.347  0.00  0.00    +0.020 A 
ATOM     25  C   UNL     1      -1.428  -6.585  11.753  0.00  0.00    +0.015 A 
ATOM     26  C   UNL     1      -1.651  -6.355  13.091  0.00  0.00    +0.046 A 
ATOM     27  C   UNL     1      -0.820  -6.926  14.054  0.00  0.00    +0.124 A 
ATOM     28  C   UNL     1       0.241  -7.727  13.643  0.00  0.00    -0.002 A 
ATOM     29  C   UNL     1       0.466  -7.972  12.310  0.00  0.00    +0.019 A 
ATOM     30  C   UNL     1       0.968  -8.178  14.896  0.00  0.00    +0.083 C 
ATOM     31  C   UNL     1       0.405  -7.205  15.959  0.00  0.00    +0.175 C 
ATOM     32  O   UNL     1      -0.872  -6.837  15.411  0.00  0.00    -0.488 OA
ATOM     33  C   UNL     1       1.310  -5.980  16.105  0.00  0.00    +0.052 C 
ENDBRANCH  21  24
ENDBRANCH  18  19
ENDBRANCH   3  18
TORSDOF 5
