REMARK  Name = ZINC45745778
REMARK  5 active torsions:
REMARK  status: ('A' for Active; 'I' for Inactive)
REMARK    1  A    between atoms: C_9  and  C_11
REMARK    2  A    between atoms: C_11  and  S_12
REMARK    3  A    between atoms: S_12  and  C_13
REMARK    4  A    between atoms: C_16  and  C_19
REMARK    5  A    between atoms: N_17  and  N_18
REMARK                            x       y       z     vdW  Elec       q    Type
REMARK                         _______ _______ _______ _____ _____    ______ ____
ROOT
ATOM      1  C   UNL     1       5.022  -5.295  -1.617  0.00  0.00    +0.209 A 
ATOM      2  N   UNL     1       5.395  -5.870  -0.496  0.00  0.00    -0.121 NA
ATOM      3  N   UNL     1       6.079  -6.928  -0.748  0.00  0.00    -0.126 NA
ATOM      4  C   UNL     1       6.187  -7.095  -2.048  0.00  0.00    +0.188 A 
ATOM      5  N   UNL     1       5.507  -6.056  -2.644  0.00  0.00    -0.223 N 
ENDROOT
BRANCH   4   6
ATOM      6  C   UNL     1       6.894  -8.188  -2.735  0.00  0.00    +0.058 A 
ATOM      7  C   UNL     1       7.333  -9.385  -2.230  0.00  0.00    +0.019 A 
ATOM      8  C   UNL     1       7.977 -10.261  -3.074  0.00  0.00    +0.008 A 
ATOM      9  C   UNL     1       8.158  -9.916  -4.375  0.00  0.00    +0.046 A 
ATOM     10  S   UNL     1       7.395  -8.303  -4.444  0.00  0.00    -0.093 S 
ENDBRANCH   4   6
BRANCH   5  11
ATOM     11  N   UNL     1       5.352  -5.831  -3.983  0.00  0.00    -0.295 N 
ATOM     12  H   UNL     1       6.102  -5.260  -4.343  0.00  0.00    +0.163 HD
ATOM     13  H   UNL     1       5.284  -6.701  -4.490  0.00  0.00    +0.163 HD
ENDBRANCH   5  11
BRANCH   1  14
ATOM     14  S   UNL     1       4.069  -3.821  -1.768  0.00  0.00    -0.077 S 
BRANCH  14  15
ATOM     15  C   UNL     1       3.757  -3.322  -0.052  0.00  0.00    +0.151 C 
BRANCH  15  24
ATOM     16  C   UNL     1      -0.017   1.374   0.010  0.00  0.00    +0.002 A 
ATOM     17  C   UNL     1       1.170   2.094   0.002  0.00  0.00    +0.002 A 
ATOM     18  C   UNL     1       2.375   1.450  -0.013  0.00  0.00    +0.030 A 
ATOM     19  C   UNL     1       2.418   0.054  -0.021  0.00  0.00    +0.089 A 
ATOM     20  C   UNL     1       1.217  -0.675  -0.013  0.00  0.00    +0.066 A 
ATOM     21  C   UNL     1       0.002  -0.004   0.002  0.00  0.00    +0.028 A 
ATOM     22  N   UNL     1       1.580  -2.007  -0.024  0.00  0.00    -0.341 N 
ATOM     23  H   UNL     1       0.977  -2.767  -0.022  0.00  0.00    +0.167 HD
ATOM     24  C   UNL     1       2.939  -2.056  -0.038  0.00  0.00    +0.118 A 
ATOM     25  N   UNL     1       3.430  -0.852  -0.036  0.00  0.00    -0.232 NA
ENDBRANCH  15  24
ENDBRANCH  14  15
ENDBRANCH   1  14
TORSDOF 5
