REMARK  Name = ZINC04580989
REMARK  7 active torsions:
REMARK  status: ('A' for Active; 'I' for Inactive)
REMARK    1  A    between atoms: C_1  and  C_2
REMARK    2  A    between atoms: C_2  and  O_3
REMARK    3  A    between atoms: O_3  and  C_4
REMARK    4  A    between atoms: C_4  and  C_6
REMARK    5  A    between atoms: C_9  and  C_24
REMARK    6  A    between atoms: C_12  and  C_23
REMARK    7  A    between atoms: C_20  and  C_22
REMARK                            x       y       z     vdW  Elec       q    Type
REMARK                         _______ _______ _______ _____ _____    ______ ____
ROOT
ATOM      1  C   UNL     1       1.423  -2.324  -2.470  0.00  0.00    +0.115 C 
ATOM      2  C   UNL     1       1.619  -3.671  -2.584  0.00  0.00    +0.042 C 
ATOM      3  C   UNL     1       2.348  -4.285  -3.711  0.00  0.00    +0.003 A 
ATOM      4  C   UNL     1       3.520  -3.746  -4.226  0.00  0.00    -0.041 A 
ATOM      5  C   UNL     1       4.091  -4.298  -5.360  0.00  0.00    +0.004 A 
ATOM      6  C   UNL     1       3.490  -5.375  -5.966  0.00  0.00    +0.004 A 
ATOM      7  C   UNL     1       2.340  -5.947  -5.419  0.00  0.00    -0.046 A 
ATOM      8  C   UNL     1       1.840  -5.509  -4.228  0.00  0.00    -0.030 A 
ATOM      9  C   UNL     1       0.875  -6.258  -3.345  0.00  0.00    +0.043 C 
ATOM     10  C   UNL     1       0.855  -7.758  -3.582  0.00  0.00    +0.010 C 
ATOM     11  C   UNL     1      -0.093  -8.485  -2.620  0.00  0.00    +0.001 C 
ATOM     12  C   UNL     1       0.272  -8.192  -1.168  0.00  0.00    +0.002 C 
ATOM     13  C   UNL     1       0.204  -6.681  -0.948  0.00  0.00    +0.026 C 
ATOM     14  C   UNL     1       1.190  -5.969  -1.873  0.00  0.00    +0.036 C 
ATOM     15  N   UNL     1       1.087  -4.523  -1.627  0.00  0.00    -0.337 N 
ATOM     16  C   UNL     1       2.612  -6.423  -1.540  0.00  0.00    +0.032 C 
ATOM     17  C   UNL     1       1.659  -6.955  -6.315  0.00  0.00    +0.044 C 
ATOM     18  C   UNL     1       4.238  -2.588  -3.580  0.00  0.00    +0.044 C 
ATOM     19  H   UNL     1       0.658  -4.184  -0.822  0.00  0.00    +0.147 HD
ENDROOT
BRANCH   1  20
ATOM     20  C   UNL     1       0.785  -1.800  -1.330  0.00  0.00    +0.334 C 
ATOM     21  O   UNL     1       0.313  -2.553  -0.497  0.00  0.00    -0.246 OA
BRANCH  20  22
ATOM     22  O   UNL     1       0.698  -0.464  -1.160  0.00  0.00    -0.462 OA
BRANCH  22  24
ATOM     23  C   UNL     1       0.036   1.528   0.038  0.00  0.00    +0.048 C 
ATOM     24  C   UNL     1       0.037  -0.002   0.020  0.00  0.00    +0.229 C 
ENDBRANCH  22  24
ENDBRANCH  20  22
ENDBRANCH   1  20
TORSDOF 3
