REMARK  Name = ZINC67237018
REMARK  9 active torsions:
REMARK  status: ('A' for Active; 'I' for Inactive)
REMARK    1  A    between atoms: C_1  and  C_2
REMARK    2  A    between atoms: C_2  and  C_3
REMARK    3  A    between atoms: C_8  and  N_9
REMARK    4  A    between atoms: C_10  and  C_12
REMARK    5  A    between atoms: C_12  and  S_13
REMARK    6  A    between atoms: S_13  and  C_14
REMARK    7  A    between atoms: C_18  and  C_32
REMARK    8  A    between atoms: N_24  and  C_25
REMARK    9  A    between atoms: C_28  and  C_31
REMARK                            x       y       z     vdW  Elec       q    Type
REMARK                         _______ _______ _______ _____ _____    ______ ____
ROOT
ATOM      1  C   UNL     1      -1.614  -0.328  -7.677  0.00  0.00    +0.177 A 
ATOM      2  N   UNL     1      -0.387   0.117  -7.539  0.00  0.00    -0.221 NA
ATOM      3  C   UNL     1       0.364   0.423  -8.615  0.00  0.00    +0.097 A 
ATOM      4  C   UNL     1       1.680   0.909  -8.783  0.00  0.00    +0.051 A 
ATOM      5  C   UNL     1       1.910   1.032 -10.106  0.00  0.00    +0.016 A 
ATOM      6  N   UNL     1       0.803   0.647 -10.798  0.00  0.00    -0.353 N 
ATOM      7  H   UNL     1       0.714   0.643 -11.764  0.00  0.00    +0.166 HD
ATOM      8  C   UNL     1      -0.170   0.265  -9.899  0.00  0.00    +0.131 A 
ATOM      9  C   UNL     1      -1.487  -0.214 -10.030  0.00  0.00    +0.283 A 
ATOM     10  O   UNL     1      -1.989  -0.366 -11.131  0.00  0.00    -0.265 OA
ATOM     11  N   UNL     1      -2.182  -0.505  -8.908  0.00  0.00    -0.254 N 
ATOM     12  C   UNL     1       3.196   1.521 -10.722  0.00  0.00    +0.063 C 
ENDROOT
BRANCH  11  13
ATOM     13  C   UNL     1      -3.493  -0.988  -9.007  0.00  0.00    +0.052 A 
ATOM     14  C   UNL     1      -3.734  -2.236  -9.567  0.00  0.00    +0.026 A 
ATOM     15  C   UNL     1      -5.028  -2.709  -9.663  0.00  0.00    +0.005 A 
ATOM     16  C   UNL     1      -6.083  -1.942  -9.202  0.00  0.00    -0.050 A 
ATOM     17  C   UNL     1      -5.845  -0.699  -8.645  0.00  0.00    +0.005 A 
ATOM     18  C   UNL     1      -4.553  -0.223  -8.541  0.00  0.00    +0.026 A 
ATOM     19  C   UNL     1      -7.493  -2.462  -9.308  0.00  0.00    +0.044 C 
ENDBRANCH  11  13
BRANCH   1  20
ATOM     20  S   UNL     1      -2.553  -0.714  -6.237  0.00  0.00    -0.078 S 
BRANCH  20  21
ATOM     21  C   UNL     1      -1.428  -0.334  -4.865  0.00  0.00    +0.173 C 
BRANCH  21  23
ATOM     22  N   UNL     1      -1.468  -0.415  -2.393  0.00  0.00    -0.285 N 
ATOM     23  C   UNL     1      -2.116  -0.624  -3.556  0.00  0.00    +0.227 C 
ATOM     24  O   UNL     1      -3.254  -1.045  -3.549  0.00  0.00    -0.275 OA
ATOM     25  H   UNL     1      -0.581  -0.022  -2.396  0.00  0.00    +0.155 HD
BRANCH  22  31
ATOM     26  C   UNL     1      -1.304  -1.244  -0.131  0.00  0.00    -0.026 A 
ATOM     27  C   UNL     1      -1.905  -1.583   1.066  0.00  0.00    +0.005 A 
ATOM     28  C   UNL     1      -3.273  -1.451   1.216  0.00  0.00    +0.000 A 
ATOM     29  C   UNL     1      -4.044  -0.979   0.169  0.00  0.00    +0.002 A 
ATOM     30  C   UNL     1      -3.449  -0.638  -1.029  0.00  0.00    +0.023 A 
ATOM     31  C   UNL     1      -2.075  -0.765  -1.182  0.00  0.00    +0.037 A 
BRANCH  26  33
ATOM     32  C   UNL     1       0.865  -0.051   0.013  0.00  0.00    +0.009 C 
ATOM     33  C   UNL     1       0.187  -1.388  -0.293  0.00  0.00    +0.033 C 
ENDBRANCH  26  33
ENDBRANCH  22  31
ENDBRANCH  21  23
ENDBRANCH  20  21
ENDBRANCH   1  20
TORSDOF 6
