REMARK  Name = ZINC06142126
REMARK  5 active torsions:
REMARK  status: ('A' for Active; 'I' for Inactive)
REMARK    1  A    between atoms: C_12  and  S_14
REMARK    2  A    between atoms: S_14  and  C_15
REMARK    3  A    between atoms: C_15  and  C_16
REMARK    4  A    between atoms: N_18  and  C_19
REMARK    5  A    between atoms: C_20  and  C_28
REMARK                            x       y       z     vdW  Elec       q    Type
REMARK                         _______ _______ _______ _____ _____    ______ ____
ROOT
ATOM      1  C   UNL     1      -0.742   1.585  -1.213  0.00  0.00    +0.228 C 
ATOM      2  O   UNL     1      -1.736   2.268  -1.088  0.00  0.00    -0.275 OA
ATOM      3  N   UNL     1      -0.288   1.272  -2.443  0.00  0.00    -0.279 N 
ATOM      4  H   UNL     1       0.507   0.726  -2.543  0.00  0.00    +0.155 HD
ENDROOT
BRANCH   3   5
ATOM      5  C   UNL     1      -0.959   1.732  -3.566  0.00  0.00    +0.084 A 
ATOM      6  C   UNL     1      -0.647   1.523  -4.902  0.00  0.00    +0.068 A 
ATOM      7  C   UNL     1      -1.523   2.118  -5.897  0.00  0.00    -0.023 A 
ATOM      8  C   UNL     1      -2.558   2.829  -5.401  0.00  0.00    -0.004 A 
ATOM      9  S   UNL     1      -2.386   2.712  -3.643  0.00  0.00    -0.077 S 
ATOM     10  C   UNL     1      -3.612   3.554  -6.180  0.00  0.00    +0.043 C 
ATOM     11  C   UNL     1      -3.135   3.685  -7.634  0.00  0.00    +0.005 C 
ATOM     12  C   UNL     1      -2.628   2.321  -8.111  0.00  0.00    +0.005 C 
ATOM     13  C   UNL     1      -1.318   1.975  -7.401  0.00  0.00    +0.037 C 
BRANCH   6  14
ATOM     14  C   UNL     1       0.521   0.728  -5.295  0.00  0.00    +0.244 C 
ATOM     15  O   UNL     1       0.412  -0.473  -5.461  0.00  0.00    -0.270 OA
ATOM     16  N   UNL     1       1.715   1.327  -5.473  0.00  0.00    -0.325 N 
ATOM     17  H   UNL     1       1.802   2.284  -5.340  0.00  0.00    +0.145 HD
ATOM     18  H   UNL     1       2.487   0.801  -5.732  0.00  0.00    +0.145 HD
ENDBRANCH   6  14
ENDBRANCH   3   5
BRANCH   1  19
ATOM     19  C   UNL     1      -0.013   1.086   0.008  0.00  0.00    +0.172 C 
BRANCH  19  20
ATOM     20  S   UNL     1      -0.860   1.669   1.497  0.00  0.00    -0.096 S 
BRANCH  20  32
ATOM     21  C   UNL     1       2.026  -0.311   3.293  0.00  0.00    +0.223 A 
ATOM     22  N   UNL     1       1.811  -0.162   4.587  0.00  0.00    -0.228 NA
ATOM     23  C   UNL     1       0.783   0.545   5.013  0.00  0.00    +0.113 A 
ATOM     24  C   UNL     1      -0.113   1.159   4.115  0.00  0.00    +0.043 A 
ATOM     25  C   UNL     1      -1.209   1.914   4.724  0.00  0.00    -0.025 A 
ATOM     26  C   UNL     1      -1.254   1.947   6.071  0.00  0.00    -0.004 A 
ATOM     27  S   UNL     1       0.139   0.989   6.605  0.00  0.00    -0.073 S 
ATOM     28  C   UNL     1      -2.266   2.644   6.929  0.00  0.00    +0.043 C 
ATOM     29  C   UNL     1      -3.044   3.635   6.051  0.00  0.00    +0.005 C 
ATOM     30  C   UNL     1      -3.482   2.918   4.771  0.00  0.00    +0.005 C 
ATOM     31  C   UNL     1      -2.263   2.638   3.891  0.00  0.00    +0.037 C 
ATOM     32  C   UNL     1       0.174   0.961   2.735  0.00  0.00    +0.109 A 
ATOM     33  N   UNL     1       1.226   0.231   2.394  0.00  0.00    -0.229 NA
ENDBRANCH  20  32
ENDBRANCH  19  20
ENDBRANCH   1  19
TORSDOF 5
