REMARK  Name = ZINC47963686
REMARK  7 active torsions:
REMARK  status: ('A' for Active; 'I' for Inactive)
REMARK    1  A    between atoms: C_3  and  C_6
REMARK    2  A    between atoms: C_6  and  C_8
REMARK    3  A    between atoms: C_6  and  N_23
REMARK    4  A    between atoms: C_8  and  N_9
REMARK    5  A    between atoms: C_10  and  C_12
REMARK    6  A    between atoms: N_14  and  C_15
REMARK    7  A    between atoms: C_16  and  C_20
REMARK                            x       y       z     vdW  Elec       q    Type
REMARK                         _______ _______ _______ _____ _____    ______ ____
ROOT
ATOM      1  N   UNL     1       5.570   0.024  -1.358  0.00  0.00    -0.309 N 
ATOM      2  C   UNL     1       6.234  -0.409  -2.448  0.00  0.00    +0.299 C 
ATOM      3  O   UNL     1       5.634  -0.605  -3.485  0.00  0.00    -0.265 OA
ATOM      4  H   UNL     1       6.049   0.180  -0.529  0.00  0.00    +0.149 HD
ENDROOT
BRANCH   2   5
ATOM      5  C   UNL     1       7.706  -0.649  -2.380  0.00  0.00    +0.304 C 
ATOM      6  O   UNL     1       8.305  -0.454  -1.342  0.00  0.00    -0.265 OA
ATOM      7  N   UNL     1       8.369  -1.083  -3.470  0.00  0.00    -0.272 N 
ATOM      8  H   UNL     1       7.890  -1.239  -4.299  0.00  0.00    +0.156 HD
BRANCH   7   9
ATOM      9  C   UNL     1       9.734  -1.305  -3.407  0.00  0.00    +0.084 A 
ATOM     10  C   UNL     1      10.575  -1.742  -4.421  0.00  0.00    +0.065 A 
ATOM     11  C   UNL     1      11.971  -1.891  -4.082  0.00  0.00    +0.022 A 
ATOM     12  C   UNL     1      12.303  -1.588  -2.813  0.00  0.00    +0.048 A 
ATOM     13  S   UNL     1      10.752  -1.101  -2.089  0.00  0.00    -0.081 S 
BRANCH  10  14
ATOM     14  C   UNL     1      10.072  -2.037  -5.766  0.00  0.00    +0.244 C 
ATOM     15  O   UNL     1       8.889  -1.901  -6.017  0.00  0.00    -0.270 OA
ATOM     16  N   UNL     1      10.920  -2.459  -6.725  0.00  0.00    -0.325 N 
ATOM     17  H   UNL     1      11.863  -2.568  -6.525  0.00  0.00    +0.145 HD
ATOM     18  H   UNL     1      10.587  -2.655  -7.615  0.00  0.00    +0.145 HD
ENDBRANCH  10  14
ENDBRANCH   7   9
ENDBRANCH   2   5
BRANCH   1  19
ATOM     19  C   UNL     1       4.126   0.260  -1.425  0.00  0.00    +0.097 C 
BRANCH  19  20
ATOM     20  C   UNL     1       3.602   0.617  -0.032  0.00  0.00    +0.016 C 
BRANCH  20  21
ATOM     21  N   UNL     1       3.975  -0.441   0.917  0.00  0.00    +0.387 N 
ATOM     22  C   UNL     1       3.460  -1.729   0.439  0.00  0.00    -0.078 C 
ATOM     23  C   UNL     1       3.914  -2.846   1.381  0.00  0.00    -0.019 C 
ATOM     24  C   UNL     1       3.374  -2.570   2.788  0.00  0.00    -0.004 C 
ATOM     25  C   UNL     1       3.857  -1.191   3.247  0.00  0.00    -0.019 C 
ATOM     26  C   UNL     1       3.405  -0.136   2.235  0.00  0.00    -0.078 C 
ATOM     27  H   UNL     1       4.980  -0.488   0.989  0.00  0.00    -0.081 HD
ENDBRANCH  20  21
BRANCH  20  30
ATOM     28  C   UNL     1       0.038   1.554  -0.081  0.00  0.00    +0.041 A 
ATOM     29  C   UNL     1       1.408   1.895   0.005  0.00  0.00    +0.043 A 
ATOM     30  C   UNL     1       2.102   0.746  -0.077  0.00  0.00    +0.093 A 
ATOM     31  O   UNL     1       1.230  -0.268  -0.207  0.00  0.00    -0.469 OA
ATOM     32  C   UNL     1      -0.023   0.217  -0.210  0.00  0.00    +0.195 A 
ENDBRANCH  20  30
ENDBRANCH  19  20
ENDBRANCH   1  19
TORSDOF 7
