REMARK  Name = ZINC64409663
REMARK  3 active torsions:
REMARK  status: ('A' for Active; 'I' for Inactive)
REMARK    1  A    between atoms: C_1  and  C_2
REMARK    2  A    between atoms: C_5  and  C_8
REMARK    3  A    between atoms: C_15  and  C_17
REMARK                            x       y       z     vdW  Elec       q    Type
REMARK                         _______ _______ _______ _____ _____    ______ ____
ROOT
ATOM      1  C   UNL     1      -1.207  -3.530   0.755  0.00  0.00    +0.039 C 
ATOM      2  C   UNL     1      -1.268  -4.712  -0.215  0.00  0.00    +0.009 C 
ATOM      3  C   UNL     1      -2.534  -5.529   0.052  0.00  0.00    +0.019 C 
ATOM      4  C   UNL     1      -2.490  -6.079   1.481  0.00  0.00    +0.108 C 
ATOM      5  N   UNL     1      -2.286  -4.960   2.412  0.00  0.00    -0.299 N 
ATOM      6  C   UNL     1      -1.149  -4.056   2.192  0.00  0.00    +0.114 C 
ATOM      7  C   UNL     1      -3.127  -4.766   3.447  0.00  0.00    +0.242 C 
ATOM      8  O   UNL     1      -2.948  -3.839   4.208  0.00  0.00    -0.273 OA
ENDROOT
BRANCH   7   9
ATOM      9  C   UNL     1      -4.290  -5.701   3.659  0.00  0.00    +0.190 C 
ATOM     10  C   UNL     1      -5.233  -5.636   2.479  0.00  0.00    +0.016 C 
ATOM     11  C   UNL     1      -6.420  -5.213   2.971  0.00  0.00    -0.004 A 
ATOM     12  C   UNL     1      -7.720  -4.950   2.342  0.00  0.00    +0.010 A 
ATOM     13  C   UNL     1      -8.747  -4.525   3.112  0.00  0.00    +0.001 A 
ATOM     14  C   UNL     1      -8.602  -4.329   4.493  0.00  0.00    +0.002 A 
ATOM     15  C   UNL     1      -7.439  -4.549   5.142  0.00  0.00    +0.026 A 
ATOM     16  C   UNL     1      -6.292  -4.998   4.430  0.00  0.00    +0.043 A 
ATOM     17  N   UNL     1      -5.073  -5.278   4.826  0.00  0.00    -0.370 N 
ATOM     18  H   UNL     1      -4.743  -5.216   5.736  0.00  0.00    +0.161 HD
ENDBRANCH   7   9
BRANCH   1  23
ATOM     19  C   UNL     1      -0.018   1.503   0.010  0.00  0.00    +0.075 C 
ATOM     20  C   UNL     1       0.002  -0.004   0.002  0.00  0.00    +0.090 C 
ATOM     21  N   UNL     1       0.009  -0.793  -1.019  0.00  0.00    -0.184 NA
ATOM     22  N   UNL     1       0.029  -2.167  -0.918  0.00  0.00    -0.255 N 
ATOM     23  C   UNL     1       0.042  -2.695   0.465  0.00  0.00    +0.157 C 
ATOM     24  S   UNL     1       0.030  -1.111   1.403  0.00  0.00    -0.085 S 
ATOM     25  H   UNL     1       0.033  -2.745  -1.696  0.00  0.00    +0.169 HD
ENDBRANCH   1  23
TORSDOF 2
