REMARK  Name = ZINC65265924
REMARK  4 active torsions:
REMARK  status: ('A' for Active; 'I' for Inactive)
REMARK    1  A    between atoms: C_1  and  C_2
REMARK    2  A    between atoms: C_2  and  N_3
REMARK    3  A    between atoms: C_6  and  C_8
REMARK    4  A    between atoms: N_25  and  C_26
REMARK                            x       y       z     vdW  Elec       q    Type
REMARK                         _______ _______ _______ _____ _____    ______ ____
ROOT
ATOM      1  C   UNL     1      -4.695  -0.781   1.406  0.00  0.00    +0.267 C 
ATOM      2  O   UNL     1      -5.681  -1.404   1.061  0.00  0.00    -0.268 OA
ATOM      3  N   UNL     1      -4.749   0.018   2.491  0.00  0.00    -0.294 N 
ATOM      4  C   UNL     1      -3.636   0.833   3.015  0.00  0.00    +0.110 C 
ATOM      5  C   UNL     1      -4.317   1.974   3.815  0.00  0.00    +0.050 C 
ATOM      6  C   UNL     1      -5.529   1.242   4.421  0.00  0.00    +0.091 C 
ATOM      7  C   UNL     1      -5.930   0.228   3.345  0.00  0.00    +0.138 C 
ATOM      8  C   UNL     1      -6.640   2.183   4.744  0.00  0.00    +0.095 C 
ATOM      9  N   UNL     1      -6.641   2.724   6.006  0.00  0.00    -0.303 N 
ATOM     10  C   UNL     1      -7.301   2.048   7.028  0.00  0.00    +0.037 A 
ATOM     11  C   UNL     1      -8.127   2.743   7.901  0.00  0.00    +0.023 A 
ATOM     12  C   UNL     1      -8.772   2.077   8.924  0.00  0.00    +0.002 A 
ATOM     13  C   UNL     1      -8.587   0.714   9.071  0.00  0.00    +0.000 A 
ATOM     14  C   UNL     1      -7.771   0.024   8.201  0.00  0.00    +0.007 A 
ATOM     15  C   UNL     1      -7.119   0.677   7.159  0.00  0.00    -0.012 A 
ATOM     16  C   UNL     1      -6.280  -0.175   6.241  0.00  0.00    +0.119 C 
ATOM     17  N   UNL     1      -5.140   0.555   5.673  0.00  0.00    -0.299 NA
ATOM     18  N   UNL     1      -7.556   2.474   3.879  0.00  0.00    -0.372 N 
ATOM     19  H   UNL     1      -4.356  -0.061   5.519  0.00  0.00    +0.123 HD
ATOM     20  H   UNL     1      -7.486   2.146   2.969  0.00  0.00    +0.161 HD
ATOM     21  H   UNL     1      -6.189   3.564   6.183  0.00  0.00    +0.153 HD
ENDROOT
BRANCH   1  25
ATOM     22  N   UNL     1      -1.417  -0.616   0.024  0.00  0.00    -0.271 N 
ATOM     23  C   UNL     1      -1.940  -1.483  -0.869  0.00  0.00    +0.109 A 
ATOM     24  C   UNL     1      -3.230  -1.692  -0.516  0.00  0.00    +0.054 A 
ATOM     25  C   UNL     1      -3.440  -0.898   0.637  0.00  0.00    +0.147 A 
ATOM     26  N   UNL     1      -2.300  -0.289   0.897  0.00  0.00    -0.167 NA
BRANCH  22  28
ATOM     27  C   UNL     1      -0.042   1.407  -0.004  0.00  0.00    +0.029 C 
ATOM     28  C   UNL     1      -0.037  -0.123   0.004  0.00  0.00    +0.140 C 
ENDBRANCH  22  28
ENDBRANCH   1  25
BRANCH  18  29
ATOM     29  C   UNL     1      -8.701   3.299   4.274  0.00  0.00    +0.080 C 
ATOM     30  C   UNL     1      -9.825   2.407   4.841  0.00  0.00    +0.024 C 
ATOM     31  C   UNL     1     -11.129   3.071   4.333  0.00  0.00    +0.002 C 
ATOM     32  C   UNL     1     -10.744   3.531   2.905  0.00  0.00    +0.002 C 
ATOM     33  C   UNL     1      -9.285   4.014   3.043  0.00  0.00    +0.024 C 
ENDBRANCH  18  29
TORSDOF 3
