REMARK  Name = ZINC63194450
REMARK  6 active torsions:
REMARK  status: ('A' for Active; 'I' for Inactive)
REMARK    1  A    between atoms: C_1  and  C_2
REMARK    2  A    between atoms: C_9  and  N_14
REMARK    3  A    between atoms: C_15  and  C_17
REMARK    4  A    between atoms: C_17  and  C_18
REMARK    5  A    between atoms: C_18  and  C_19
REMARK    6  A    between atoms: C_27  and  C_29
REMARK                            x       y       z     vdW  Elec       q    Type
REMARK                         _______ _______ _______ _____ _____    ______ ____
ROOT
ATOM      1  C   UNL     1       8.328   0.680   2.249  0.00  0.00    +0.100 C 
ENDROOT
BRANCH   1   3
ATOM      2  N   UNL     1       6.197   0.088   1.141  0.00  0.00    -0.285 N 
ATOM      3  C   UNL     1       6.845   0.415   2.277  0.00  0.00    +0.217 C 
ATOM      4  O   UNL     1       6.234   0.494   3.322  0.00  0.00    -0.275 OA
ATOM      5  H   UNL     1       6.696  -0.050   0.321  0.00  0.00    +0.155 HD
BRANCH   2  13
ATOM      6  C   UNL     1       0.292  -1.409   3.347  0.00  0.00    +0.062 C 
ATOM      7  C   UNL     1       0.034  -0.230   2.407  0.00  0.00    +0.256 C 
ATOM      8  C   UNL     1       0.568   1.034   3.030  0.00  0.00    +0.258 C 
ATOM      9  O   UNL     1      -0.151   1.722   3.724  0.00  0.00    -0.271 OA
ATOM     10  N   UNL     1       1.851   1.398   2.813  0.00  0.00    -0.279 N 
ATOM     11  C   UNL     1       2.651   0.604   1.979  0.00  0.00    +0.077 A 
ATOM     12  C   UNL     1       4.028   0.745   1.979  0.00  0.00    +0.050 A 
ATOM     13  C   UNL     1       4.803  -0.051   1.145  0.00  0.00    +0.035 A 
ATOM     14  C   UNL     1       4.196  -0.983   0.314  0.00  0.00    +0.027 A 
ATOM     15  C   UNL     1       2.821  -1.125   0.315  0.00  0.00    +0.049 A 
ATOM     16  C   UNL     1       2.045  -0.334   1.145  0.00  0.00    +0.143 A 
ATOM     17  O   UNL     1       0.691  -0.464   1.159  0.00  0.00    -0.478 OA
ATOM     18  H   UNL     1       2.213   2.197   3.228  0.00  0.00    +0.155 HD
ENDBRANCH   2  13
ENDBRANCH   1   3
BRANCH   1  19
ATOM     19  C   UNL     1       8.810   1.027   3.659  0.00  0.00    +0.043 C 
BRANCH  19  20
ATOM     20  C   UNL     1      10.294   1.293   3.630  0.00  0.00    -0.034 C 
ATOM     21  C   UNL     1      11.107   1.250   2.550  0.00  0.00    -0.000 A 
ATOM     22  C   UNL     1      10.864   0.953   1.134  0.00  0.00    +0.010 A 
ATOM     23  C   UNL     1      11.903   0.989   0.269  0.00  0.00    +0.001 A 
ATOM     24  C   UNL     1      13.203   1.301   0.690  0.00  0.00    +0.002 A 
ATOM     25  C   UNL     1      13.504   1.585   1.975  0.00  0.00    +0.026 A 
ATOM     26  C   UNL     1      12.489   1.577   2.970  0.00  0.00    +0.043 A 
ATOM     27  N   UNL     1      12.528   1.813   4.259  0.00  0.00    -0.374 N 
ATOM     28  C   UNL     1      11.172   1.668   4.803  0.00  0.00    +0.137 C 
ATOM     29  H   UNL     1      13.319   2.048   4.768  0.00  0.00    +0.161 HD
BRANCH  28  30
ATOM     30  C   UNL     1      10.709   2.970   5.404  0.00  0.00    -0.021 A 
ATOM     31  C   UNL     1      11.056   4.168   4.808  0.00  0.00    +0.009 A 
ATOM     32  C   UNL     1      10.631   5.362   5.359  0.00  0.00    +0.039 A 
ATOM     33  C   UNL     1       9.857   5.358   6.507  0.00  0.00    +0.123 A 
ATOM     34  C   UNL     1       9.510   4.157   7.102  0.00  0.00    +0.039 A 
ATOM     35  C   UNL     1       9.932   2.964   6.547  0.00  0.00    +0.009 A 
ATOM     36  F   UNL     1       9.441   6.525   7.046  0.00  0.00    -0.205 F 
ENDBRANCH  28  30
ENDBRANCH  19  20
ENDBRANCH   1  19
TORSDOF 5
