REMARK  Name = ZINC39226478
REMARK  4 active torsions:
REMARK  status: ('A' for Active; 'I' for Inactive)
REMARK    1  A    between atoms: C_1  and  N_2
REMARK    2  A    between atoms: C_10  and  C_15
REMARK    3  A    between atoms: C_18  and  C_21
REMARK    4  A    between atoms: N_23  and  N_24
REMARK                            x       y       z     vdW  Elec       q    Type
REMARK                         _______ _______ _______ _____ _____    ______ ____
ROOT
ATOM      1  C   UNL     1       6.154  -4.694  -3.728  0.00  0.00    -0.018 A 
ATOM      2  C   UNL     1       5.763  -5.861  -4.385  0.00  0.00    +0.009 A 
ATOM      3  C   UNL     1       6.615  -6.465  -5.282  0.00  0.00    +0.014 A 
ATOM      4  C   UNL     1       7.872  -5.907  -5.535  0.00  0.00    +0.038 A 
ATOM      5  C   UNL     1       8.261  -4.737  -4.877  0.00  0.00    +0.014 A 
ATOM      6  C   UNL     1       7.405  -4.133  -3.984  0.00  0.00    +0.009 A 
ENDROOT
BRANCH   1  16
ATOM      7  C   UNL     1      -0.018   1.465   0.010  0.00  0.00    -0.096 C 
ATOM      8  N   UNL     1       0.002  -0.004   0.002  0.00  0.00    +0.378 N 
ATOM      9  C   UNL     1       0.681  -0.476  -1.210  0.00  0.00    -0.075 C 
ATOM     10  C   UNL     1       0.633  -2.005  -1.265  0.00  0.00    +0.029 C 
ATOM     11  C   UNL     1       1.327  -2.578  -0.029  0.00  0.00    +0.108 C 
ATOM     12  C   UNL     1       1.204  -4.106  -0.034  0.00  0.00    +0.052 C 
ATOM     13  C   UNL     1       1.782  -4.631  -1.350  0.00  0.00    +0.043 C 
ATOM     14  C   UNL     1       3.129  -4.000  -1.601  0.00  0.00    -0.005 A 
ATOM     15  C   UNL     1       3.985  -4.602  -2.504  0.00  0.00    +0.015 A 
ATOM     16  C   UNL     1       5.236  -4.045  -2.762  0.00  0.00    -0.017 A 
ATOM     17  C   UNL     1       5.620  -2.875  -2.107  0.00  0.00    +0.012 A 
ATOM     18  C   UNL     1       4.764  -2.281  -1.208  0.00  0.00    +0.046 A 
ATOM     19  C   UNL     1       3.515  -2.841  -0.948  0.00  0.00    +0.124 A 
ATOM     20  O   UNL     1       2.709  -2.228  -0.042  0.00  0.00    -0.486 OA
ATOM     21  C   UNL     1       0.663  -2.018   1.231  0.00  0.00    +0.029 C 
ATOM     22  C   UNL     1       0.712  -0.489   1.192  0.00  0.00    -0.075 C 
ATOM     23  H   UNL     1      -0.945  -0.352   0.012  0.00  0.00    -0.082 HD
ENDBRANCH   1  16
BRANCH   4  24
ATOM     24  C   UNL     1       8.787  -6.553  -6.497  0.00  0.00    +0.258 C 
ATOM     25  O   UNL     1       8.447  -7.571  -7.069  0.00  0.00    -0.269 OA
ATOM     26  N   UNL     1       9.998  -6.015  -6.741  0.00  0.00    -0.244 N 
ATOM     27  H   UNL     1      10.269  -5.203  -6.284  0.00  0.00    +0.170 HD
BRANCH  26  28
ATOM     28  N   UNL     1      10.845  -6.613  -7.631  0.00  0.00    -0.226 NA
ATOM     29  C   UNL     1      12.129  -7.006  -6.969  0.00  0.00    +0.109 C 
ATOM     30  C   UNL     1      13.172  -6.165  -7.637  0.00  0.00    +0.009 C 
ATOM     31  C   UNL     1      14.603  -6.513  -7.904  0.00  0.00    +0.005 C 
ATOM     32  C   UNL     1      14.947  -5.726  -9.206  0.00  0.00    +0.001 C 
ATOM     33  C   UNL     1      13.597  -5.109  -9.698  0.00  0.00    +0.005 C 
ATOM     34  C   UNL     1      12.599  -6.088  -9.105  0.00  0.00    +0.009 C 
ATOM     35  C   UNL     1      11.179  -5.686  -8.761  0.00  0.00    +0.109 C 
ENDBRANCH  26  28
ENDBRANCH   4  24
TORSDOF 3
