REMARK  Name = ZINC09287934
REMARK  10 active torsions:
REMARK  status: ('A' for Active; 'I' for Inactive)
REMARK    1  A    between atoms: C_1  and  C_2
REMARK    2  A    between atoms: C_2  and  C_3
REMARK    3  A    between atoms: C_3  and  O_4
REMARK    4  A    between atoms: O_4  and  C_5
REMARK    5  A    between atoms: C_8  and  N_11
REMARK    6  A    between atoms: C_15  and  N_63
REMARK    7  A    between atoms: C_19  and  C_20
REMARK    8  A    between atoms: C_19  and  N_63
REMARK    9  A    between atoms: C_25  and  C_26
REMARK   10  A    between atoms: C_25  and  N_66
REMARK                            x       y       z     vdW  Elec       q    Type
REMARK                         _______ _______ _______ _____ _____    ______ ____
ROOT
ATOM      1  N   UNL     1      -9.365  -4.840   1.391  0.00  0.00    +0.387 N 
ATOM      2  H   UNL     1      -8.723  -4.626   2.163  0.00  0.00    -0.085 HD
ATOM      3  H   UNL     1      -9.804  -5.754   1.555  0.00  0.00    -0.085 HD
ENDROOT
BRANCH   1   8
ATOM      4  N   UNL     1      -6.308  -4.541   0.038  0.00  0.00    -0.212 N 
ATOM      5  C   UNL     1      -6.427  -5.870  -0.071  0.00  0.00    +0.225 C 
ATOM      6  O   UNL     1      -5.507  -6.650  -0.188  0.00  0.00    -0.275 OA
ATOM      7  C   UNL     1      -7.893  -6.243  -0.022  0.00  0.00    +0.090 C 
ATOM      8  C   UNL     1      -8.607  -4.885   0.126  0.00  0.00    +0.026 C 
ATOM      9  C   UNL     1      -7.470  -3.886   0.151  0.00  0.00    +0.213 C 
ATOM     10  O   UNL     1      -7.593  -2.685   0.256  0.00  0.00    -0.277 OA
BRANCH   4  14
ATOM     11  C   UNL     1      -2.617  -2.595   0.013  0.00  0.00    +0.121 A 
ATOM     12  C   UNL     1      -3.504  -2.414  -1.039  0.00  0.00    +0.047 A 
ATOM     13  C   UNL     1      -4.723  -3.062  -1.033  0.00  0.00    +0.027 A 
ATOM     14  C   UNL     1      -5.066  -3.886   0.030  0.00  0.00    +0.044 A 
ATOM     15  C   UNL     1      -4.181  -4.063   1.084  0.00  0.00    +0.027 A 
ATOM     16  C   UNL     1      -2.959  -3.419   1.075  0.00  0.00    +0.047 A 
BRANCH  11  17
ATOM     17  O   UNL     1      -1.415  -1.961   0.004  0.00  0.00    -0.492 OA
BRANCH  17  18
ATOM     18  C   UNL     1      -1.128  -1.129  -1.121  0.00  0.00    +0.229 C 
BRANCH  18  20
ATOM     19  C   UNL     1       0.566   0.387  -2.159  0.00  0.00    +0.007 C 
ATOM     20  C   UNL     1       0.259  -0.505  -0.954  0.00  0.00    +0.038 C 
ENDBRANCH  18  20
ENDBRANCH  17  18
ENDBRANCH  11  17
ENDBRANCH   4  14
ENDBRANCH   1   8
BRANCH   1  21
ATOM     21  C   UNL     1     -10.412  -3.803   1.325  0.00  0.00    -0.078 C 
BRANCH  21  22
ATOM     22  C   UNL     1     -11.180  -3.781   2.649  0.00  0.00    -0.032 C 
ATOM     23  C   UNL     1     -11.930  -5.104   2.827  0.00  0.00    -0.017 C 
ATOM     24  C   UNL     1     -12.745  -5.051   4.121  0.00  0.00    -0.078 C 
ATOM     25  C   UNL     1     -12.994  -2.648   3.937  0.00  0.00    -0.078 C 
ATOM     26  C   UNL     1     -12.187  -2.628   2.636  0.00  0.00    -0.017 C 
ATOM     27  N   UNL     1     -13.712  -3.936   4.036  0.00  0.00    +0.382 N 
ATOM     28  H   UNL     1     -14.290  -4.060   3.196  0.00  0.00    -0.081 HD
BRANCH  27  29
ATOM     29  C   UNL     1     -14.588  -3.935   5.226  0.00  0.00    -0.043 C 
BRANCH  29  30
ATOM     30  C   UNL     1     -15.098  -5.333   5.464  0.00  0.00    -0.064 A 
ATOM     31  C   UNL     1     -16.270  -5.752   4.862  0.00  0.00    +0.004 A 
ATOM     32  C   UNL     1     -16.737  -7.035   5.076  0.00  0.00    +0.038 A 
ATOM     33  C   UNL     1     -16.036  -7.897   5.902  0.00  0.00    +0.123 A 
ATOM     34  C   UNL     1     -14.865  -7.475   6.508  0.00  0.00    +0.038 A 
ATOM     35  C   UNL     1     -14.398  -6.193   6.289  0.00  0.00    +0.004 A 
ATOM     36  F   UNL     1     -16.494  -9.150   6.115  0.00  0.00    -0.205 F 
ENDBRANCH  29  30
ENDBRANCH  27  29
ENDBRANCH  21  22
ENDBRANCH   1  21
TORSDOF 9
