REMARK  Name = ZINC12201856
REMARK  8 active torsions:
REMARK  status: ('A' for Active; 'I' for Inactive)
REMARK    1  A    between atoms: C_1  and  C_2
REMARK    2  A    between atoms: C_10  and  C_13
REMARK    3  A    between atoms: C_18  and  C_19
REMARK    4  A    between atoms: C_18  and  N_70
REMARK    5  A    between atoms: N_21  and  C_22
REMARK    6  A    between atoms: C_22  and  C_24
REMARK    7  A    between atoms: C_22  and  C_25
REMARK    8  A    between atoms: C_34  and  O_37
REMARK                            x       y       z     vdW  Elec       q    Type
REMARK                         _______ _______ _______ _____ _____    ______ ____
ROOT
ATOM      1  C   UNL     1      -1.192   3.739  -2.885  0.00  0.00    +0.019 C 
ENDROOT
BRANCH   1  13
ATOM      2  C   UNL     1       1.721   6.729  -8.246  0.00  0.00    +0.044 C 
ATOM      3  C   UNL     1       1.419   7.009  -6.796  0.00  0.00    -0.050 A 
ATOM      4  C   UNL     1       1.371   8.314  -6.340  0.00  0.00    +0.007 A 
ATOM      5  C   UNL     1       1.086   8.577  -5.014  0.00  0.00    +0.046 A 
ATOM      6  C   UNL     1       0.847   7.525  -4.140  0.00  0.00    +0.123 A 
ATOM      7  C   UNL     1       0.912   6.223  -4.598  0.00  0.00    -0.022 A 
ATOM      8  C   UNL     1       1.190   5.960  -5.923  0.00  0.00    +0.008 A 
ATOM      9  C   UNL     1       0.680   5.082  -3.626  0.00  0.00    -0.038 C 
ATOM     10  C   UNL     1      -0.979   6.014  -2.107  0.00  0.00    -0.028 C 
ATOM     11  C   UNL     1      -0.838   7.472  -2.487  0.00  0.00    +0.188 C 
ATOM     12  O   UNL     1       0.517   7.775  -2.844  0.00  0.00    -0.486 OA
ATOM     13  N   UNL     1      -0.753   5.097  -3.243  0.00  0.00    +0.391 N 
ATOM     14  H   UNL     1      -1.305   5.423  -4.045  0.00  0.00    -0.080 HD
BRANCH  11  15
ATOM     15  C   UNL     1      -1.247   8.331  -1.319  0.00  0.00    -0.002 A 
ATOM     16  C   UNL     1      -2.543   8.800  -1.213  0.00  0.00    +0.015 A 
ATOM     17  C   UNL     1      -2.878   9.570  -0.149  0.00  0.00    +0.045 A 
ATOM     18  S   UNL     1      -1.337   9.653   0.748  0.00  0.00    -0.105 S 
ATOM     19  C   UNL     1      -0.351   8.651  -0.353  0.00  0.00    +0.052 A 
ENDBRANCH  11  15
ENDBRANCH   1  13
BRANCH   1  20
ATOM     20  C   UNL     1      -0.463   3.239  -1.664  0.00  0.00    +0.197 C 
ATOM     21  O   UNL     1       0.362   3.943  -1.120  0.00  0.00    -0.278 OA
ATOM     22  N   UNL     1      -0.727   2.011  -1.176  0.00  0.00    -0.314 N 
ATOM     23  H   UNL     1      -1.387   1.448  -1.611  0.00  0.00    +0.149 HD
BRANCH  22  24
ATOM     24  C   UNL     1      -0.019   1.526   0.010  0.00  0.00    +0.076 C 
ATOM     25  C   UNL     1      -0.735   2.019   1.269  0.00  0.00    +0.028 C 
BRANCH  24  26
ATOM     26  C   UNL     1       0.002  -0.004   0.002  0.00  0.00    -0.008 C 
ATOM     27  C   UNL     1       0.718  -0.497  -1.257  0.00  0.00    +0.012 C 
ATOM     28  C   UNL     1       0.739  -2.027  -1.265  0.00  0.00    -0.007 C 
ATOM     29  C   UNL     1      -0.696  -2.557  -1.254  0.00  0.00    +0.007 C 
ATOM     30  C   UNL     1      -1.413  -2.063   0.004  0.00  0.00    -0.007 C 
ATOM     31  C   UNL     1      -1.433  -0.534   0.013  0.00  0.00    +0.012 C 
ATOM     32  C   UNL     1      -0.673  -2.570   1.244  0.00  0.00    +0.038 C 
ATOM     33  C   UNL     1       0.763  -2.041   1.233  0.00  0.00    +0.067 C 
ATOM     34  C   UNL     1       1.479  -2.534  -0.026  0.00  0.00    +0.038 C 
ATOM     35  C   UNL     1       0.742  -0.511   1.242  0.00  0.00    +0.043 C 
BRANCH  33  36
ATOM     36  O   UNL     1       1.454  -2.514   2.391  0.00  0.00    -0.389 OA
ATOM     37  H   UNL     1       1.506  -3.478   2.451  0.00  0.00    +0.210 HD
ENDBRANCH  33  36
ENDBRANCH  24  26
ENDBRANCH  22  24
ENDBRANCH   1  20
TORSDOF 6
