REMARK  Name = ZINC32092497
REMARK  5 active torsions:
REMARK  status: ('A' for Active; 'I' for Inactive)
REMARK    1  A    between atoms: C_1  and  C_2
REMARK    2  A    between atoms: C_5  and  N_8
REMARK    3  A    between atoms: C_9  and  C_11
REMARK    4  A    between atoms: C_20  and  C_23
REMARK    5  A    between atoms: C_21  and  C_22
REMARK                            x       y       z     vdW  Elec       q    Type
REMARK                         _______ _______ _______ _____ _____    ______ ____
ROOT
ATOM      1  C   UNL     1       0.264  -6.431   1.097  0.00  0.00    +0.204 C 
ATOM      2  C   UNL     1       1.539  -6.784   0.328  0.00  0.00    +0.132 C 
ATOM      3  C   UNL     1       1.997  -8.181   0.637  0.00  0.00    +0.221 C 
ATOM      4  O   UNL     1       2.496  -8.849  -0.243  0.00  0.00    -0.275 OA
ATOM      5  N   UNL     1       1.867  -8.712   1.874  0.00  0.00    -0.270 N 
ATOM      6  C   UNL     1       1.175  -7.963   2.828  0.00  0.00    +0.128 A 
ATOM      7  N   UNL     1       0.407  -6.883   2.483  0.00  0.00    -0.237 N 
ATOM      8  N   UNL     1      -0.151  -6.359   3.645  0.00  0.00    -0.169 NA
ATOM      9  C   UNL     1       0.257  -7.091   4.664  0.00  0.00    +0.098 A 
ATOM     10  C   UNL     1       1.104  -8.110   4.165  0.00  0.00    +0.017 A 
ATOM     11  C   UNL     1       1.793  -9.173   4.981  0.00  0.00    +0.049 C 
ATOM     12  H   UNL     1       2.239  -9.581   2.091  0.00  0.00    +0.156 HD
ENDROOT
BRANCH   9  13
ATOM     13  C   UNL     1      -0.103  -6.878   6.088  0.00  0.00    +0.003 A 
ATOM     14  C   UNL     1       0.870  -6.992   7.079  0.00  0.00    +0.013 A 
ATOM     15  C   UNL     1       0.531  -6.793   8.402  0.00  0.00    +0.039 A 
ATOM     16  C   UNL     1      -0.774  -6.480   8.745  0.00  0.00    +0.123 A 
ATOM     17  C   UNL     1      -1.745  -6.365   7.762  0.00  0.00    +0.039 A 
ATOM     18  C   UNL     1      -1.413  -6.556   6.437  0.00  0.00    +0.013 A 
ATOM     19  F   UNL     1      -1.102  -6.286  10.041  0.00  0.00    -0.205 F 
ENDBRANCH   9  13
BRANCH   1  21
ATOM     20  N   UNL     1      -0.095  -4.299  -0.106  0.00  0.00    -0.284 N 
ATOM     21  C   UNL     1       0.055  -4.938   1.071  0.00  0.00    +0.242 C 
ATOM     22  O   UNL     1       0.023  -4.312   2.109  0.00  0.00    -0.273 OA
ATOM     23  H   UNL     1      -0.137  -4.807  -0.932  0.00  0.00    +0.155 HD
BRANCH  20  28
ATOM     24  C   UNL     1      -0.478   1.359  -0.232  0.00  0.00    +0.044 C 
ATOM     25  C   UNL     1      -0.376  -0.144  -0.199  0.00  0.00    -0.050 A 
ATOM     26  C   UNL     1      -0.930  -0.850   0.854  0.00  0.00    +0.005 A 
ATOM     27  C   UNL     1      -0.839  -2.227   0.887  0.00  0.00    +0.023 A 
ATOM     28  C   UNL     1      -0.190  -2.904  -0.138  0.00  0.00    +0.033 A 
ATOM     29  C   UNL     1       0.365  -2.192  -1.193  0.00  0.00    +0.023 A 
ATOM     30  C   UNL     1       0.266  -0.815  -1.223  0.00  0.00    +0.005 A 
ENDBRANCH  20  28
ENDBRANCH   1  21
TORSDOF 3
