REMARK  Name = ZINC33743437
REMARK  9 active torsions:
REMARK  status: ('A' for Active; 'I' for Inactive)
REMARK    1  A    between atoms: C_1  and  C_2
REMARK    2  A    between atoms: C_4  and  C_10
REMARK    3  A    between atoms: C_6  and  C_9
REMARK    4  A    between atoms: C_7  and  O_8
REMARK    5  A    between atoms: N_18  and  C_21
REMARK    6  A    between atoms: C_27  and  C_29
REMARK    7  A    between atoms: C_27  and  C_39
REMARK    8  A    between atoms: C_29  and  C_30
REMARK    9  A    between atoms: C_33  and  N_36
REMARK                            x       y       z     vdW  Elec       q    Type
REMARK                         _______ _______ _______ _____ _____    ______ ____
ROOT
ATOM      1  C   UNL     1       5.103   3.323  -0.029  0.00  0.00    -0.027 C 
ATOM      2  C   UNL     1       5.006   4.824   0.228  0.00  0.00    +0.077 C 
ATOM      3  C   UNL     1       6.517   5.050   0.620  0.00  0.00    +0.086 C 
ATOM      4  C   UNL     1       6.637   6.485   0.500  0.00  0.00    +0.225 C 
ATOM      5  O   UNL     1       7.322   7.228   1.171  0.00  0.00    -0.275 OA
ATOM      6  N   UNL     1       5.807   6.823  -0.540  0.00  0.00    -0.239 N 
ATOM      7  C   UNL     1       4.971   5.805  -0.901  0.00  0.00    +0.225 C 
ATOM      8  O   UNL     1       4.330   5.715  -1.926  0.00  0.00    -0.275 OA
ATOM      9  C   UNL     1       6.774   3.979   1.593  0.00  0.00    +0.052 C 
ATOM     10  N   UNL     1       5.920   2.836   1.130  0.00  0.00    +0.396 N 
ATOM     11  H   UNL     1       5.251   2.505   1.938  0.00  0.00    -0.083 HD
ATOM     12  H   UNL     1       6.549   1.993   0.807  0.00  0.00    -0.083 HD
ENDROOT
BRANCH   1  16
ATOM     13  C   UNL     1       1.190   1.506   2.506  0.00  0.00    +0.047 C 
ATOM     14  C   UNL     1       1.863   1.822   1.195  0.00  0.00    -0.009 A 
ATOM     15  C   UNL     1       3.119   2.397   1.183  0.00  0.00    +0.009 A 
ATOM     16  C   UNL     1       3.735   2.692  -0.019  0.00  0.00    -0.060 A 
ATOM     17  C   UNL     1       3.096   2.409  -1.213  0.00  0.00    +0.009 A 
ATOM     18  C   UNL     1       1.842   1.830  -1.207  0.00  0.00    -0.009 A 
ATOM     19  C   UNL     1       1.223   1.532  -0.001  0.00  0.00    +0.123 A 
ATOM     20  C   UNL     1       1.147   1.523  -2.508  0.00  0.00    +0.047 C 
BRANCH  19  21
ATOM     21  O   UNL     1      -0.011   0.963   0.007  0.00  0.00    -0.506 OA
ATOM     22  H   UNL     1      -0.517   0.733  -0.942  0.00  0.00    +0.292 HD
ENDBRANCH  19  21
ENDBRANCH   1  16
BRANCH   6  23
ATOM     23  C   UNL     1       5.818   8.135  -1.193  0.00  0.00    +0.084 C 
ATOM     24  C   UNL     1       4.442   8.788  -1.048  0.00  0.00    +0.023 C 
ATOM     25  C   UNL     1       4.453  10.157  -1.731  0.00  0.00    +0.002 C 
ATOM     26  C   UNL     1       4.782   9.985  -3.215  0.00  0.00    +0.000 C 
ATOM     27  C   UNL     1       6.159   9.332  -3.359  0.00  0.00    +0.002 C 
ATOM     28  C   UNL     1       6.147   7.963  -2.677  0.00  0.00    +0.023 C 
ENDBRANCH   6  23
BRANCH   9  29
ATOM     29  C   UNL     1       6.364   4.415   2.976  0.00  0.00    +0.347 C 
ATOM     30  O   UNL     1       6.332   5.590   3.254  0.00  0.00    -0.248 OA
ATOM     31  O   UNL     1       6.034   3.498   3.899  0.00  0.00    -0.248 OA
ENDBRANCH   9  29
BRANCH   9  32
ATOM     32  C   UNL     1       8.253   3.586   1.575  0.00  0.00    +0.035 C 
BRANCH  32  33
ATOM     33  C   UNL     1       8.470   2.406   2.488  0.00  0.00    -0.048 A 
ATOM     34  C   UNL     1       8.784   2.611   3.819  0.00  0.00    +0.006 A 
ATOM     35  C   UNL     1       8.979   1.529   4.657  0.00  0.00    +0.033 A 
ATOM     36  C   UNL     1       8.868   0.243   4.163  0.00  0.00    +0.126 A 
ATOM     37  C   UNL     1       8.560   0.038   2.831  0.00  0.00    +0.033 A 
ATOM     38  C   UNL     1       8.360   1.120   1.994  0.00  0.00    +0.006 A 
BRANCH  36  39
ATOM     39  N   UNL     1       9.082  -0.915   5.059  0.00  0.00    +0.056 N 
ATOM     40  O   UNL     1       8.985  -2.049   4.624  0.00  0.00    -0.126 OA
ATOM     41  O   UNL     1       9.354  -0.735   6.233  0.00  0.00    -0.126 OA
ENDBRANCH  36  39
ENDBRANCH  32  33
ENDBRANCH   9  32
TORSDOF 7
