REMARK  Name = ZINC40168499
REMARK  10 active torsions:
REMARK  status: ('A' for Active; 'I' for Inactive)
REMARK    1  A    between atoms: C_1  and  C_2
REMARK    2  A    between atoms: C_2  and  C_3
REMARK    3  A    between atoms: C_3  and  C_5
REMARK    4  A    between atoms: C_3  and  O_17
REMARK    5  A    between atoms: N_7  and  C_8
REMARK    6  A    between atoms: C_9  and  C_15
REMARK    7  A    between atoms: C_10  and  C_14
REMARK    8  A    between atoms: C_11  and  C_13
REMARK    9  A    between atoms: O_17  and  C_18
REMARK   10  A    between atoms: C_28  and  C_29
REMARK                            x       y       z     vdW  Elec       q    Type
REMARK                         _______ _______ _______ _____ _____    ______ ____
ROOT
ATOM      1  C   UNL     1       0.015   0.978  -2.844  0.00  0.00    +0.212 A 
ATOM      2  C   UNL     1       1.305   1.096  -3.420  0.00  0.00    +0.235 A 
ATOM      3  O   UNL     1       2.142   0.218  -3.286  0.00  0.00    -0.283 OA
ATOM      4  C   UNL     1       1.595   2.321  -4.189  0.00  0.00    +0.068 A 
ATOM      5  C   UNL     1       2.837   2.522  -4.790  0.00  0.00    +0.015 A 
ATOM      6  C   UNL     1       3.070   3.679  -5.500  0.00  0.00    +0.001 A 
ATOM      7  C   UNL     1       2.075   4.640  -5.617  0.00  0.00    +0.004 A 
ATOM      8  C   UNL     1       0.844   4.454  -5.027  0.00  0.00    +0.047 A 
ATOM      9  C   UNL     1       0.589   3.293  -4.306  0.00  0.00    +0.140 A 
ATOM     10  O   UNL     1      -0.611   3.092  -3.722  0.00  0.00    -0.451 OA
ATOM     11  C   UNL     1      -0.893   1.980  -3.024  0.00  0.00    +0.182 A 
ENDROOT
BRANCH  11  12
ATOM     12  C   UNL     1      -2.233   1.839  -2.424  0.00  0.00    +0.039 A 
ATOM     13  C   UNL     1      -2.973   0.670  -2.623  0.00  0.00    +0.013 A 
ATOM     14  C   UNL     1      -4.225   0.546  -2.059  0.00  0.00    +0.001 A 
ATOM     15  C   UNL     1      -4.750   1.575  -1.296  0.00  0.00    +0.001 A 
ATOM     16  C   UNL     1      -4.025   2.735  -1.095  0.00  0.00    +0.021 A 
ATOM     17  C   UNL     1      -2.768   2.872  -1.648  0.00  0.00    +0.052 A 
ATOM     18 CL   UNL     1      -1.855   4.326  -1.387  0.00  0.00    -0.083 Cl
ENDBRANCH  11  12
BRANCH   1  19
ATOM     19  O   UNL     1      -0.317  -0.127  -2.123  0.00  0.00    -0.472 OA
BRANCH  19  20
ATOM     20  C   UNL     1       0.464  -0.399  -0.957  0.00  0.00    +0.259 C 
BRANCH  20  21
ATOM     21  C   UNL     1       0.597  -1.890  -0.779  0.00  0.00    +0.260 C 
ATOM     22  O   UNL     1      -0.012  -2.644  -1.507  0.00  0.00    -0.271 OA
ATOM     23  N   UNL     1       1.391  -2.384   0.191  0.00  0.00    -0.252 N 
ATOM     24  H   UNL     1       1.819  -1.783   0.821  0.00  0.00    +0.158 HD
BRANCH  23  25
ATOM     25  C   UNL     1       1.598  -3.749   0.287  0.00  0.00    +0.210 A 
ATOM     26  C   UNL     1       2.382  -4.390   1.233  0.00  0.00    +0.115 A 
ATOM     27  C   UNL     1       2.281  -5.823   0.918  0.00  0.00    +0.010 A 
ATOM     28  C   UNL     1       1.475  -5.914  -0.149  0.00  0.00    +0.109 A 
ATOM     29  O   UNL     1       1.071  -4.685  -0.514  0.00  0.00    -0.445 OA
ATOM     30  C   UNL     1       1.079  -7.197  -0.832  0.00  0.00    +0.086 C 
ATOM     31  C   UNL     1       2.948  -6.960   1.648  0.00  0.00    +0.049 C 
BRANCH  26  32
ATOM     32  C   UNL     1       3.132  -3.785   2.293  0.00  0.00    +0.105 C 
ATOM     33  N   UNL     1       3.726  -3.305   3.134  0.00  0.00    -0.191 NA
ENDBRANCH  26  32
ENDBRANCH  23  25
ENDBRANCH  20  21
BRANCH  20  35
ATOM     34  C   UNL     1      -0.202   1.729   0.170  0.00  0.00    +0.008 C 
ATOM     35  C   UNL     1      -0.224   0.203   0.270  0.00  0.00    +0.051 C 
ENDBRANCH  20  35
ENDBRANCH  19  20
ENDBRANCH   1  19
TORSDOF 7
