REMARK  Name = ZINC59471601
REMARK  5 active torsions:
REMARK  status: ('A' for Active; 'I' for Inactive)
REMARK    1  A    between atoms: C_4  and  O_34
REMARK    2  A    between atoms: C_5  and  C_7
REMARK    3  A    between atoms: N_8  and  N_9
REMARK    4  A    between atoms: C_10  and  C_12
REMARK    5  A    between atoms: C_15  and  C_18
REMARK                            x       y       z     vdW  Elec       q    Type
REMARK                         _______ _______ _______ _____ _____    ______ ____
ROOT
ATOM      1  C   UNL     1       3.619  -6.315  -0.069  0.00  0.00    +0.038 A 
ATOM      2  C   UNL     1       2.440  -7.037  -0.263  0.00  0.00    +0.013 A 
ATOM      3  C   UNL     1       2.473  -8.417  -0.270  0.00  0.00    +0.006 A 
ATOM      4  C   UNL     1       3.671  -9.084  -0.085  0.00  0.00    -0.027 A 
ATOM      5  C   UNL     1       4.843  -8.374   0.108  0.00  0.00    +0.006 A 
ATOM      6  C   UNL     1       4.825  -6.995   0.111  0.00  0.00    +0.013 A 
ENDROOT
BRANCH   4   7
ATOM      7  C   UNL     1       3.699 -10.591  -0.093  0.00  0.00    +0.105 C 
ATOM      8  C   UNL     1       3.502 -11.126   1.314  0.00  0.00    +0.029 C 
ATOM      9  C   UNL     1       4.457 -10.613   2.400  0.00  0.00    +0.033 C 
ATOM     10  C   UNL     1       3.580 -10.705   3.650  0.00  0.00    -0.030 C 
ATOM     11  C   UNL     1       2.298 -10.625   3.313  0.00  0.00    -0.023 C 
ATOM     12  C   UNL     1       2.189 -10.463   1.831  0.00  0.00    +0.049 C 
ATOM     13  C   UNL     1       1.065 -11.010   1.041  0.00  0.00    -0.019 A 
ATOM     14  C   UNL     1      -0.181 -11.236   1.586  0.00  0.00    +0.006 A 
ATOM     15  C   UNL     1      -1.205 -11.736   0.803  0.00  0.00    +0.000 A 
ATOM     16  C   UNL     1      -0.981 -12.012  -0.534  0.00  0.00    +0.002 A 
ATOM     17  C   UNL     1       0.264 -11.794  -1.087  0.00  0.00    +0.023 A 
ATOM     18  C   UNL     1       1.302 -11.298  -0.307  0.00  0.00    +0.031 A 
ATOM     19  N   UNL     1       2.567 -11.119  -0.886  0.00  0.00    -0.336 N 
ATOM     20  H   UNL     1       2.705 -11.345  -1.819  0.00  0.00    +0.147 HD
ENDBRANCH   4   7
BRANCH   1  22
ATOM     21  N   UNL     1       2.425  -4.184  -0.235  0.00  0.00    -0.203 N 
ATOM     22  C   UNL     1       3.591  -4.838  -0.061  0.00  0.00    +0.263 C 
ATOM     23  O   UNL     1       4.620  -4.211   0.103  0.00  0.00    -0.268 OA
ATOM     24  H   UNL     1       1.604  -4.684  -0.365  0.00  0.00    +0.178 HD
BRANCH  21  26
ATOM     25  C   UNL     1       1.276  -2.155  -0.394  0.00  0.00    +0.142 C 
ATOM     26  N   UNL     1       2.399  -2.784  -0.227  0.00  0.00    -0.187 NA
BRANCH  25  31
ATOM     27  C   UNL     1       0.023   1.378  -0.558  0.00  0.00    +0.001 A 
ATOM     28  C   UNL     1       1.195   2.091  -0.370  0.00  0.00    +0.004 A 
ATOM     29  C   UNL     1       2.395   1.429  -0.191  0.00  0.00    +0.046 A 
ATOM     30  C   UNL     1       2.432   0.045  -0.197  0.00  0.00    +0.125 A 
ATOM     31  C   UNL     1       1.248  -0.681  -0.386  0.00  0.00    +0.036 A 
ATOM     32  C   UNL     1       0.042  -0.000  -0.566  0.00  0.00    +0.013 A 
BRANCH  30  33
ATOM     33  O   UNL     1       3.611  -0.607  -0.021  0.00  0.00    -0.506 OA
ATOM     34  H   UNL     1       3.818  -0.802   0.903  0.00  0.00    +0.292 HD
ENDBRANCH  30  33
ENDBRANCH  25  31
ENDBRANCH  21  26
ENDBRANCH   1  22
TORSDOF 5
