REMARK  Name = ZINC63498783
REMARK  3 active torsions:
REMARK  status: ('A' for Active; 'I' for Inactive)
REMARK    1  A    between atoms: C_10  and  N_11
REMARK    2  A    between atoms: N_24  and  N_25
REMARK    3  A    between atoms: C_26  and  C_27
REMARK                            x       y       z     vdW  Elec       q    Type
REMARK                         _______ _______ _______ _____ _____    ______ ____
ROOT
ATOM      1  N   UNL     1       4.870   0.097  -0.044  0.00  0.00    -0.283 N 
ATOM      2  C   UNL     1       6.075  -0.573   0.046  0.00  0.00    +0.225 A 
ATOM      3  N   UNL     1       6.099  -1.902   0.034  0.00  0.00    -0.179 NA
ATOM      4  C   UNL     1       7.258  -2.547   0.120  0.00  0.00    +0.241 A 
ATOM      5  N   UNL     1       8.394  -1.863   0.217  0.00  0.00    -0.180 NA
ATOM      6  C   UNL     1       8.370  -0.533   0.229  0.00  0.00    +0.224 A 
ATOM      7  N   UNL     1       7.211   0.112   0.138  0.00  0.00    -0.181 NA
ATOM      8  N   UNL     1       9.549   0.177   0.331  0.00  0.00    -0.295 N 
ATOM      9  C   UNL     1       9.548   1.648   0.352  0.00  0.00    +0.136 C 
ATOM     10  C   UNL     1      10.382   2.115   1.550  0.00  0.00    +0.179 C 
ATOM     11  O   UNL     1      11.663   1.482   1.507  0.00  0.00    -0.377 OA
ATOM     12  C   UNL     1      11.616   0.058   1.616  0.00  0.00    +0.179 C 
ATOM     13  C   UNL     1      10.844  -0.515   0.427  0.00  0.00    +0.136 C 
ATOM     14  N   UNL     1       7.283  -3.930   0.108  0.00  0.00    -0.205 N 
ATOM     15  H   UNL     1       4.858   1.064  -0.126  0.00  0.00    +0.155 HD
ATOM     16  H   UNL     1       8.129  -4.401   0.170  0.00  0.00    +0.177 HD
ENDROOT
BRANCH   1  26
ATOM     17  C   UNL     1       0.199   0.937  -1.759  0.00  0.00    +0.001 A 
ATOM     18  C   UNL     1       1.385   1.666  -1.796  0.00  0.00    +0.001 A 
ATOM     19  C   UNL     1       2.526   1.178  -1.236  0.00  0.00    +0.010 A 
ATOM     20  C   UNL     1       2.510  -0.078  -0.610  0.00  0.00    +0.003 A 
ATOM     21  C   UNL     1       1.304  -0.821  -0.571  0.00  0.00    -0.016 A 
ATOM     22  C   UNL     1       0.146  -0.284  -1.160  0.00  0.00    +0.008 A 
ATOM     23  C   UNL     1       1.286  -2.078   0.057  0.00  0.00    +0.008 A 
ATOM     24  C   UNL     1       2.422  -2.573   0.621  0.00  0.00    +0.002 A 
ATOM     25  C   UNL     1       3.612  -1.853   0.589  0.00  0.00    +0.024 A 
ATOM     26  C   UNL     1       3.672  -0.616  -0.017  0.00  0.00    +0.041 A 
ENDBRANCH   1  26
BRANCH  14  27
ATOM     27  N   UNL     1       6.086  -4.652   0.005  0.00  0.00    -0.188 NA
ATOM     28  C   UNL     1       6.110  -5.962  -0.006  0.00  0.00    +0.136 C 
BRANCH  28  29
ATOM     29  C   UNL     1       4.914  -6.683  -0.108  0.00  0.00    +0.000 C 
ATOM     30  C   UNL     1       4.764  -8.069  -0.129  0.00  0.00    +0.004 A 
ATOM     31  C   UNL     1       5.693  -9.130  -0.059  0.00  0.00    +0.010 A 
ATOM     32  C   UNL     1       5.253 -10.414  -0.102  0.00  0.00    +0.001 A 
ATOM     33  C   UNL     1       3.894 -10.719  -0.215  0.00  0.00    +0.002 A 
ATOM     34  C   UNL     1       2.948  -9.751  -0.287  0.00  0.00    +0.026 A 
ATOM     35  C   UNL     1       3.331  -8.385  -0.248  0.00  0.00    +0.043 A 
ATOM     36  N   UNL     1       2.618  -7.278  -0.300  0.00  0.00    -0.380 N 
ATOM     37  C   UNL     1       3.514  -6.121  -0.214  0.00  0.00    +0.150 C 
ATOM     38  H   UNL     1       1.652  -7.236  -0.379  0.00  0.00    +0.160 HD
ENDBRANCH  28  29
ENDBRANCH  14  27
TORSDOF 3
