REMARK  Name = ZINC15732581
REMARK  9 active torsions:
REMARK  status: ('A' for Active; 'I' for Inactive)
REMARK    1  A    between atoms: C_1  and  C_2
REMARK    2  A    between atoms: C_9  and  C_11
REMARK    3  A    between atoms: C_11  and  S_12
REMARK    4  A    between atoms: S_12  and  C_13
REMARK    5  A    between atoms: C_15  and  C_24
REMARK    6  A    between atoms: C_27  and  C_30
REMARK    7  A    between atoms: C_30  and  C_31
REMARK    8  A    between atoms: C_30  and  C_32
REMARK    9  A    between atoms: C_30  and  C_33
REMARK                            x       y       z     vdW  Elec       q    Type
REMARK                         _______ _______ _______ _____ _____    ______ ____
ROOT
ATOM      1  C   UNL     1      -1.088   3.700   8.385  0.00  0.00    +0.192 A 
ATOM      2  N   UNL     1      -2.336   3.273   8.275  0.00  0.00    -0.202 NA
ATOM      3  C   UNL     1      -3.224   3.496   9.246  0.00  0.00    +0.165 A 
ATOM      4  N   UNL     1      -2.884   4.151  10.349  0.00  0.00    -0.208 NA
ATOM      5  C   UNL     1      -1.635   4.601  10.504  0.00  0.00    +0.162 A 
ATOM      6  N   UNL     1      -0.706   4.373   9.510  0.00  0.00    -0.210 N 
ATOM      7  N   UNL     1       0.505   4.943   9.916  0.00  0.00    -0.256 N 
ATOM      8  H   UNL     1       1.333   4.936   9.410  0.00  0.00    +0.191 HD
ATOM      9  C   UNL     1       0.329   5.500  11.130  0.00  0.00    +0.267 A 
ATOM     10  O   UNL     1       1.183   6.080  11.780  0.00  0.00    -0.266 OA
ATOM     11  C   UNL     1      -0.997   5.301  11.519  0.00  0.00    +0.119 A 
ENDROOT
BRANCH   3  12
ATOM     12  C   UNL     1      -4.612   3.005   9.090  0.00  0.00    +0.019 A 
ATOM     13  C   UNL     1      -5.551   3.225  10.099  0.00  0.00    +0.012 A 
ATOM     14  C   UNL     1      -6.844   2.768   9.946  0.00  0.00    +0.005 A 
ATOM     15  C   UNL     1      -7.208   2.084   8.799  0.00  0.00    -0.042 A 
ATOM     16  C   UNL     1      -6.280   1.858   7.798  0.00  0.00    +0.005 A 
ATOM     17  C   UNL     1      -4.985   2.314   7.937  0.00  0.00    +0.012 A 
BRANCH  15  18
ATOM     18  C   UNL     1      -8.620   1.584   8.641  0.00  0.00    -0.013 C 
ATOM     19  C   UNL     1      -8.607   0.062   8.484  0.00  0.00    +0.015 C 
ATOM     20  C   UNL     1      -9.437   1.961   9.878  0.00  0.00    +0.015 C 
ATOM     21  C   UNL     1      -9.250   2.219   7.400  0.00  0.00    +0.015 C 
ENDBRANCH  15  18
ENDBRANCH   3  12
BRANCH   1  22
ATOM     22  S   UNL     1       0.073   3.397   7.095  0.00  0.00    -0.077 S 
BRANCH  22  23
ATOM     23  C   UNL     1      -0.981   2.497   5.930  0.00  0.00    +0.173 C 
BRANCH  23  31
ATOM     24  C   UNL     1      -0.013   1.086   0.008  0.00  0.00    +0.009 C 
ATOM     25  C   UNL     1      -0.729   1.579   1.267  0.00  0.00    +0.003 C 
ATOM     26  C   UNL     1      -2.163   1.046   1.280  0.00  0.00    +0.006 C 
ATOM     27  C   UNL     1      -2.891   1.566   2.522  0.00  0.00    +0.019 C 
ATOM     28  C   UNL     1      -2.175   1.059   3.778  0.00  0.00    +0.108 C 
ATOM     29  N   UNL     1      -0.759   1.444   3.703  0.00  0.00    -0.301 N 
ATOM     30  C   UNL     1       0.012   1.072   2.508  0.00  0.00    +0.111 C 
ATOM     31  C   UNL     1      -0.177   2.123   4.711  0.00  0.00    +0.226 C 
ATOM     32  O   UNL     1       0.993   2.435   4.637  0.00  0.00    -0.275 OA
ENDBRANCH  23  31
ENDBRANCH  22  23
ENDBRANCH   1  22
TORSDOF 5
