REMARK  Name = ZINC04626313
REMARK  4 active torsions:
REMARK  status: ('A' for Active; 'I' for Inactive)
REMARK    1  A    between atoms: C_4  and  C_28
REMARK    2  A    between atoms: C_5  and  C_7
REMARK    3  A    between atoms: C_15  and  C_19
REMARK    4  A    between atoms: C_23  and  N_25
REMARK                            x       y       z     vdW  Elec       q    Type
REMARK                         _______ _______ _______ _____ _____    ______ ____
ROOT
ATOM      1  C   UNL     1       2.311  -3.895  -2.037  0.00  0.00    +0.067 C 
ATOM      2  C   UNL     1       2.428  -5.094  -1.083  0.00  0.00    +0.134 C 
ATOM      3  C   UNL     1       1.236  -6.003  -1.301  0.00  0.00    +0.314 C 
ATOM      4  O   UNL     1       1.386  -7.157  -1.626  0.00  0.00    -0.250 OA
ATOM      5  O   UNL     1      -0.002  -5.483  -1.121  0.00  0.00    -0.407 OA
ATOM      6  C   UNL     1      -0.166  -4.224  -1.615  0.00  0.00    +0.224 A 
ATOM      7  C   UNL     1       0.869  -3.451  -2.050  0.00  0.00    +0.050 A 
ATOM      8  C   UNL     1       0.341  -2.228  -2.484  0.00  0.00    +0.100 A 
ATOM      9  N   UNL     1      -0.967  -2.268  -2.319  0.00  0.00    -0.171 NA
ATOM     10  N   UNL     1      -1.305  -3.517  -1.771  0.00  0.00    -0.246 N 
ATOM     11  H   UNL     1      -2.200  -3.819  -1.548  0.00  0.00    +0.192 HD
ENDROOT
BRANCH   1  16
ATOM     12  C   UNL     1       3.714  -1.114   0.096  0.00  0.00    +0.000 A 
ATOM     13  C   UNL     1       4.795  -0.703  -0.663  0.00  0.00    +0.001 A 
ATOM     14  C   UNL     1       5.071  -1.324  -1.866  0.00  0.00    +0.012 A 
ATOM     15  C   UNL     1       4.267  -2.357  -2.311  0.00  0.00    +0.059 A 
ATOM     16  C   UNL     1       3.188  -2.769  -1.552  0.00  0.00    -0.028 A 
ATOM     17  C   UNL     1       2.911  -2.147  -0.349  0.00  0.00    +0.005 A 
BRANCH  15  18
ATOM     18  C   UNL     1       4.567  -3.034  -3.623  0.00  0.00    +0.418 C 
ATOM     19  F   UNL     1       5.697  -2.447  -4.203  0.00  0.00    -0.166 F 
ATOM     20  F   UNL     1       4.810  -4.394  -3.402  0.00  0.00    -0.166 F 
ATOM     21  F   UNL     1       3.474  -2.889  -4.484  0.00  0.00    -0.166 F 
ENDBRANCH  15  18
ENDBRANCH   1  16
BRANCH   8  22
ATOM     22  C   UNL     1       1.117  -1.088  -3.033  0.00  0.00    +0.005 A 
ATOM     23  C   UNL     1       1.488  -0.031  -2.205  0.00  0.00    +0.010 A 
ATOM     24  C   UNL     1       2.211   1.026  -2.721  0.00  0.00    +0.003 A 
ATOM     25  C   UNL     1       2.566   1.037  -4.058  0.00  0.00    +0.033 A 
ATOM     26  C   UNL     1       2.200  -0.010  -4.884  0.00  0.00    +0.127 A 
ATOM     27  C   UNL     1       1.483  -1.075  -4.377  0.00  0.00    +0.042 A 
BRANCH  26  28
ATOM     28  N   UNL     1       2.584   0.009  -6.314  0.00  0.00    +0.056 N 
ATOM     29  O   UNL     1       3.216   0.939  -6.758  0.00  0.00    -0.126 OA
ATOM     30  O   UNL     1       2.265  -0.905  -7.037  0.00  0.00    -0.126 OA
ENDBRANCH  26  28
ENDBRANCH   8  22
TORSDOF 4
