REMARK  Name = ZINC48301993
REMARK  7 active torsions:
REMARK  status: ('A' for Active; 'I' for Inactive)
REMARK    1  A    between atoms: C_1  and  C_2
REMARK    2  A    between atoms: C_2  and  C_18
REMARK    3  A    between atoms: C_3  and  C_4
REMARK    4  A    between atoms: N_6  and  C_7
REMARK    5  A    between atoms: C_12  and  N_13
REMARK    6  A    between atoms: N_13  and  S_14
REMARK    7  A    between atoms: S_14  and  C_17
REMARK                            x       y       z     vdW  Elec       q    Type
REMARK                         _______ _______ _______ _____ _____    ______ ____
ROOT
ATOM      1  C   UNL     1      -0.009  -1.621   1.139  0.00  0.00    +0.241 C 
ATOM      2  O   UNL     1       0.572  -2.103   0.185  0.00  0.00    -0.270 OA
ATOM      3  N   UNL     1       0.206  -2.110   2.376  0.00  0.00    -0.280 N 
ATOM      4  H   UNL     1      -0.249  -1.719   3.138  0.00  0.00    +0.155 HD
ENDROOT
BRANCH   3   5
ATOM      5  C   UNL     1       1.088  -3.182   2.562  0.00  0.00    +0.056 A 
ATOM      6  C   UNL     1       2.074  -3.442   1.622  0.00  0.00    +0.025 A 
ATOM      7  C   UNL     1       2.943  -4.501   1.807  0.00  0.00    +0.002 A 
ATOM      8  C   UNL     1       2.834  -5.303   2.929  0.00  0.00    +0.002 A 
ATOM      9  C   UNL     1       1.855  -5.050   3.871  0.00  0.00    +0.026 A 
ATOM     10  C   UNL     1       0.982  -3.986   3.696  0.00  0.00    +0.069 A 
BRANCH  10  11
ATOM     11  N   UNL     1      -0.006  -3.725   4.652  0.00  0.00    -0.219 N 
ATOM     12  H   UNL     1      -0.836  -3.299   4.387  0.00  0.00    +0.173 HD
BRANCH  11  13
ATOM     13  S   UNL     1       0.242  -4.144   6.235  0.00  0.00    +0.040 S 
ATOM     14  O   UNL     1      -0.770  -3.453   6.955  0.00  0.00    -0.155 OA
ATOM     15  O   UNL     1       0.287  -5.564   6.231  0.00  0.00    -0.155 OA
ATOM     16  C   UNL     1       1.874  -3.467   6.646  0.00  0.00    +0.218 C 
ENDBRANCH  11  13
ENDBRANCH  10  11
ENDBRANCH   3   5
BRANCH   1  19
ATOM     17  C   UNL     1      -2.692   0.384  -0.545  0.00  0.00    +0.040 C 
ATOM     18  C   UNL     1      -1.305  -0.147  -0.288  0.00  0.00    -0.062 C 
ATOM     19  C   UNL     1      -0.947  -0.505   0.942  0.00  0.00    +0.067 C 
BRANCH  18  20
ATOM     20  C   UNL     1      -0.324  -0.272  -1.425  0.00  0.00    -0.007 C 
ATOM     21  C   UNL     1      -0.654   0.766  -2.500  0.00  0.00    +0.014 C 
ATOM     22  C   UNL     1       0.342   0.639  -3.654  0.00  0.00    -0.010 C 
ATOM     23  C   UNL     1       0.250  -0.765  -4.256  0.00  0.00    +0.007 C 
ATOM     24  C   UNL     1       0.579  -1.803  -3.181  0.00  0.00    -0.010 C 
ATOM     25  C   UNL     1      -0.417  -1.676  -2.027  0.00  0.00    +0.014 C 
ATOM     26  C   UNL     1       1.998  -1.564  -2.660  0.00  0.00    +0.007 C 
ATOM     27  C   UNL     1       2.090  -0.161  -2.058  0.00  0.00    -0.010 C 
ATOM     28  C   UNL     1       1.761   0.877  -3.133  0.00  0.00    +0.007 C 
ATOM     29  C   UNL     1       1.094  -0.034  -0.904  0.00  0.00    +0.014 C 
ENDBRANCH  18  20
ENDBRANCH   1  19
TORSDOF 5
