REMARK  Name = ZINC09542640
REMARK  10 active torsions:
REMARK  status: ('A' for Active; 'I' for Inactive)
REMARK    1  A    between atoms: C_1  and  C_2
REMARK    2  A    between atoms: C_2  and  O_3
REMARK    3  A    between atoms: O_3  and  C_4
REMARK    4  A    between atoms: C_8  and  C_11
REMARK    5  A    between atoms: C_9  and  O_10
REMARK    6  A    between atoms: C_14  and  C_28
REMARK    7  A    between atoms: C_16  and  C_18
REMARK    8  A    between atoms: C_21  and  C_24
REMARK    9  A    between atoms: C_24  and  O_26
REMARK   10  A    between atoms: O_26  and  C_27
REMARK                            x       y       z     vdW  Elec       q    Type
REMARK                         _______ _______ _______ _____ _____    ______ ____
ROOT
ATOM      1  C   UNL     1      -0.777   1.529  -1.137  0.00  0.00    -0.028 C 
ATOM      2  C   UNL     1      -0.991   3.030  -0.922  0.00  0.00    +0.044 C 
ATOM      3  C   UNL     1       0.312   3.670  -0.528  0.00  0.00    +0.040 C 
ATOM      4  N   UNL     1       1.325   3.002  -0.123  0.00  0.00    -0.299 NA
ATOM      5  C   UNL     1       1.351   1.549  -0.003  0.00  0.00    +0.081 C 
ATOM      6  N   UNL     1      -0.013   1.002   0.011  0.00  0.00    +0.401 N 
ATOM      7  H   UNL     1       0.030  -0.022  -0.050  0.00  0.00    -0.081 HD
ATOM      8  H   UNL     1      -0.480   1.273   0.884  0.00  0.00    -0.081 HD
ENDROOT
BRANCH   3   9
ATOM      9  C   UNL     1       0.427   5.140  -0.612  0.00  0.00    -0.003 A 
ATOM     10  C   UNL     1       1.620   5.771  -0.254  0.00  0.00    +0.010 A 
ATOM     11  C   UNL     1       1.721   7.144  -0.334  0.00  0.00    +0.002 A 
ATOM     12  C   UNL     1       0.644   7.897  -0.768  0.00  0.00    +0.015 A 
ATOM     13  C   UNL     1      -0.542   7.278  -1.125  0.00  0.00    +0.018 A 
ATOM     14  C   UNL     1      -0.655   5.904  -1.054  0.00  0.00    +0.025 A 
ATOM     15 BR   UNL     1      -2.007   8.316  -1.718  0.00  0.00    -0.050 Br
ENDBRANCH   3   9
BRANCH   1  20
ATOM     16  C   UNL     1      -4.007   0.103  -2.502  0.00  0.00    +0.162 A 
ATOM     17  C   UNL     1      -4.563  -0.451  -1.360  0.00  0.00    +0.049 A 
ATOM     18  C   UNL     1      -3.894  -0.363  -0.153  0.00  0.00    +0.004 A 
ATOM     19  C   UNL     1      -2.669   0.273  -0.084  0.00  0.00    +0.006 A 
ATOM     20  C   UNL     1      -2.111   0.832  -1.218  0.00  0.00    -0.016 A 
ATOM     21  C   UNL     1      -2.776   0.748  -2.431  0.00  0.00    +0.160 A 
BRANCH  21  22
ATOM     22  O   UNL     1      -2.226   1.294  -3.549  0.00  0.00    -0.503 OA
ATOM     23  H   UNL     1      -1.658   0.688  -4.043  0.00  0.00    +0.292 HD
ENDBRANCH  21  22
BRANCH  16  24
ATOM     24  O   UNL     1      -4.664   0.018  -3.690  0.00  0.00    -0.489 OA
BRANCH  24  26
ATOM     25  C   UNL     1      -6.506  -0.653  -5.103  0.00  0.00    +0.048 C 
ATOM     26  C   UNL     1      -5.923  -0.658  -3.688  0.00  0.00    +0.226 C 
ENDBRANCH  24  26
ENDBRANCH  16  24
ENDBRANCH   1  20
BRANCH   5  27
ATOM     27  C   UNL     1       2.047   1.171   1.280  0.00  0.00    -0.040 A 
ATOM     28  C   UNL     1       1.705  -0.003   1.928  0.00  0.00    +0.004 A 
ATOM     29  C   UNL     1       2.342  -0.358   3.099  0.00  0.00    +0.015 A 
ATOM     30  C   UNL     1       3.324   0.476   3.636  0.00  0.00    +0.059 A 
ATOM     31  C   UNL     1       3.660   1.662   2.980  0.00  0.00    +0.015 A 
ATOM     32  C   UNL     1       3.020   2.002   1.807  0.00  0.00    +0.004 A 
BRANCH  30  33
ATOM     33  C   UNL     1       4.005   0.105   4.894  0.00  0.00    +0.339 C 
ATOM     34  O   UNL     1       4.859   0.833   5.359  0.00  0.00    -0.245 OA
BRANCH  33  35
ATOM     35  O   UNL     1       3.679  -1.040   5.525  0.00  0.00    -0.464 OA
ATOM     36  C   UNL     1       4.389  -1.339   6.755  0.00  0.00    +0.280 C 
ENDBRANCH  33  35
ENDBRANCH  30  33
ENDBRANCH   5  27
TORSDOF 8
