REMARK  Name = ZINC18197431
REMARK  4 active torsions:
REMARK  status: ('A' for Active; 'I' for Inactive)
REMARK    1  A    between atoms: C_1  and  C_2
REMARK    2  A    between atoms: C_2  and  C_30
REMARK    3  A    between atoms: C_6  and  C_18
REMARK    4  A    between atoms: C_23  and  N_24
REMARK                            x       y       z     vdW  Elec       q    Type
REMARK                         _______ _______ _______ _____ _____    ______ ____
ROOT
ATOM      1  C   UNL     1      -0.929   5.938  -0.144  0.00  0.00    +0.011 C 
ATOM      2  C   UNL     1      -0.915   5.714  -1.657  0.00  0.00    -0.023 C 
ATOM      3  C   UNL     1      -1.326   4.274  -1.969  0.00  0.00    +0.058 C 
ATOM      4  C   UNL     1      -0.340   3.317  -1.345  0.00  0.00    +0.016 C 
ATOM      5  C   UNL     1       0.960   3.656  -1.196  0.00  0.00    +0.024 C 
ATOM      6  C   UNL     1       1.958   2.699  -0.597  0.00  0.00    +0.088 C 
ATOM      7  C   UNL     1       1.280   1.601   0.171  0.00  0.00    -0.011 A 
ATOM      8  C   UNL     1       2.004   0.849   1.080  0.00  0.00    +0.056 A 
ATOM      9  C   UNL     1       1.391  -0.171   1.787  0.00  0.00    +0.167 A 
ATOM     10  C   UNL     1       0.039  -0.442   1.587  0.00  0.00    +0.168 A 
ATOM     11  C   UNL     1      -0.688   0.312   0.682  0.00  0.00    +0.073 A 
ATOM     12  C   UNL     1      -0.067   1.334  -0.026  0.00  0.00    +0.039 A 
ATOM     13  N   UNL     1      -0.797   2.096  -0.940  0.00  0.00    -0.317 N 
ATOM     14  O   UNL     1      -0.321  -1.483   2.393  0.00  0.00    -0.453 OA
ATOM     15  C   UNL     1       0.718  -1.580   3.385  0.00  0.00    +0.466 C 
ATOM     16  O   UNL     1       1.877  -1.043   2.720  0.00  0.00    -0.453 OA
ATOM     17  C   UNL     1       1.425   4.920  -1.595  0.00  0.00    +0.162 C 
ATOM     18  O   UNL     1       2.601   5.195  -1.450  0.00  0.00    -0.292 OA
ATOM     19  C   UNL     1       0.501   5.941  -2.199  0.00  0.00    +0.086 C 
ATOM     20  C   UNL     1      -1.885   6.686  -2.331  0.00  0.00    +0.011 C 
ATOM     21  H   UNL     1      -1.635   1.756  -1.290  0.00  0.00    +0.152 HD
ENDROOT
BRANCH   6  22
ATOM     22  C   UNL     1       2.779   2.090  -1.704  0.00  0.00    -0.005 A 
ATOM     23  C   UNL     1       2.156   1.398  -2.726  0.00  0.00    +0.007 A 
ATOM     24  C   UNL     1       2.909   0.843  -3.744  0.00  0.00    +0.000 A 
ATOM     25  C   UNL     1       4.285   0.973  -3.735  0.00  0.00    +0.002 A 
ATOM     26  C   UNL     1       4.908   1.661  -2.711  0.00  0.00    +0.033 A 
ATOM     27  C   UNL     1       4.155   2.219  -1.695  0.00  0.00    +0.130 A 
BRANCH  27  28
ATOM     28  N   UNL     1       4.822   2.956  -0.598  0.00  0.00    +0.057 N 
ATOM     29  O   UNL     1       5.761   3.693  -0.842  0.00  0.00    -0.126 OA
ATOM     30  O   UNL     1       4.433   2.824   0.549  0.00  0.00    -0.126 OA
ENDBRANCH  27  28
ENDBRANCH   6  22
TORSDOF 2
