REMARK  Name = ZINC59461851
REMARK  7 active torsions:
REMARK  status: ('A' for Active; 'I' for Inactive)
REMARK    1  A    between atoms: C_1  and  C_2
REMARK    2  A    between atoms: C_3  and  C_20
REMARK    3  A    between atoms: C_9  and  C_12
REMARK    4  A    between atoms: C_20  and  C_22
REMARK    5  A    between atoms: C_20  and  C_29
REMARK    6  A    between atoms: C_29  and  C_31
REMARK    7  A    between atoms: C_29  and  C_33
REMARK                            x       y       z     vdW  Elec       q    Type
REMARK                         _______ _______ _______ _____ _____    ______ ____
ROOT
ATOM      1  C   UNL     1       0.128   1.113   0.014  0.00  0.00    +0.065 C 
ATOM      2  C   UNL     1      -0.649   1.573  -1.192  0.00  0.00    +0.039 A 
ATOM      3  C   UNL     1      -0.915   2.855  -1.517  0.00  0.00    +0.048 A 
ATOM      4  C   UNL     1      -1.665   2.858  -2.716  0.00  0.00    +0.277 A 
ATOM      5  N   UNL     1      -1.837   1.575  -3.093  0.00  0.00    -0.194 N 
ATOM      6  N   UNL     1      -1.198   0.763  -2.146  0.00  0.00    -0.292 N 
ATOM      7  C   UNL     1      -2.519   1.136  -4.220  0.00  0.00    +0.196 A 
ATOM      8  N   UNL     1      -2.728  -0.097  -4.643  0.00  0.00    -0.221 NA
ATOM      9  C   UNL     1      -3.409  -0.337  -5.753  0.00  0.00    +0.080 A 
ATOM     10  C   UNL     1      -3.905   0.713  -6.476  0.00  0.00    +0.077 A 
ATOM     11  S   UNL     1      -3.354   2.091  -5.479  0.00  0.00    -0.056 S 
ATOM     12  O   UNL     1      -2.080   3.841  -3.302  0.00  0.00    -0.265 OA
ATOM     13  H   UNL     1      -1.154  -0.205  -2.163  0.00  0.00    +0.187 HD
ENDROOT
BRANCH   9  14
ATOM     14  C   UNL     1      -3.632  -1.730  -6.209  0.00  0.00    +0.001 A 
ATOM     15  C   UNL     1      -4.343  -1.978  -7.382  0.00  0.00    +0.011 A 
ATOM     16  C   UNL     1      -4.547  -3.276  -7.801  0.00  0.00    +0.020 A 
ATOM     17  C   UNL     1      -4.046  -4.333  -7.060  0.00  0.00    +0.041 A 
ATOM     18  C   UNL     1      -3.339  -4.092  -5.894  0.00  0.00    +0.020 A 
ATOM     19  C   UNL     1      -3.125  -2.797  -5.469  0.00  0.00    +0.011 A 
ATOM     20 CL   UNL     1      -4.306  -5.964  -7.593  0.00  0.00    -0.084 Cl
ENDBRANCH   9  14
BRANCH   3  21
ATOM     21  C   UNL     1      -0.489   4.072  -0.737  0.00  0.00    +0.082 C 
BRANCH  21  22
ATOM     22  C   UNL     1       0.527   4.849  -1.534  0.00  0.00    -0.038 A 
ATOM     23  C   UNL     1       0.152   5.473  -2.709  0.00  0.00    +0.006 A 
ATOM     24  C   UNL     1       1.083   6.186  -3.441  0.00  0.00    +0.020 A 
ATOM     25  C   UNL     1       2.390   6.276  -2.997  0.00  0.00    +0.041 A 
ATOM     26  C   UNL     1       2.765   5.651  -1.821  0.00  0.00    +0.020 A 
ATOM     27  C   UNL     1       1.831   4.943  -1.087  0.00  0.00    +0.006 A 
ATOM     28 CL   UNL     1       3.560   7.170  -3.916  0.00  0.00    -0.084 Cl
ENDBRANCH  21  22
BRANCH  21  29
ATOM     29  C   UNL     1      -1.708   4.956  -0.464  0.00  0.00    +0.189 C 
BRANCH  29  30
ATOM     30  C   UNL     1      -1.282   6.173   0.316  0.00  0.00    +0.228 C 
ATOM     31  O   UNL     1      -1.756   6.388   1.411  0.00  0.00    -0.275 OA
ATOM     32  N   UNL     1      -0.373   7.022  -0.204  0.00  0.00    -0.328 N 
ATOM     33  H   UNL     1       0.006   6.850  -1.080  0.00  0.00    +0.145 HD
ATOM     34  H   UNL     1      -0.099   7.806   0.298  0.00  0.00    +0.145 HD
ENDBRANCH  29  30
BRANCH  29  35
ATOM     35  C   UNL     1      -2.700   4.197   0.314  0.00  0.00    +0.076 C 
ATOM     36  N   UNL     1      -3.465   3.611   0.915  0.00  0.00    -0.196 NA
ENDBRANCH  29  35
ENDBRANCH  21  29
ENDBRANCH   3  21
TORSDOF 6
