REMARK  Name = ZINC52840317
REMARK  4 active torsions:
REMARK  status: ('A' for Active; 'I' for Inactive)
REMARK    1  A    between atoms: C_3  and  N_11
REMARK    2  A    between atoms: C_4  and  N_10
REMARK    3  A    between atoms: C_6  and  N_7
REMARK    4  A    between atoms: N_11  and  C_12
REMARK                            x       y       z     vdW  Elec       q    Type
REMARK                         _______ _______ _______ _____ _____    ______ ____
ROOT
ATOM      1  C   UNL     1      -0.042   1.509  -0.068  0.00  0.00    +0.034 A 
ATOM      2  C   UNL     1       1.171   2.158   0.081  0.00  0.00    +0.027 A 
ATOM      3  C   UNL     1       2.354   1.481  -0.171  0.00  0.00    +0.052 A 
ATOM      4  C   UNL     1       2.318   0.145  -0.574  0.00  0.00    +0.048 A 
ATOM      5  C   UNL     1       1.098  -0.497  -0.720  0.00  0.00    +0.057 A 
ATOM      6  C   UNL     1      -0.078   0.186  -0.467  0.00  0.00    +0.128 A 
ENDROOT
BRANCH   6   7
ATOM      7  N   UNL     1      -1.379  -0.502  -0.624  0.00  0.00    +0.056 N 
ATOM      8  O   UNL     1      -2.408   0.093  -0.403  0.00  0.00    -0.126 OA
ATOM      9  O   UNL     1      -1.413  -1.659  -0.973  0.00  0.00    -0.126 OA
ENDBRANCH   6   7
BRANCH   4  10
ATOM     10  N   UNL     1       3.509  -0.544  -0.830  0.00  0.00    -0.356 N 
ATOM     11  H   UNL     1       4.362  -0.093  -0.727  0.00  0.00    +0.142 HD
ATOM     12  H   UNL     1       3.482  -1.472  -1.110  0.00  0.00    +0.142 HD
ENDBRANCH   4  10
BRANCH   3  13
ATOM     13  N   UNL     1       3.583   2.135  -0.021  0.00  0.00    -0.311 N 
ATOM     14  H   UNL     1       4.405   1.689  -0.277  0.00  0.00    +0.152 HD
BRANCH  13  15
ATOM     15  C   UNL     1       3.625   3.434   0.497  0.00  0.00    +0.067 A 
ATOM     16  C   UNL     1       2.843   3.771   1.594  0.00  0.00    +0.027 A 
ATOM     17  C   UNL     1       2.886   5.054   2.104  0.00  0.00    +0.017 A 
ATOM     18  C   UNL     1       3.708   6.004   1.523  0.00  0.00    +0.021 A 
ATOM     19  C   UNL     1       4.489   5.673   0.430  0.00  0.00    +0.055 A 
ATOM     20  C   UNL     1       4.454   4.389  -0.082  0.00  0.00    +0.145 A 
ATOM     21  F   UNL     1       5.221   4.064  -1.146  0.00  0.00    -0.204 F 
ATOM     22 BR   UNL     1       3.763   7.759   2.225  0.00  0.00    -0.050 Br
ENDBRANCH  13  15
ENDBRANCH   3  13
TORSDOF 4
