REMARK  Name = ZINC36154692
REMARK  12 active torsions:
REMARK  status: ('A' for Active; 'I' for Inactive)
REMARK    1  A    between atoms: C_1  and  C_2
REMARK    2  A    between atoms: C_2  and  C_3
REMARK    3  A    between atoms: C_3  and  N_4
REMARK    4  A    between atoms: N_4  and  C_5
REMARK    5  A    between atoms: N_4  and  C_12
REMARK    6  A    between atoms: C_5  and  C_6
REMARK    7  A    between atoms: N_10  and  C_11
REMARK    8  A    between atoms: C_12  and  C_13
REMARK    9  A    between atoms: C_16  and  C_18
REMARK   10  A    between atoms: C_18  and  C_19
REMARK   11  A    between atoms: C_18  and  C_26
REMARK   12  A    between atoms: C_18  and  O_33
REMARK                            x       y       z     vdW  Elec       q    Type
REMARK                         _______ _______ _______ _____ _____    ______ ____
ROOT
ATOM      1  C   UNL     1      -1.838  -0.918  -0.045  0.00  0.00    +0.089 A 
ATOM      2  C   UNL     1      -2.587   0.130   0.343  0.00  0.00    +0.043 A 
ATOM      3  C   UNL     1      -2.947  -0.101   1.690  0.00  0.00    +0.048 A 
ATOM      4  C   UNL     1      -2.398  -1.276   2.045  0.00  0.00    +0.146 A 
ATOM      5  O   UNL     1      -1.732  -1.769   0.988  0.00  0.00    -0.463 OA
ENDROOT
BRANCH   1   6
ATOM      6  C   UNL     1      -1.227  -1.107  -1.410  0.00  0.00    -0.003 C 
BRANCH   6   7
ATOM      7  N   UNL     1       0.054  -0.391  -1.477  0.00  0.00    +0.388 N 
ATOM      8  H   UNL     1      -0.087   0.575  -1.219  0.00  0.00    -0.081 HD
BRANCH   7   9
ATOM      9  C   UNL     1       0.583  -0.460  -2.845  0.00  0.00    -0.078 C 
BRANCH   9  11
ATOM     10  C   UNL     1       0.242   0.308  -5.198  0.00  0.00    +0.002 C 
ATOM     11  C   UNL     1      -0.376   0.255  -3.799  0.00  0.00    -0.022 C 
ENDBRANCH   9  11
ENDBRANCH   7   9
BRANCH   7  12
ATOM     12  C   UNL     1       1.010  -1.010  -0.550  0.00  0.00    -0.024 C 
BRANCH  12  13
ATOM     13  C   UNL     1       2.283  -0.203  -0.527  0.00  0.00    +0.002 A 
ATOM     14  C   UNL     1       2.592   0.760   0.365  0.00  0.00    +0.021 A 
ATOM     15  C   UNL     1       3.867   1.255   0.026  0.00  0.00    +0.019 A 
ATOM     16  C   UNL     1       4.287   0.577  -1.061  0.00  0.00    +0.085 A 
ATOM     17  N   UNL     1       3.322  -0.323  -1.402  0.00  0.00    -0.355 N 
ATOM     18  C   UNL     1       3.388  -1.262  -2.524  0.00  0.00    +0.148 C 
ENDBRANCH  12  13
ENDBRANCH   7  12
ENDBRANCH   6   7
ENDBRANCH   1   6
BRANCH   4  19
ATOM     19  C   UNL     1      -2.514  -1.932   3.397  0.00  0.00    +0.174 C 
BRANCH  19  20
ATOM     20  C   UNL     1      -2.451  -3.429   3.237  0.00  0.00    -0.002 A 
ATOM     21  C   UNL     1      -3.567  -4.200   3.503  0.00  0.00    +0.007 A 
ATOM     22  C   UNL     1      -3.510  -5.574   3.357  0.00  0.00    +0.003 A 
ATOM     23  C   UNL     1      -2.337  -6.177   2.944  0.00  0.00    +0.038 A 
ATOM     24  C   UNL     1      -1.219  -5.406   2.678  0.00  0.00    +0.124 A 
ATOM     25  C   UNL     1      -1.278  -4.029   2.819  0.00  0.00    +0.045 A 
ATOM     26  F   UNL     1      -0.071  -5.995   2.275  0.00  0.00    -0.205 F 
ENDBRANCH  19  20
BRANCH  19  27
ATOM     27  C   UNL     1      -1.381  -1.472   4.277  0.00  0.00    -0.002 A 
ATOM     28  C   UNL     1      -0.109  -1.335   3.752  0.00  0.00    +0.007 A 
ATOM     29  C   UNL     1       0.931  -0.914   4.558  0.00  0.00    +0.003 A 
ATOM     30  C   UNL     1       0.702  -0.629   5.891  0.00  0.00    +0.038 A 
ATOM     31  C   UNL     1      -0.571  -0.766   6.418  0.00  0.00    +0.124 A 
ATOM     32  C   UNL     1      -1.613  -1.182   5.608  0.00  0.00    +0.045 A 
ATOM     33  F   UNL     1      -0.796  -0.488   7.721  0.00  0.00    -0.205 F 
ENDBRANCH  19  27
BRANCH  19  34
ATOM     34  O   UNL     1      -3.760  -1.569   3.996  0.00  0.00    -0.372 OA
ATOM     35  H   UNL     1      -3.870  -0.618   4.130  0.00  0.00    +0.212 HD
ENDBRANCH  19  34
ENDBRANCH   4  19
TORSDOF 10
