REMARK  Name = ZINC06511198
REMARK  19 active torsions:
REMARK  status: ('A' for Active; 'I' for Inactive)
REMARK    1  A    between atoms: C_1  and  C_2
REMARK    2  A    between atoms: C_2  and  N_76
REMARK    3  A    between atoms: C_3  and  C_4
REMARK    4  A    between atoms: C_3  and  N_76
REMARK    5  A    between atoms: C_5  and  C_6
REMARK    6  A    between atoms: C_5  and  N_76
REMARK    7  A    between atoms: C_6  and  C_7
REMARK    8  A    between atoms: C_7  and  N_8
REMARK    9  A    between atoms: N_8  and  C_9
REMARK   10  A    between atoms: C_9  and  C_11
REMARK   11  A    between atoms: C_9  and  C_18
REMARK   12  A    between atoms: N_20  and  C_21
REMARK   13  A    between atoms: C_21  and  C_22
REMARK   14  A    between atoms: C_21  and  C_23
REMARK   15  A    between atoms: C_21  and  C_24
REMARK   16  A    between atoms: C_25  and  C_27
REMARK   17  A    between atoms: C_27  and  N_28
REMARK   18  A    between atoms: C_30  and  C_33
REMARK   19  A    between atoms: C_36  and  C_38
REMARK                            x       y       z     vdW  Elec       q    Type
REMARK                         _______ _______ _______ _____ _____    ______ ____
ROOT
ATOM      1  N   UNL     1       0.440   1.020  -1.701  0.00  0.00    -0.284 N 
ATOM      2  C   UNL     1       0.287  -0.182  -2.291  0.00  0.00    +0.240 C 
ATOM      3  O   UNL     1       1.039  -0.521  -3.180  0.00  0.00    -0.273 OA
ENDROOT
BRANCH   1   4
ATOM      4  C   UNL     1       1.514   1.917  -2.134  0.00  0.00    +0.107 C 
BRANCH   4   5
ATOM      5  C   UNL     1       1.081   2.657  -3.402  0.00  0.00    +0.000 C 
BRANCH   5   6
ATOM      6  C   UNL     1       2.185   3.625  -3.830  0.00  0.00    -0.077 C 
BRANCH   6   7
ATOM      7  N   UNL     1       1.761   4.315  -5.066  0.00  0.00    +0.379 N 
ATOM      8  H   UNL     1       1.469   3.614  -5.756  0.00  0.00    -0.082 HD
BRANCH   7  10
ATOM      9  C   UNL     1       1.039   6.318  -3.809  0.00  0.00    -0.017 C 
ATOM     10  C   UNL     1       0.621   5.211  -4.779  0.00  0.00    -0.082 C 
ENDBRANCH   7  10
BRANCH   7  11
ATOM     11  C   UNL     1       2.888   5.094  -5.622  0.00  0.00    -0.082 C 
ATOM     12  C   UNL     1       2.552   5.486  -7.062  0.00  0.00    -0.017 C 
ENDBRANCH   7  11
ENDBRANCH   6   7
ENDBRANCH   5   6
ENDBRANCH   4   5
ENDBRANCH   1   4
BRANCH   1  13
ATOM     13  C   UNL     1      -0.472   1.432  -0.631  0.00  0.00    +0.192 C 
BRANCH  13  14
ATOM     14  C   UNL     1       0.170   1.166   0.706  0.00  0.00    -0.018 A 
ATOM     15  C   UNL     1       1.488   1.521   0.922  0.00  0.00    +0.009 A 
ATOM     16  C   UNL     1       2.076   1.283   2.150  0.00  0.00    +0.038 A 
ATOM     17  C   UNL     1       1.348   0.678   3.160  0.00  0.00    +0.123 A 
ATOM     18  C   UNL     1       0.029   0.318   2.941  0.00  0.00    +0.038 A 
ATOM     19  C   UNL     1      -0.558   0.563   1.714  0.00  0.00    +0.009 A 
ATOM     20  F   UNL     1       1.924   0.439   4.359  0.00  0.00    -0.205 F 
ENDBRANCH  13  14
BRANCH  13  21
ATOM     21  C   UNL     1      -0.768   2.904  -0.763  0.00  0.00    +0.238 C 
ATOM     22  O   UNL     1       0.143   3.702  -0.829  0.00  0.00    -0.273 OA
ATOM     23  N   UNL     1      -2.045   3.333  -0.807  0.00  0.00    -0.309 N 
ATOM     24  H   UNL     1      -2.773   2.695  -0.754  0.00  0.00    +0.149 HD
BRANCH  23  25
ATOM     25  C   UNL     1      -2.333   4.764  -0.934  0.00  0.00    +0.026 C 
ATOM     26  C   UNL     1      -1.720   5.294  -2.232  0.00  0.00    +0.031 C 
ATOM     27  C   UNL     1      -3.847   4.979  -0.961  0.00  0.00    +0.031 C 
ATOM     28  C   UNL     1      -1.732   5.513   0.257  0.00  0.00    +0.031 C 
ENDBRANCH  23  25
ENDBRANCH  13  21
ENDBRANCH   1  13
BRANCH   2  29
ATOM     29  C   UNL     1      -0.818  -1.105  -1.845  0.00  0.00    +0.264 C 
BRANCH  29  30
ATOM     30  N   UNL     1      -0.772  -2.338  -2.635  0.00  0.00    -0.154 N 
ATOM     31  N   UNL     1      -1.398  -2.537  -3.743  0.00  0.00    -0.127 NA
ATOM     32  C   UNL     1      -1.111  -3.758  -4.155  0.00  0.00    +0.239 A 
ATOM     33  N   UNL     1      -0.288  -4.289  -3.237  0.00  0.00    -0.105 NA
ATOM     34  N   UNL     1      -0.104  -3.395  -2.326  0.00  0.00    -0.045 NA
BRANCH  32  35
ATOM     35  C   UNL     1      -1.604  -4.415  -5.385  0.00  0.00    +0.175 A 
ATOM     36  C   UNL     1      -1.298  -5.674  -5.795  0.00  0.00    +0.053 A 
ATOM     37  C   UNL     1      -1.985  -5.885  -7.007  0.00  0.00    +0.045 A 
ATOM     38  C   UNL     1      -2.662  -4.753  -7.279  0.00  0.00    +0.103 A 
ATOM     39  O   UNL     1      -2.430  -3.866  -6.297  0.00  0.00    -0.457 OA
ATOM     40  C   UNL     1      -3.535  -4.519  -8.485  0.00  0.00    +0.086 C 
ENDBRANCH  32  35
ENDBRANCH  29  30
ENDBRANCH   2  29
TORSDOF 13
