REMARK  Name = ZINC51733437
REMARK  7 active torsions:
REMARK  status: ('A' for Active; 'I' for Inactive)
REMARK    1  A    between atoms: C_1  and  C_2
REMARK    2  A    between atoms: N_6  and  C_11
REMARK    3  A    between atoms: C_7  and  C_10
REMARK    4  A    between atoms: C_14  and  C_20
REMARK    5  A    between atoms: C_16  and  N_17
REMARK    6  A    between atoms: C_20  and  C_22
REMARK    7  A    between atoms: C_20  and  O_23
REMARK                            x       y       z     vdW  Elec       q    Type
REMARK                         _______ _______ _______ _____ _____    ______ ____
ROOT
ATOM      1  C   UNL     1      -1.080  -3.494   1.980  0.00  0.00    +0.061 A 
ATOM      2  C   UNL     1      -1.641  -3.073   3.179  0.00  0.00    +0.026 A 
ATOM      3  C   UNL     1      -2.135  -4.003   4.073  0.00  0.00    +0.008 A 
ATOM      4  C   UNL     1      -2.071  -5.352   3.775  0.00  0.00    -0.017 A 
ATOM      5  C   UNL     1      -1.513  -5.774   2.583  0.00  0.00    +0.040 A 
ATOM      6  C   UNL     1      -1.023  -4.849   1.682  0.00  0.00    +0.147 A 
ENDROOT
BRANCH   1  11
ATOM      7  C   UNL     1       0.106   1.524   0.078  0.00  0.00    +0.007 C 
ATOM      8  C   UNL     1       0.060  -0.005   0.033  0.00  0.00    -0.011 C 
ATOM      9  C   UNL     1      -1.396  -0.473   0.099  0.00  0.00    +0.022 C 
ATOM     10  C   UNL     1      -1.440  -2.002   0.019  0.00  0.00    +0.106 C 
ATOM     11  N   UNL     1      -0.581  -2.556   1.074  0.00  0.00    -0.325 N 
ATOM     12  C   UNL     1       0.815  -2.104   1.158  0.00  0.00    +0.071 C 
ATOM     13  C   UNL     1       0.834  -0.573   1.225  0.00  0.00    +0.025 C 
ATOM     14  C   UNL     1       1.467  -2.683   2.415  0.00  0.00    +0.028 C 
ENDBRANCH   1  11
BRANCH   6  15
ATOM     15  N   UNL     1      -0.431  -5.302   0.403  0.00  0.00    +0.058 N 
ATOM     16  O   UNL     1      -0.464  -6.472   0.102  0.00  0.00    -0.126 OA
ATOM     17  O   UNL     1       0.085  -4.501  -0.341  0.00  0.00    -0.126 OA
ENDBRANCH   6  15
BRANCH   4  18
ATOM     18  C   UNL     1      -2.611  -6.364   4.752  0.00  0.00    +0.141 C 
ATOM     19  C   UNL     1      -1.585  -6.599   5.862  0.00  0.00    +0.043 C 
BRANCH  18  20
ATOM     20  O   UNL     1      -3.826  -5.874   5.323  0.00  0.00    -0.387 OA
ATOM     21  H   UNL     1      -4.231  -6.475   5.963  0.00  0.00    +0.210 HD
ENDBRANCH  18  20
ENDBRANCH   4  18
TORSDOF 4
