REMARK  Name = ZINC00446811
REMARK  3 active torsions:
REMARK  status: ('A' for Active; 'I' for Inactive)
REMARK    1  A    between atoms: C_4  and  N_7
REMARK    2  A    between atoms: C_11  and  C_12
REMARK    3  A    between atoms: C_15  and  C_17
REMARK                            x       y       z     vdW  Elec       q    Type
REMARK                         _______ _______ _______ _____ _____    ______ ____
ROOT
ATOM      1  N   UNL     1      -2.936  10.050   0.077  0.00  0.00    -0.184 N 
ATOM      2  C   UNL     1      -4.074   9.330   0.084  0.00  0.00    +0.272 C 
ATOM      3  O   UNL     1      -5.209   9.770   0.096  0.00  0.00    -0.268 OA
ATOM      4  C   UNL     1      -3.683   7.912   0.073  0.00  0.00    +0.105 C 
ATOM      5  C   UNL     1      -4.524   6.804   0.076  0.00  0.00    +0.064 C 
ATOM      6  C   UNL     1      -2.212   7.917   0.066  0.00  0.00    +0.266 C 
ATOM      7  O   UNL     1      -1.483   6.942   0.061  0.00  0.00    -0.268 OA
ATOM      8  N   UNL     1      -1.825   9.207   0.063  0.00  0.00    -0.223 N 
ATOM      9  H   UNL     1      -0.903   9.508   0.056  0.00  0.00    +0.174 HD
ENDROOT
BRANCH   1  13
ATOM     10  C   UNL     1      -2.759  14.212   0.096  0.00  0.00    +0.000 A 
ATOM     11  C   UNL     1      -1.591  13.472   0.081  0.00  0.00    +0.002 A 
ATOM     12  C   UNL     1      -1.646  12.092   0.075  0.00  0.00    +0.025 A 
ATOM     13  C   UNL     1      -2.877  11.447   0.083  0.00  0.00    +0.056 A 
ATOM     14  C   UNL     1      -4.048  12.194   0.092  0.00  0.00    +0.025 A 
ATOM     15  C   UNL     1      -3.986  13.573   0.105  0.00  0.00    +0.002 A 
ENDBRANCH   1  13
BRANCH   5  16
ATOM     16  C   UNL     1      -3.980   5.511   0.065  0.00  0.00    +0.129 A 
ATOM     17  C   UNL     1      -4.701   4.324   0.067  0.00  0.00    +0.050 A 
ATOM     18  C   UNL     1      -3.770   3.288   0.048  0.00  0.00    +0.050 A 
ATOM     19  C   UNL     1      -2.518   3.869   0.044  0.00  0.00    +0.136 A 
ATOM     20  O   UNL     1      -2.665   5.205   0.052  0.00  0.00    -0.455 OA
BRANCH  19  21
ATOM     21  C   UNL     1      -1.234   3.145   0.029  0.00  0.00    +0.017 A 
ATOM     22  C   UNL     1      -1.216   1.747   0.017  0.00  0.00    +0.014 A 
ATOM     23  C   UNL     1      -0.013   1.076   0.008  0.00  0.00    +0.039 A 
ATOM     24  C   UNL     1       1.179   1.784   0.000  0.00  0.00    +0.123 A 
ATOM     25  C   UNL     1       1.169   3.170   0.007  0.00  0.00    +0.039 A 
ATOM     26  C   UNL     1      -0.029   3.853   0.022  0.00  0.00    +0.014 A 
ATOM     27  F   UNL     1       2.356   1.120  -0.014  0.00  0.00    -0.205 F 
ENDBRANCH  19  21
ENDBRANCH   5  16
TORSDOF 3
