REMARK  Name = ZINC42008525
REMARK  8 active torsions:
REMARK  status: ('A' for Active; 'I' for Inactive)
REMARK    1  A    between atoms: C_1  and  C_2
REMARK    2  A    between atoms: C_2  and  C_3
REMARK    3  A    between atoms: C_3  and  C_4
REMARK    4  A    between atoms: C_3  and  C_6
REMARK    5  A    between atoms: C_3  and  S_9
REMARK    6  A    between atoms: C_4  and  C_5
REMARK    7  A    between atoms: S_9  and  C_10
REMARK    8  A    between atoms: C_13  and  N_17
REMARK                            x       y       z     vdW  Elec       q    Type
REMARK                         _______ _______ _______ _____ _____    ______ ____
ROOT
ATOM      1  C   UNL     1       0.284  -0.296  -4.032  0.00  0.00    +0.044 A 
ATOM      2  C   UNL     1       1.423  -1.089  -4.002  0.00  0.00    +0.019 A 
ATOM      3  C   UNL     1       2.040  -1.458  -5.182  0.00  0.00    +0.024 A 
ATOM      4  C   UNL     1       1.521  -1.036  -6.399  0.00  0.00    +0.027 A 
ATOM      5  C   UNL     1       0.382  -0.242  -6.431  0.00  0.00    +0.062 A 
ATOM      6  C   UNL     1      -0.240   0.122  -5.251  0.00  0.00    +0.138 A 
ATOM      7  F   UNL     1      -1.351   0.890  -5.281  0.00  0.00    -0.204 F 
ENDROOT
BRANCH   4   8
ATOM      8  N   UNL     1       2.147  -1.410  -7.594  0.00  0.00    -0.358 N 
ATOM      9  H   UNL     1       2.942  -1.964  -7.572  0.00  0.00    +0.142 HD
ATOM     10  H   UNL     1       1.784  -1.115  -8.444  0.00  0.00    +0.142 HD
ENDBRANCH   4   8
BRANCH   1  11
ATOM     11  S   UNL     1      -0.502   0.174  -2.527  0.00  0.00    -0.104 S 
BRANCH  11  12
ATOM     12  C   UNL     1       0.625  -0.424  -1.237  0.00  0.00    +0.121 C 
BRANCH  12  13
ATOM     13  C   UNL     1       0.752  -1.923  -1.338  0.00  0.00    +0.372 C 
ATOM     14  O   UNL     1       0.140  -2.530  -2.199  0.00  0.00    -0.245 OA
ATOM     15  O   UNL     1       1.468  -2.527  -0.557  0.00  0.00    -0.245 OA
ENDBRANCH  12  13
BRANCH  12  17
ATOM     16  C   UNL     1       0.051   1.473   0.284  0.00  0.00    +0.006 C 
ATOM     17  C   UNL     1       0.070  -0.050   0.139  0.00  0.00    +0.026 C 
ENDBRANCH  12  17
BRANCH  12  18
ATOM     18  C   UNL     1       2.001   0.218  -1.424  0.00  0.00    +0.026 C 
ATOM     19  C   UNL     1       2.966  -0.327  -0.369  0.00  0.00    +0.006 C 
ENDBRANCH  12  18
ENDBRANCH  11  12
ENDBRANCH   1  11
TORSDOF 6
