REMARK  Name = ZINC39666632
REMARK  9 active torsions:
REMARK  status: ('A' for Active; 'I' for Inactive)
REMARK    1  A    between atoms: C_1  and  C_2
REMARK    2  A    between atoms: C_3  and  C_8
REMARK    3  A    between atoms: C_4  and  C_7
REMARK    4  A    between atoms: C_12  and  C_21
REMARK    5  A    between atoms: N_23  and  C_24
REMARK    6  A    between atoms: C_24  and  C_25
REMARK    7  A    between atoms: C_25  and  C_27
REMARK    8  A    between atoms: C_25  and  O_28
REMARK    9  A    between atoms: O_28  and  C_29
REMARK                            x       y       z     vdW  Elec       q    Type
REMARK                         _______ _______ _______ _____ _____    ______ ____
ROOT
ATOM      1  C   UNL     1      -0.296  -0.949  -0.840  0.00  0.00    +0.252 C 
ATOM      2  O   UNL     1       0.789  -0.990  -1.387  0.00  0.00    -0.270 OA
ATOM      3  N   UNL     1      -1.422  -0.892  -1.579  0.00  0.00    -0.296 N 
ATOM      4  C   UNL     1      -2.822  -0.830  -1.097  0.00  0.00    +0.121 C 
ATOM      5  C   UNL     1      -3.522   0.158  -2.058  0.00  0.00    +0.100 C 
ATOM      6  C   UNL     1      -2.677   0.122  -3.342  0.00  0.00    -0.004 C 
ATOM      7  C   UNL     1      -1.539  -0.869  -3.056  0.00  0.00    +0.115 C 
ATOM      8  C   UNL     1      -2.103   1.505  -3.635  0.00  0.00    -0.010 C 
ATOM      9  C   UNL     1      -1.313   1.456  -4.947  0.00  0.00    -0.082 C 
ATOM     10  N   UNL     1      -2.199   1.031  -6.037  0.00  0.00    +0.379 N 
ATOM     11  C   UNL     1      -2.674  -0.336  -5.792  0.00  0.00    -0.082 C 
ATOM     12  C   UNL     1      -3.520  -0.364  -4.516  0.00  0.00    -0.010 C 
ATOM     13  H   UNL     1      -2.990   1.655  -6.090  0.00  0.00    -0.086 HD
ATOM     14  H   UNL     1      -1.693   1.058  -6.910  0.00  0.00    -0.086 HD
ENDROOT
BRANCH   1  17
ATOM     15  C   UNL     1      -0.290   1.647   1.095  0.00  0.00    +0.070 C 
ATOM     16  C   UNL     1      -0.379   0.203   1.517  0.00  0.00    +0.093 A 
ATOM     17  C   UNL     1      -0.381  -0.963   0.632  0.00  0.00    +0.101 A 
ATOM     18  C   UNL     1      -0.475  -2.066   1.432  0.00  0.00    +0.147 A 
ATOM     19  O   UNL     1      -0.529  -1.653   2.701  0.00  0.00    -0.359 OA
ATOM     20  N   UNL     1      -0.463  -0.242   2.736  0.00  0.00    -0.083 NA
ATOM     21  C   UNL     1      -0.512  -3.498   0.964  0.00  0.00    +0.090 C 
ENDBRANCH   1  17
BRANCH   5  22
ATOM     22  C   UNL     1      -3.529   1.546  -1.470  0.00  0.00    +0.218 C 
ATOM     23  O   UNL     1      -2.683   1.866  -0.662  0.00  0.00    -0.275 OA
ATOM     24  N   UNL     1      -4.476   2.430  -1.841  0.00  0.00    -0.312 N 
ATOM     25  H   UNL     1      -5.152   2.174  -2.487  0.00  0.00    +0.149 HD
BRANCH  24  26
ATOM     26  C   UNL     1      -4.482   3.779  -1.270  0.00  0.00    +0.148 C 
BRANCH  26  27
ATOM     27  C   UNL     1      -5.650   4.575  -1.855  0.00  0.00    +0.187 C 
ATOM     28  C   UNL     1      -5.585   6.019  -1.355  0.00  0.00    +0.053 C 
BRANCH  27  29
ATOM     29  O   UNL     1      -6.884   3.984  -1.443  0.00  0.00    -0.486 OA
BRANCH  29  30
ATOM     30  C   UNL     1      -7.966   4.194  -2.239  0.00  0.00    +0.139 A 
ATOM     31  C   UNL     1      -7.870   5.045  -3.330  0.00  0.00    +0.047 A 
ATOM     32  C   UNL     1      -8.971   5.256  -4.138  0.00  0.00    +0.004 A 
ATOM     33  C   UNL     1     -10.167   4.621  -3.860  0.00  0.00    +0.002 A 
ATOM     34  C   UNL     1     -10.266   3.773  -2.773  0.00  0.00    +0.023 A 
ATOM     35  C   UNL     1      -9.166   3.553  -1.964  0.00  0.00    +0.083 A 
ATOM     36 CL   UNL     1      -9.288   2.482  -0.604  0.00  0.00    -0.080 Cl
ENDBRANCH  29  30
ENDBRANCH  27  29
ENDBRANCH  26  27
ENDBRANCH  24  26
ENDBRANCH   5  22
TORSDOF 6
