REMARK  Name = ZINC41115959
REMARK  5 active torsions:
REMARK  status: ('A' for Active; 'I' for Inactive)
REMARK    1  A    between atoms: C_3  and  C_10
REMARK    2  A    between atoms: C_5  and  C_7
REMARK    3  A    between atoms: C_10  and  S_11
REMARK    4  A    between atoms: S_11  and  C_12
REMARK    5  A    between atoms: C_15  and  N_19
REMARK                            x       y       z     vdW  Elec       q    Type
REMARK                         _______ _______ _______ _____ _____    ______ ____
ROOT
ATOM      1  S   UNL     1       4.203   2.510   1.686  0.00  0.00    -0.118 S 
ENDROOT
BRANCH   1   2
ATOM      2  C   UNL     1       5.700   3.423   1.508  0.00  0.00    +0.043 A 
ATOM      3  C   UNL     1       6.177   3.735   0.242  0.00  0.00    +0.019 A 
ATOM      4  C   UNL     1       7.351   4.450   0.103  0.00  0.00    +0.024 A 
ATOM      5  C   UNL     1       8.053   4.859   1.229  0.00  0.00    +0.027 A 
ATOM      6  C   UNL     1       7.577   4.548   2.496  0.00  0.00    +0.062 A 
ATOM      7  C   UNL     1       6.400   3.837   2.637  0.00  0.00    +0.138 A 
ATOM      8  F   UNL     1       5.933   3.539   3.869  0.00  0.00    -0.204 F 
BRANCH   5   9
ATOM      9  N   UNL     1       9.242   5.584   1.087  0.00  0.00    -0.358 N 
ATOM     10  H   UNL     1       9.575   5.801   0.202  0.00  0.00    +0.142 HD
ATOM     11  H   UNL     1       9.734   5.870   1.873  0.00  0.00    +0.142 HD
ENDBRANCH   5   9
ENDBRANCH   1   2
BRANCH   1  12
ATOM     12  C   UNL     1       3.671   2.205  -0.021  0.00  0.00    +0.109 C 
BRANCH  12  15
ATOM     13  C   UNL     1      -0.017   1.375   0.010  0.00  0.00    +0.001 A 
ATOM     14  C   UNL     1       1.171   2.086   0.002  0.00  0.00    +0.004 A 
ATOM     15  C   UNL     1       2.384   1.421  -0.013  0.00  0.00    -0.036 A 
ATOM     16  C   UNL     1       2.418   0.042  -0.021  0.00  0.00    +0.019 A 
ATOM     17  C   UNL     1       1.224  -0.683  -0.014  0.00  0.00    +0.063 A 
ATOM     18  C   UNL     1       0.002  -0.004   0.002  0.00  0.00    +0.015 A 
BRANCH  17  19
ATOM     19  C   UNL     1       1.252  -2.158  -0.022  0.00  0.00    +0.387 C 
ATOM     20  O   UNL     1       2.322  -2.749  -0.036  0.00  0.00    -0.241 OA
ATOM     21  O   UNL     1       0.205  -2.789  -0.016  0.00  0.00    -0.241 OA
ENDBRANCH  17  19
ENDBRANCH  12  15
ENDBRANCH   1  12
TORSDOF 5
