REMARK  Name = ZINC36156644
REMARK  10 active torsions:
REMARK  status: ('A' for Active; 'I' for Inactive)
REMARK    1  A    between atoms: C_1  and  C_2
REMARK    2  A    between atoms: C_2  and  C_3
REMARK    3  A    between atoms: C_3  and  C_4
REMARK    4  A    between atoms: C_4  and  C_6
REMARK    5  A    between atoms: C_4  and  O_31
REMARK    6  A    between atoms: C_6  and  N_7
REMARK    7  A    between atoms: N_7  and  C_8
REMARK    8  A    between atoms: N_7  and  C_15
REMARK    9  A    between atoms: C_8  and  C_9
REMARK   10  A    between atoms: C_15  and  C_16
REMARK                            x       y       z     vdW  Elec       q    Type
REMARK                         _______ _______ _______ _____ _____    ______ ____
ROOT
ATOM      1  N   UNL     1       1.360  -3.988  -2.571  0.00  0.00    +0.389 N 
ATOM      2  H   UNL     1       1.739  -4.264  -1.677  0.00  0.00    -0.081 HD
ENDROOT
BRANCH   1   3
ATOM      3  C   UNL     1       1.348  -2.522  -2.666  0.00  0.00    -0.046 C 
BRANCH   3   4
ATOM      4  C   UNL     1       0.610  -1.939  -1.459  0.00  0.00    +0.098 C 
BRANCH   4   5
ATOM      5  O   UNL     1       1.279  -2.329  -0.258  0.00  0.00    -0.394 OA
ATOM      6  H   UNL     1       2.197  -2.029  -0.204  0.00  0.00    +0.210 HD
ENDBRANCH   4   5
BRANCH   4   7
ATOM      7  C   UNL     1       0.594  -0.412  -1.561  0.00  0.00    +0.029 C 
BRANCH   7   9
ATOM      8  C   UNL     1      -0.266   1.692  -0.523  0.00  0.00    +0.004 C 
ATOM      9  C   UNL     1      -0.249   0.166  -0.422  0.00  0.00    -0.001 C 
ENDBRANCH   7   9
ENDBRANCH   4   7
ENDBRANCH   3   4
ENDBRANCH   1   3
BRANCH   1  10
ATOM     10  C   UNL     1      -0.011  -4.498  -2.699  0.00  0.00    -0.042 C 
BRANCH  10  11
ATOM     11  C   UNL     1      -0.017  -5.987  -2.462  0.00  0.00    -0.064 A 
ATOM     12  C   UNL     1       0.045  -6.858  -3.534  0.00  0.00    +0.002 A 
ATOM     13  C   UNL     1       0.039  -8.223  -3.316  0.00  0.00    +0.000 A 
ATOM     14  C   UNL     1      -0.028  -8.717  -2.027  0.00  0.00    +0.000 A 
ATOM     15  C   UNL     1      -0.089  -7.846  -0.955  0.00  0.00    +0.000 A 
ATOM     16  C   UNL     1      -0.079  -6.481  -1.173  0.00  0.00    +0.002 A 
ENDBRANCH  10  11
ENDBRANCH   1  10
BRANCH   1  17
ATOM     17  C   UNL     1       2.192  -4.542  -3.648  0.00  0.00    -0.003 C 
BRANCH  17  18
ATOM     18  C   UNL     1       3.623  -4.117  -3.446  0.00  0.00    +0.094 A 
ATOM     19  N   UNL     1       4.569  -4.515  -4.335  0.00  0.00    -0.312 N 
ATOM     20  H   UNL     1       4.310  -5.068  -5.089  0.00  0.00    +0.170 HD
ATOM     21  C   UNL     1       5.859  -4.158  -4.193  0.00  0.00    +0.260 A 
ATOM     22  O   UNL     1       6.696  -4.523  -5.001  0.00  0.00    -0.267 OA
ATOM     23  C   UNL     1       6.232  -3.341  -3.076  0.00  0.00    +0.075 A 
ATOM     24  C   UNL     1       7.559  -2.838  -2.721  0.00  0.00    -0.023 A 
ATOM     25  C   UNL     1       7.649  -2.080  -1.608  0.00  0.00    -0.004 A 
ATOM     26  S   UNL     1       5.995  -1.994  -0.976  0.00  0.00    -0.073 S 
ATOM     27  C   UNL     1       5.187  -2.980  -2.212  0.00  0.00    +0.116 A 
ATOM     28  N   UNL     1       3.932  -3.368  -2.421  0.00  0.00    -0.229 NA
ATOM     29  C   UNL     1       8.882  -1.452  -1.035  0.00  0.00    +0.043 C 
ATOM     30  C   UNL     1      10.107  -2.101  -1.694  0.00  0.00    +0.005 C 
ATOM     31  C   UNL     1       9.890  -2.131  -3.210  0.00  0.00    +0.005 C 
ATOM     32  C   UNL     1       8.798  -3.143  -3.558  0.00  0.00    +0.037 C 
ENDBRANCH  17  18
ENDBRANCH   1  17
TORSDOF 9
