REMARK  Name = ZINC09366675
REMARK  6 active torsions:
REMARK  status: ('A' for Active; 'I' for Inactive)
REMARK    1  A    between atoms: C_1  and  C_2
REMARK    2  A    between atoms: C_2  and  C_4
REMARK    3  A    between atoms: C_2  and  S_14
REMARK    4  A    between atoms: N_6  and  C_7
REMARK    5  A    between atoms: N_6  and  C_8
REMARK    6  A    between atoms: S_14  and  C_15
REMARK                            x       y       z     vdW  Elec       q    Type
REMARK                         _______ _______ _______ _____ _____    ______ ____
ROOT
ATOM      1  S   UNL     1       7.332   0.405  -0.978  0.00  0.00    -0.073 S 
ENDROOT
BRANCH   1   2
ATOM      2  C   UNL     1       8.674  -0.724  -1.157  0.00  0.00    +0.195 A 
ATOM      3  N   UNL     1       8.529  -1.993  -0.786  0.00  0.00    -0.189 NA
ATOM      4  C   UNL     1       9.539  -2.845  -0.926  0.00  0.00    +0.218 A 
ATOM      5  N   UNL     1      10.698  -2.427  -1.427  0.00  0.00    -0.181 NA
ATOM      6  C   UNL     1      10.844  -1.157  -1.793  0.00  0.00    +0.218 A 
ATOM      7  N   UNL     1       9.832  -0.306  -1.658  0.00  0.00    -0.189 NA
ATOM      8  N   UNL     1      12.047  -0.723  -2.313  0.00  0.00    -0.327 N 
ATOM      9  N   UNL     1       9.388  -4.163  -0.545  0.00  0.00    -0.327 N 
ATOM     10  H   UNL     1      12.168   0.327  -2.616  0.00  0.00    +0.145 HD
ATOM     11  H   UNL     1      12.884  -1.428  -2.424  0.00  0.00    +0.145 HD
ATOM     12  H   UNL     1      10.224  -4.869  -0.661  0.00  0.00    +0.145 HD
ATOM     13  H   UNL     1       8.431  -4.508  -0.127  0.00  0.00    +0.145 HD
ENDBRANCH   1   2
BRANCH   1  15
ATOM     14  C   UNL     1       6.541  -1.175   1.105  0.00  0.00    +0.029 C 
ATOM     15  C   UNL     1       6.083  -0.701  -0.275  0.00  0.00    +0.137 C 
BRANCH  15  16
ATOM     16  C   UNL     1       4.776   0.037  -0.145  0.00  0.00    +0.233 C 
ATOM     17  O   UNL     1       4.761   1.250  -0.139  0.00  0.00    -0.274 OA
ATOM     18  N   UNL     1       3.622  -0.651  -0.036  0.00  0.00    -0.274 N 
ATOM     19  C   UNL     1       3.646  -2.113   0.051  0.00  0.00    +0.138 C 
BRANCH  18  20
ATOM     20  C   UNL     1       2.400   0.032  -0.007  0.00  0.00    +0.036 A 
ATOM     21  C   UNL     1       2.101   0.876   1.054  0.00  0.00    +0.023 A 
ATOM     22  C   UNL     1       0.895   1.549   1.081  0.00  0.00    +0.002 A 
ATOM     23  C   UNL     1      -0.014   1.382   0.052  0.00  0.00    +0.000 A 
ATOM     24  C   UNL     1       0.281   0.542  -1.006  0.00  0.00    +0.002 A 
ATOM     25  C   UNL     1       1.486  -0.134  -1.038  0.00  0.00    +0.023 A 
ENDBRANCH  18  20
ENDBRANCH  15  16
ENDBRANCH   1  15
TORSDOF 4
