REMARK  Name = ZINC20214182
REMARK  10 active torsions:
REMARK  status: ('A' for Active; 'I' for Inactive)
REMARK    1  A    between atoms: C_1  and  C_2
REMARK    2  A    between atoms: C_2  and  O_3
REMARK    3  A    between atoms: O_3  and  C_4
REMARK    4  A    between atoms: C_4  and  C_6
REMARK    5  A    between atoms: C_7  and  C_21
REMARK    6  A    between atoms: C_12  and  C_14
REMARK    7  A    between atoms: C_21  and  N_22
REMARK    8  A    between atoms: N_25  and  C_28
REMARK    9  A    between atoms: C_31  and  C_35
REMARK   10  A    between atoms: C_33  and  C_34
REMARK                            x       y       z     vdW  Elec       q    Type
REMARK                         _______ _______ _______ _____ _____    ______ ____
ROOT
ATOM      1  C   UNL     1       0.627  -7.228  -2.230  0.00  0.00    +0.079 C 
ATOM      2  C   UNL     1      -0.319  -6.736  -1.403  0.00  0.00    +0.038 C 
ATOM      3  N   UNL     1      -1.614  -6.600  -1.815  0.00  0.00    -0.271 N 
ATOM      4  C   UNL     1      -2.041  -6.923  -3.042  0.00  0.00    +0.304 C 
ATOM      5  O   UNL     1      -3.213  -6.762  -3.318  0.00  0.00    -0.252 OA
ATOM      6  N   UNL     1      -1.214  -7.427  -3.979  0.00  0.00    -0.288 N 
ATOM      7  C   UNL     1       0.205  -7.618  -3.632  0.00  0.00    +0.144 C 
ATOM      8  H   UNL     1      -2.373  -6.205  -1.123  0.00  0.00    +0.156 HD
ATOM      9  H   UNL     1      -1.575  -7.694  -4.983  0.00  0.00    +0.151 HD
ENDROOT
BRANCH   7  10
ATOM     10  C   UNL     1       1.032  -6.820  -4.606  0.00  0.00    -0.022 A 
ATOM     11  C   UNL     1       0.692  -5.510  -4.891  0.00  0.00    +0.007 A 
ATOM     12  C   UNL     1       1.453  -4.775  -5.779  0.00  0.00    +0.020 A 
ATOM     13  C   UNL     1       2.550  -5.354  -6.394  0.00  0.00    +0.041 A 
ATOM     14  C   UNL     1       2.886  -6.666  -6.113  0.00  0.00    +0.020 A 
ATOM     15  C   UNL     1       2.127  -7.398  -5.219  0.00  0.00    +0.007 A 
ATOM     16 CL   UNL     1       3.502  -4.434  -7.516  0.00  0.00    -0.084 Cl
ENDBRANCH   7  10
BRANCH   1  17
ATOM     17  C   UNL     1       1.968  -7.375  -1.803  0.00  0.00    +0.339 C 
ATOM     18  O   UNL     1       2.800  -6.542  -2.112  0.00  0.00    -0.245 OA
BRANCH  17  19
ATOM     19  O   UNL     1       2.325  -8.438  -1.053  0.00  0.00    -0.462 OA
BRANCH  19  21
ATOM     20  C   UNL     1       3.907  -9.785   0.180  0.00  0.00    +0.048 C 
ATOM     21  C   UNL     1       3.695  -8.523  -0.657  0.00  0.00    +0.229 C 
ENDBRANCH  19  21
ENDBRANCH  17  19
ENDBRANCH   1  17
BRANCH   2  22
ATOM     22  C   UNL     1       0.058  -6.335   0.000  0.00  0.00    +0.136 C 
BRANCH  22  23
ATOM     23  N   UNL     1      -0.134  -4.888   0.165  0.00  0.00    -0.294 NA
ATOM     24  C   UNL     1       0.443  -4.422   1.434  0.00  0.00    +0.103 C 
ATOM     25  C   UNL     1       0.153  -2.929   1.604  0.00  0.00    +0.120 C 
ATOM     26  N   UNL     1       0.719  -2.189   0.468  0.00  0.00    -0.327 N 
ATOM     27  C   UNL     1       0.143  -2.656  -0.801  0.00  0.00    +0.120 C 
ATOM     28  C   UNL     1       0.433  -4.149  -0.971  0.00  0.00    +0.103 C 
BRANCH  26  29
ATOM     29  C   UNL     1       0.537  -0.813   0.625  0.00  0.00    +0.033 A 
ATOM     30  C   UNL     1      -0.746  -0.289   0.730  0.00  0.00    +0.023 A 
ATOM     31  C   UNL     1      -0.923   1.072   0.884  0.00  0.00    +0.005 A 
ATOM     32  C   UNL     1       0.175   1.912   0.934  0.00  0.00    -0.050 A 
ATOM     33  C   UNL     1       1.452   1.394   0.830  0.00  0.00    +0.008 A 
ATOM     34  C   UNL     1       1.636   0.034   0.676  0.00  0.00    -0.029 A 
ATOM     35  C   UNL     1       3.029  -0.531   0.562  0.00  0.00    +0.045 C 
ATOM     36  C   UNL     1      -0.022   3.397   1.103  0.00  0.00    +0.044 C 
ENDBRANCH  26  29
ENDBRANCH  22  23
ENDBRANCH   2  22
TORSDOF 7
