REMARK  Name = ZINC01412458
REMARK  11 active torsions:
REMARK  status: ('A' for Active; 'I' for Inactive)
REMARK    1  A    between atoms: C_1  and  N_2
REMARK    2  A    between atoms: N_2  and  C_3
REMARK    3  A    between atoms: N_2  and  C_4
REMARK    4  A    between atoms: C_7  and  N_10
REMARK    5  A    between atoms: C_11  and  C_13
REMARK    6  A    between atoms: C_13  and  C_15
REMARK    7  A    between atoms: C_13  and  N_20
REMARK    8  A    between atoms: N_20  and  C_21
REMARK    9  A    between atoms: C_21  and  C_22
REMARK   10  A    between atoms: C_29  and  C_31
REMARK   11  A    between atoms: C_31  and  N_32
REMARK                            x       y       z     vdW  Elec       q    Type
REMARK                         _______ _______ _______ _____ _____    ______ ____
ROOT
ATOM      1  N   UNL     1       1.977  -1.449  -1.326  0.00  0.00    -0.280 N 
ATOM      2  C   UNL     1       2.280  -2.024  -2.507  0.00  0.00    +0.238 C 
ATOM      3  O   UNL     1       3.248  -2.750  -2.597  0.00  0.00    -0.274 OA
ENDROOT
BRANCH   1   4
ATOM      4  C   UNL     1       2.774  -1.756  -0.136  0.00  0.00    +0.199 C 
BRANCH   4   5
ATOM      5  C   UNL     1       3.339  -0.480   0.434  0.00  0.00    +0.019 A 
ATOM      6  C   UNL     1       4.549  -0.263   1.004  0.00  0.00    +0.013 A 
ATOM      7  C   UNL     1       4.856   1.005   1.462  0.00  0.00    +0.008 A 
ATOM      8  C   UNL     1       3.937   1.993   1.327  0.00  0.00    +0.045 A 
ATOM      9  S   UNL     1       2.588   1.136   0.532  0.00  0.00    -0.099 S 
ENDBRANCH   4   5
BRANCH   4  11
ATOM     10  N   UNL     1       2.253  -2.397   2.196  0.00  0.00    -0.284 N 
ATOM     11  C   UNL     1       1.900  -2.423   0.895  0.00  0.00    +0.243 C 
ATOM     12  O   UNL     1       0.880  -2.983   0.555  0.00  0.00    -0.273 OA
ATOM     13  H   UNL     1       3.024  -1.881   2.479  0.00  0.00    +0.155 HD
BRANCH  10  17
ATOM     14  C   UNL     1       0.026  -4.532   5.003  0.00  0.00    +0.029 A 
ATOM     15  C   UNL     1       0.170  -5.022   3.712  0.00  0.00    +0.025 A 
ATOM     16  C   UNL     1       0.907  -4.316   2.783  0.00  0.00    +0.025 A 
ATOM     17  C   UNL     1       1.505  -3.114   3.139  0.00  0.00    +0.034 A 
ATOM     18  C   UNL     1       1.366  -2.626   4.432  0.00  0.00    +0.025 A 
ATOM     19  C   UNL     1       0.625  -3.330   5.360  0.00  0.00    +0.025 A 
BRANCH  14  21
ATOM     20  C   UNL     1      -1.248  -6.572   5.607  0.00  0.00    +0.129 C 
ATOM     21  N   UNL     1      -0.721  -5.247   5.944  0.00  0.00    -0.336 N 
ATOM     22  C   UNL     1      -0.976  -4.673   7.268  0.00  0.00    +0.129 C 
ENDBRANCH  14  21
ENDBRANCH  10  17
ENDBRANCH   4  11
ENDBRANCH   1   4
BRANCH   1  23
ATOM     23  C   UNL     1       0.851  -0.516  -1.233  0.00  0.00    +0.144 C 
BRANCH  23  24
ATOM     24  C   UNL     1      -0.373  -1.253  -0.754  0.00  0.00    -0.030 A 
ATOM     25  C   UNL     1      -1.148  -1.962  -1.653  0.00  0.00    +0.008 A 
ATOM     26  C   UNL     1      -2.268  -2.642  -1.214  0.00  0.00    +0.038 A 
ATOM     27  C   UNL     1      -2.620  -2.605   0.124  0.00  0.00    +0.123 A 
ATOM     28  C   UNL     1      -1.846  -1.890   1.023  0.00  0.00    +0.038 A 
ATOM     29  C   UNL     1      -0.723  -1.215   0.583  0.00  0.00    +0.008 A 
ATOM     30  F   UNL     1      -3.718  -3.265   0.554  0.00  0.00    -0.205 F 
ENDBRANCH  23  24
ENDBRANCH   1  23
BRANCH   2  31
ATOM     31  C   UNL     1       1.416  -1.766  -3.714  0.00  0.00    +0.241 C 
BRANCH  31  32
ATOM     32  N   UNL     1       2.117  -2.212  -4.921  0.00  0.00    -0.235 N 
ATOM     33  C   UNL     1       2.957  -1.462  -5.709  0.00  0.00    +0.090 A 
ATOM     34  C   UNL     1       3.417  -0.151  -5.657  0.00  0.00    +0.029 A 
ATOM     35  C   UNL     1       4.277   0.306  -6.615  0.00  0.00    +0.002 A 
ATOM     36  C   UNL     1       4.702  -0.529  -7.640  0.00  0.00    +0.002 A 
ATOM     37  C   UNL     1       4.271  -1.821  -7.711  0.00  0.00    +0.032 A 
ATOM     38  C   UNL     1       3.388  -2.315  -6.740  0.00  0.00    +0.113 A 
ATOM     39  N   UNL     1       2.804  -3.515  -6.551  0.00  0.00    -0.129 NA
ATOM     40  N   UNL     1       2.059  -3.488  -5.502  0.00  0.00    -0.064 NA
ENDBRANCH  31  32
ENDBRANCH   2  31
TORSDOF 9
