REMARK  Name = ZINC40352218
REMARK  6 active torsions:
REMARK  status: ('A' for Active; 'I' for Inactive)
REMARK    1  A    between atoms: C_4  and  O_8
REMARK    2  A    between atoms: C_5  and  N_7
REMARK    3  A    between atoms: O_8  and  C_9
REMARK    4  A    between atoms: C_9  and  C_10
REMARK    5  A    between atoms: C_10  and  C_12
REMARK    6  A    between atoms: C_10  and  O_20
REMARK                            x       y       z     vdW  Elec       q    Type
REMARK                         _______ _______ _______ _____ _____    ______ ____
ROOT
ATOM      1  C   UNL     1       4.781   0.178  -0.044  0.00  0.00    +0.265 C 
ENDROOT
BRANCH   1   2
ATOM      2  O   UNL     1       3.598  -0.622  -0.036  0.00  0.00    -0.487 OA
BRANCH   2   6
ATOM      3  C   UNL     1      -0.017   1.378   0.010  0.00  0.00    +0.002 A 
ATOM      4  C   UNL     1       1.169   2.089   0.002  0.00  0.00    +0.004 A 
ATOM      5  C   UNL     1       2.380   1.421  -0.013  0.00  0.00    +0.047 A 
ATOM      6  C   UNL     1       2.407   0.036  -0.021  0.00  0.00    +0.141 A 
ATOM      7  C   UNL     1       1.213  -0.681  -0.013  0.00  0.00    +0.067 A 
ATOM      8  C   UNL     1       0.002  -0.004   0.002  0.00  0.00    +0.026 A 
BRANCH   7   9
ATOM      9  N   UNL     1       1.235  -2.080  -0.021  0.00  0.00    -0.355 N 
ATOM     10  H   UNL     1       2.082  -2.552  -0.032  0.00  0.00    +0.142 HD
ATOM     11  H   UNL     1       0.402  -2.578  -0.016  0.00  0.00    +0.142 HD
ENDBRANCH   7   9
ENDBRANCH   2   6
ENDBRANCH   1   2
BRANCH   1  12
ATOM     12  C   UNL     1       6.012  -0.731  -0.061  0.00  0.00    +0.183 C 
BRANCH  12  13
ATOM     13  C   UNL     1       7.258   0.108   0.055  0.00  0.00    -0.001 A 
ATOM     14  C   UNL     1       7.935   0.501  -1.084  0.00  0.00    +0.022 A 
ATOM     15  C   UNL     1       9.079   1.271  -0.978  0.00  0.00    +0.018 A 
ATOM     16  C   UNL     1       9.546   1.648   0.269  0.00  0.00    +0.016 A 
ATOM     17  C   UNL     1       8.869   1.255   1.408  0.00  0.00    +0.017 A 
ATOM     18  C   UNL     1       7.722   0.489   1.301  0.00  0.00    +0.024 A 
ATOM     19 BR   UNL     1       6.791  -0.042   2.859  0.00  0.00    -0.050 Br
ATOM     20 BR   UNL     1      10.005   1.808  -2.536  0.00  0.00    -0.050 Br
ENDBRANCH  12  13
BRANCH  12  21
ATOM     21  O   UNL     1       6.044  -1.465  -1.286  0.00  0.00    -0.384 OA
ATOM     22  H   UNL     1       6.089  -0.910  -2.076  0.00  0.00    +0.210 HD
ENDBRANCH  12  21
ENDBRANCH   1  12
TORSDOF 6
