REMARK  Name = ZINC11998421
REMARK  8 active torsions:
REMARK  status: ('A' for Active; 'I' for Inactive)
REMARK    1  A    between atoms: C_1  and  C_2
REMARK    2  A    between atoms: C_7  and  C_9
REMARK    3  A    between atoms: C_7  and  C_28
REMARK    4  A    between atoms: C_7  and  N_62
REMARK    5  A    between atoms: C_9  and  N_10
REMARK    6  A    between atoms: N_10  and  S_11
REMARK    7  A    between atoms: S_11  and  C_14
REMARK    8  A    between atoms: C_17  and  N_20
REMARK                            x       y       z     vdW  Elec       q    Type
REMARK                         _______ _______ _______ _____ _____    ______ ____
ROOT
ATOM      1  N   UNL     1       9.316   1.319   1.795  0.00  0.00    -0.191 NA
ATOM      2  H   UNL     1      10.234   1.547   2.011  0.00  0.00    +0.148 HD
ENDROOT
BRANCH   1   3
ATOM      3  S   UNL     1       8.094   1.733   2.833  0.00  0.00    +0.058 S 
ATOM      4  O   UNL     1       7.088   2.359   2.048  0.00  0.00    -0.153 OA
ATOM      5  O   UNL     1       8.705   2.376   3.943  0.00  0.00    -0.153 OA
BRANCH   3   6
ATOM      6  C   UNL     1       7.397   0.233   3.442  0.00  0.00    +0.105 A 
ATOM      7  C   UNL     1       7.902  -0.346   4.592  0.00  0.00    +0.030 A 
ATOM      8  C   UNL     1       7.358  -1.521   5.071  0.00  0.00    +0.027 A 
ATOM      9  C   UNL     1       6.303  -2.122   4.397  0.00  0.00    +0.059 A 
ATOM     10  C   UNL     1       5.802  -1.541   3.239  0.00  0.00    +0.027 A 
ATOM     11  C   UNL     1       6.347  -0.363   2.768  0.00  0.00    +0.030 A 
BRANCH   9  12
ATOM     12  N   UNL     1       5.750  -3.313   4.880  0.00  0.00    -0.144 N 
ATOM     13  C   UNL     1       5.778  -3.737   6.153  0.00  0.00    +0.240 C 
ATOM     14  O   UNL     1       6.290  -3.062   7.020  0.00  0.00    -0.274 OA
ATOM     15  C   UNL     1       5.163  -5.065   6.477  0.00  0.00    +0.122 C 
ATOM     16  C   UNL     1       4.195  -5.457   5.330  0.00  0.00    +0.198 C 
ATOM     17  S   UNL     1       4.935  -4.460   3.973  0.00  0.00    +0.052 S 
ATOM     18  O   UNL     1       5.942  -5.198   3.292  0.00  0.00    -0.155 OA
ATOM     19  O   UNL     1       3.933  -3.747   3.262  0.00  0.00    -0.155 OA
ENDBRANCH   9  12
ENDBRANCH   3   6
ENDBRANCH   1   3
BRANCH   1  20
ATOM     20  C   UNL     1       9.011   0.609   0.551  0.00  0.00    +0.095 C 
BRANCH  20  21
ATOM     21  C   UNL     1      10.208   0.703  -0.397  0.00  0.00    -0.022 C 
BRANCH  21  28
ATOM     22  C   UNL     1      14.907  -1.844   1.628  0.00  0.00    +0.007 C 
ATOM     23  C   UNL     1      13.673  -1.502   0.790  0.00  0.00    -0.018 C 
ATOM     24  C   UNL     1      13.840  -0.108   0.179  0.00  0.00    -0.015 C 
ATOM     25  C   UNL     1      12.577   0.252  -0.607  0.00  0.00    -0.078 C 
ATOM     26  C   UNL     1      11.208  -1.113   0.853  0.00  0.00    -0.078 C 
ATOM     27  C   UNL     1      12.429  -1.514   1.683  0.00  0.00    -0.015 C 
ATOM     28  N   UNL     1      11.420   0.247   0.314  0.00  0.00    +0.385 N 
ATOM     29  H   UNL     1      11.611   0.888   1.092  0.00  0.00    -0.081 HD
ENDBRANCH  21  28
BRANCH  21  30
ATOM     30  C   UNL     1      10.402   2.136  -0.821  0.00  0.00    -0.060 A 
ATOM     31  C   UNL     1      11.038   3.026   0.024  0.00  0.00    +0.002 A 
ATOM     32  C   UNL     1      11.220   4.340  -0.366  0.00  0.00    +0.000 A 
ATOM     33  C   UNL     1      10.758   4.766  -1.597  0.00  0.00    +0.000 A 
ATOM     34  C   UNL     1      10.117   3.877  -2.440  0.00  0.00    +0.000 A 
ATOM     35  C   UNL     1       9.939   2.562  -2.051  0.00  0.00    +0.002 A 
ENDBRANCH  21  30
ENDBRANCH  20  21
ENDBRANCH   1  20
TORSDOF 7
