REMARK  Name = ZINC01084866
REMARK  6 active torsions:
REMARK  status: ('A' for Active; 'I' for Inactive)
REMARK    1  A    between atoms: C_1  and  C_2
REMARK    2  A    between atoms: C_2  and  S_3
REMARK    3  A    between atoms: S_3  and  C_4
REMARK    4  A    between atoms: C_17  and  C_20
REMARK    5  A    between atoms: C_22  and  O_28
REMARK    6  A    between atoms: C_23  and  O_27
REMARK                            x       y       z     vdW  Elec       q    Type
REMARK                         _______ _______ _______ _____ _____    ______ ____
ROOT
ATOM      1  C   UNL     1       5.951  -0.722  -2.191  0.00  0.00    +0.212 A 
ATOM      2  N   UNL     1       5.016   0.204  -2.000  0.00  0.00    -0.184 NA
ATOM      3  C   UNL     1       3.822  -0.163  -1.567  0.00  0.00    +0.248 A 
ATOM      4  C   UNL     1       3.581  -1.532  -1.315  0.00  0.00    +0.156 A 
ATOM      5  N   UNL     1       4.554  -2.404  -1.530  0.00  0.00    -0.141 NA
ATOM      6  N   UNL     1       5.703  -2.004  -1.955  0.00  0.00    -0.122 NA
ATOM      7  C   UNL     1       2.258  -1.962  -0.816  0.00  0.00    +0.028 A 
ATOM      8  C   UNL     1       1.578  -3.032  -1.384  0.00  0.00    +0.012 A 
ATOM      9  C   UNL     1       0.349  -3.410  -0.879  0.00  0.00    +0.001 A 
ATOM     10  C   UNL     1      -0.208  -2.729   0.190  0.00  0.00    +0.002 A 
ATOM     11  C   UNL     1       0.455  -1.659   0.761  0.00  0.00    +0.024 A 
ATOM     12  C   UNL     1       1.683  -1.265   0.263  0.00  0.00    +0.039 A 
ATOM     13  N   UNL     1       2.364  -0.167   0.792  0.00  0.00    -0.305 N 
ATOM     14  C   UNL     1       2.489   1.043  -0.016  0.00  0.00    +0.294 C 
ATOM     15  O   UNL     1       2.835   0.743  -1.363  0.00  0.00    -0.449 OA
ATOM     16  H   UNL     1       2.748  -0.207   1.682  0.00  0.00    +0.150 HD
ENDROOT
BRANCH  14  17
ATOM     17  C   UNL     1       1.176   1.782   0.000  0.00  0.00    +0.016 A 
ATOM     18  C   UNL     1       0.414   1.810   1.154  0.00  0.00    +0.058 A 
ATOM     19  C   UNL     1      -0.793   2.489   1.172  0.00  0.00    +0.160 A 
ATOM     20  C   UNL     1      -1.238   3.142   0.026  0.00  0.00    +0.172 A 
ATOM     21  C   UNL     1      -0.468   3.114  -1.126  0.00  0.00    +0.063 A 
ATOM     22  C   UNL     1       0.735   2.430  -1.138  0.00  0.00    +0.028 A 
ATOM     23 BR   UNL     1      -1.063   4.006  -2.683  0.00  0.00    -0.046 Br
BRANCH  20  24
ATOM     24  O   UNL     1      -2.422   3.810   0.038  0.00  0.00    -0.503 OA
ATOM     25  H   UNL     1      -2.348   4.738   0.299  0.00  0.00    +0.292 HD
ENDBRANCH  20  24
BRANCH  19  26
ATOM     26  O   UNL     1      -1.542   2.518   2.306  0.00  0.00    -0.503 OA
ATOM     27  H   UNL     1      -1.342   3.261   2.891  0.00  0.00    +0.292 HD
ENDBRANCH  19  26
ENDBRANCH  14  17
BRANCH   1  28
ATOM     28  S   UNL     1       7.544  -0.239  -2.768  0.00  0.00    -0.085 S 
BRANCH  28  30
ATOM     29  C   UNL     1       9.796  -1.682  -3.326  0.00  0.00    +0.016 C 
ATOM     30  C   UNL     1       8.357  -1.855  -2.836  0.00  0.00    +0.074 C 
ENDBRANCH  28  30
ENDBRANCH   1  28
TORSDOF 5
