REMARK  Name = ZINC01811444
REMARK  10 active torsions:
REMARK  status: ('A' for Active; 'I' for Inactive)
REMARK    1  A    between atoms: C_1  and  C_2
REMARK    2  A    between atoms: C_3  and  C_31
REMARK    3  A    between atoms: C_4  and  C_21
REMARK    4  A    between atoms: C_10  and  C_11
REMARK    5  A    between atoms: C_24  and  O_27
REMARK    6  A    between atoms: O_27  and  C_28
REMARK    7  A    between atoms: C_28  and  C_30
REMARK    8  A    between atoms: C_31  and  O_33
REMARK    9  A    between atoms: O_33  and  C_34
REMARK   10  A    between atoms: C_34  and  C_35
REMARK                            x       y       z     vdW  Elec       q    Type
REMARK                         _______ _______ _______ _____ _____    ______ ____
ROOT
ATOM      1  C   UNL     1       0.206   3.195  -0.188  0.00  0.00    +0.066 C 
ATOM      2  C   UNL     1      -0.522   3.287   1.128  0.00  0.00    +0.053 C 
ATOM      3  C   UNL     1       0.186   3.446   2.285  0.00  0.00    +0.085 C 
ATOM      4  C   UNL     1      -0.583   3.534   3.583  0.00  0.00    +0.162 C 
ATOM      5  N   UNL     1      -2.067   3.440   3.502  0.00  0.00    -0.275 N 
ATOM      6  C   UNL     1      -2.917   3.496   4.537  0.00  0.00    +0.268 A 
ATOM      7  O   UNL     1      -2.510   3.635   5.675  0.00  0.00    -0.266 OA
ATOM      8  C   UNL     1      -4.356   3.383   4.254  0.00  0.00    +0.081 A 
ATOM      9  C   UNL     1      -5.408   3.410   5.111  0.00  0.00    +0.028 C 
ATOM     10  S   UNL     1      -4.343   3.203   2.477  0.00  0.00    -0.046 S 
ATOM     11  C   UNL     1      -2.579   3.281   2.235  0.00  0.00    +0.178 A 
ATOM     12  N   UNL     1      -1.848   3.218   1.152  0.00  0.00    -0.228 NA
ENDROOT
BRANCH   9  13
ATOM     13  C   UNL     1      -6.780   3.460   4.588  0.00  0.00    -0.024 A 
ATOM     14  C   UNL     1      -7.011   3.791   3.248  0.00  0.00    +0.009 A 
ATOM     15  C   UNL     1      -8.300   3.830   2.764  0.00  0.00    +0.020 A 
ATOM     16  C   UNL     1      -9.368   3.555   3.603  0.00  0.00    +0.041 A 
ATOM     17  C   UNL     1      -9.148   3.232   4.932  0.00  0.00    +0.020 A 
ATOM     18  C   UNL     1      -7.864   3.183   5.430  0.00  0.00    +0.009 A 
ATOM     19 CL   UNL     1     -10.989   3.614   2.985  0.00  0.00    -0.084 Cl
ENDBRANCH   9  13
BRANCH   4  20
ATOM     20  C   UNL     1      -0.097   2.429   4.485  0.00  0.00    -0.020 A 
ATOM     21  C   UNL     1      -0.571   1.141   4.315  0.00  0.00    +0.009 A 
ATOM     22  C   UNL     1      -0.123   0.125   5.137  0.00  0.00    +0.047 A 
ATOM     23  C   UNL     1       0.794   0.399   6.141  0.00  0.00    +0.132 A 
ATOM     24  C   UNL     1       1.264   1.693   6.313  0.00  0.00    +0.047 A 
ATOM     25  C   UNL     1       0.817   2.705   5.485  0.00  0.00    +0.009 A 
BRANCH  23  26
ATOM     26  O   UNL     1       1.233  -0.598   6.954  0.00  0.00    -0.426 OA
BRANCH  26  27
ATOM     27  C   UNL     1       0.712  -0.650   8.190  0.00  0.00    +0.309 C 
ATOM     28  O   UNL     1      -0.149   0.133   8.516  0.00  0.00    -0.251 OA
ATOM     29  C   UNL     1       1.200  -1.685   9.170  0.00  0.00    +0.136 C 
ENDBRANCH  26  27
ENDBRANCH  23  26
ENDBRANCH   4  20
BRANCH   3  30
ATOM     30  C   UNL     1       1.588   3.526   2.269  0.00  0.00    +0.340 C 
ATOM     31  O   UNL     1       2.187   3.520   1.208  0.00  0.00    -0.245 OA
BRANCH  30  32
ATOM     32  O   UNL     1       2.274   3.611   3.430  0.00  0.00    -0.457 OA
BRANCH  32  33
ATOM     33  C   UNL     1       3.698   3.689   3.338  0.00  0.00    +0.259 C 
BRANCH  33  34
ATOM     34  C   UNL     1       4.286   3.776   4.723  0.00  0.00    +0.006 C 
ATOM     35  C   UNL     1       5.325   3.044   5.041  0.00  0.00    +0.007 C 
ENDBRANCH  33  34
ENDBRANCH  32  33
ENDBRANCH  30  32
ENDBRANCH   3  30
TORSDOF 8
