REMARK  Name = ZINC64538973
REMARK  6 active torsions:
REMARK  status: ('A' for Active; 'I' for Inactive)
REMARK    1  A    between atoms: C_1  and  N_2
REMARK    2  A    between atoms: C_10  and  N_14
REMARK    3  A    between atoms: C_18  and  C_21
REMARK    4  A    between atoms: N_23  and  C_24
REMARK    5  A    between atoms: C_24  and  C_25
REMARK    6  A    between atoms: C_25  and  C_26
REMARK                            x       y       z     vdW  Elec       q    Type
REMARK                         _______ _______ _______ _____ _____    ______ ____
ROOT
ATOM      1  N   UNL     1       1.303  -2.609   1.435  0.00  0.00    +0.398 N 
ATOM      2  C   UNL     1       2.512  -2.062   2.062  0.00  0.00    -0.075 C 
ATOM      3  C   UNL     1       2.549  -2.460   3.539  0.00  0.00    -0.018 C 
ATOM      4  C   UNL     1       2.562  -3.987   3.650  0.00  0.00    +0.009 C 
ATOM      5  C   UNL     1       1.335  -4.552   2.928  0.00  0.00    +0.058 C 
ATOM      6  C   UNL     1       1.342  -4.076   1.474  0.00  0.00    -0.063 C 
ATOM      7  H   UNL     1       0.490  -2.282   1.934  0.00  0.00    -0.078 HD
ENDROOT
BRANCH   1  17
ATOM      8  C   UNL     1      -0.018   1.461   0.010  0.00  0.00    +0.138 C 
ATOM      9  N   UNL     1       0.002  -0.004   0.002  0.00  0.00    -0.273 N 
ATOM     10  C   UNL     1      -1.205  -0.713   0.004  0.00  0.00    +0.057 A 
ATOM     11  C   UNL     1      -2.399  -0.079   0.306  0.00  0.00    +0.025 A 
ATOM     12  C   UNL     1      -3.581  -0.796   0.297  0.00  0.00    +0.002 A 
ATOM     13  C   UNL     1      -3.579  -2.144  -0.011  0.00  0.00    +0.002 A 
ATOM     14  C   UNL     1      -2.390  -2.787  -0.311  0.00  0.00    +0.025 A 
ATOM     15  C   UNL     1      -1.204  -2.075  -0.302  0.00  0.00    +0.048 A 
ATOM     16  N   UNL     1       0.017  -2.700  -0.591  0.00  0.00    -0.348 N 
ATOM     17  C   UNL     1       1.232  -2.160   0.038  0.00  0.00    +0.105 C 
ATOM     18  C   UNL     1       1.181  -0.654  -0.013  0.00  0.00    +0.223 C 
ATOM     19  O   UNL     1       2.214  -0.021  -0.063  0.00  0.00    -0.275 OA
ATOM     20  H   UNL     1       0.059  -3.464  -1.187  0.00  0.00    +0.145 HD
ENDBRANCH   1  17
BRANCH   5  21
ATOM     21  C   UNL     1       1.377  -6.058   2.966  0.00  0.00    +0.214 C 
ATOM     22  O   UNL     1       1.407  -6.690   1.932  0.00  0.00    -0.276 OA
ATOM     23  N   UNL     1       1.383  -6.702   4.150  0.00  0.00    -0.315 N 
ATOM     24  H   UNL     1       1.359  -6.196   4.978  0.00  0.00    +0.149 HD
BRANCH  23  25
ATOM     25  C   UNL     1       1.424  -8.165   4.188  0.00  0.00    +0.108 C 
BRANCH  25  26
ATOM     26  C   UNL     1       1.421  -8.639   5.643  0.00  0.00    +0.052 C 
BRANCH  26  27
ATOM     27  C   UNL     1       1.464 -10.145   5.681  0.00  0.00    -0.040 C 
ATOM     28  C   UNL     1       2.561 -10.924   5.813  0.00  0.00    -0.001 A 
ATOM     29  C   UNL     1       3.989 -10.615   5.954  0.00  0.00    +0.010 A 
ATOM     30  C   UNL     1       4.872 -11.633   6.068  0.00  0.00    +0.001 A 
ATOM     31  C   UNL     1       4.459 -12.973   6.055  0.00  0.00    +0.002 A 
ATOM     32  C   UNL     1       3.165 -13.335   5.929  0.00  0.00    +0.026 A 
ATOM     33  C   UNL     1       2.151 -12.347   5.803  0.00  0.00    +0.043 A 
ATOM     34  N   UNL     1       0.850 -12.443   5.669  0.00  0.00    -0.380 N 
ATOM     35  C   UNL     1       0.287 -11.090   5.586  0.00  0.00    +0.144 C 
ATOM     36  H   UNL     1       0.344 -13.270   5.635  0.00  0.00    +0.160 HD
ENDBRANCH  26  27
ENDBRANCH  25  26
ENDBRANCH  23  25
ENDBRANCH   5  21
TORSDOF 5
