REMARK  Name = ZINC00661704
REMARK  6 active torsions:
REMARK  status: ('A' for Active; 'I' for Inactive)
REMARK    1  A    between atoms: C_1  and  C_2
REMARK    2  A    between atoms: C_2  and  O_3
REMARK    3  A    between atoms: O_3  and  C_4
REMARK    4  A    between atoms: C_8  and  C_11
REMARK    5  A    between atoms: C_9  and  O_10
REMARK    6  A    between atoms: N_15  and  C_19
REMARK                            x       y       z     vdW  Elec       q    Type
REMARK                         _______ _______ _______ _____ _____    ______ ____
ROOT
ATOM      1  C   UNL     1      -4.276  -4.384   0.007  0.00  0.00    +0.040 C 
ATOM      2  C   UNL     1      -4.425  -5.729  -0.102  0.00  0.00    +0.099 C 
ATOM      3  C   UNL     1      -3.363  -6.746  -0.123  0.00  0.00    +0.273 C 
ATOM      4  O   UNL     1      -2.164  -6.553  -0.046  0.00  0.00    -0.268 OA
ATOM      5  N   UNL     1      -3.986  -7.936  -0.245  0.00  0.00    -0.189 N 
ATOM      6  C   UNL     1      -5.314  -7.752  -0.301  0.00  0.00    +0.318 C 
ATOM      7  O   UNL     1      -6.129  -8.647  -0.410  0.00  0.00    -0.251 OA
ATOM      8  N   UNL     1      -5.624  -6.446  -0.212  0.00  0.00    -0.264 N 
ATOM      9  H   UNL     1      -6.517  -6.069  -0.225  0.00  0.00    +0.157 HD
ENDROOT
BRANCH   5  10
ATOM     10  C   UNL     1      -3.342  -9.180  -0.306  0.00  0.00    +0.047 A 
ATOM     11  C   UNL     1      -1.957  -9.250  -0.234  0.00  0.00    +0.024 A 
ATOM     12  C   UNL     1      -1.325 -10.476  -0.294  0.00  0.00    +0.003 A 
ATOM     13  C   UNL     1      -2.069 -11.634  -0.425  0.00  0.00    +0.020 A 
ATOM     14  C   UNL     1      -3.450 -11.568  -0.498  0.00  0.00    +0.043 A 
ATOM     15  C   UNL     1      -4.088 -10.343  -0.432  0.00  0.00    +0.044 A 
ATOM     16 CL   UNL     1      -4.380 -13.024  -0.663  0.00  0.00    -0.083 Cl
ENDBRANCH   5  10
BRANCH   1  21
ATOM     17  C   UNL     1      -1.317  -2.185   0.750  0.00  0.00    +0.162 A 
ATOM     18  C   UNL     1      -0.400  -2.661  -0.173  0.00  0.00    +0.049 A 
ATOM     19  C   UNL     1      -0.741  -3.692  -1.033  0.00  0.00    +0.004 A 
ATOM     20  C   UNL     1      -1.997  -4.256  -0.980  0.00  0.00    +0.012 A 
ATOM     21  C   UNL     1      -2.936  -3.787  -0.053  0.00  0.00    +0.022 A 
ATOM     22  C   UNL     1      -2.587  -2.746   0.821  0.00  0.00    +0.166 A 
BRANCH  22  23
ATOM     23  O   UNL     1      -3.487  -2.286   1.728  0.00  0.00    -0.503 OA
ATOM     24  H   UNL     1      -4.041  -1.564   1.401  0.00  0.00    +0.292 HD
ENDBRANCH  22  23
BRANCH  17  25
ATOM     25  O   UNL     1      -0.974  -1.173   1.590  0.00  0.00    -0.489 OA
BRANCH  25  27
ATOM     26  C   UNL     1       0.549   0.479   2.482  0.00  0.00    +0.048 C 
ATOM     27  C   UNL     1       0.347  -0.643   1.462  0.00  0.00    +0.226 C 
ENDBRANCH  25  27
ENDBRANCH  17  25
ENDBRANCH   1  21
TORSDOF 5
