REMARK  Name = ZINC40004409
REMARK  13 active torsions:
REMARK  status: ('A' for Active; 'I' for Inactive)
REMARK    1  A    between atoms: C_1  and  C_2
REMARK    2  A    between atoms: C_2  and  O_3
REMARK    3  A    between atoms: O_3  and  C_4
REMARK    4  A    between atoms: C_6  and  C_16
REMARK    5  A    between atoms: C_9  and  O_10
REMARK    6  A    between atoms: O_10  and  C_11
REMARK    7  A    between atoms: C_11  and  C_12
REMARK    8  A    between atoms: C_12  and  C_13
REMARK    9  A    between atoms: C_13  and  C_14
REMARK   10  A    between atoms: C_13  and  C_15
REMARK   11  A    between atoms: C_21  and  C_36
REMARK   12  A    between atoms: C_22  and  C_28
REMARK   13  A    between atoms: C_28  and  C_29
REMARK                            x       y       z     vdW  Elec       q    Type
REMARK                         _______ _______ _______ _____ _____    ______ ____
ROOT
ATOM      1  C   UNL     1      -0.753  -4.685   0.875  0.00  0.00    +0.028 C 
ATOM      2  C   UNL     1      -1.149  -5.904   0.421  0.00  0.00    +0.081 A 
ATOM      3  C   UNL     1      -1.673  -7.053   1.168  0.00  0.00    +0.271 A 
ATOM      4  O   UNL     1      -1.809  -7.004   2.377  0.00  0.00    -0.266 OA
ATOM      5  N   UNL     1      -1.998  -8.159   0.481  0.00  0.00    -0.258 N 
ATOM      6  C   UNL     1      -2.504  -9.327   1.045  0.00  0.00    +0.035 A 
ATOM      7  C   UNL     1      -2.799 -10.384   0.276  0.00  0.00    +0.043 A 
ATOM      8  C   UNL     1      -2.594 -10.315  -1.128  0.00  0.00    +0.278 A 
ATOM      9  O   UNL     1      -2.857 -11.268  -1.845  0.00  0.00    -0.265 OA
ATOM     10  N   UNL     1      -2.106  -9.180  -1.647  0.00  0.00    -0.184 NA
ATOM     11  C   UNL     1      -1.823  -8.157  -0.879  0.00  0.00    +0.184 A 
ATOM     12  S   UNL     1      -1.181  -6.538  -1.248  0.00  0.00    -0.046 S 
ATOM     13  C   UNL     1      -2.722  -9.403   2.534  0.00  0.00    +0.064 C 
ENDROOT
BRANCH   1  16
ATOM     14  C   UNL     1       0.777  -1.544  -0.485  0.00  0.00    +0.162 A 
ATOM     15  C   UNL     1       0.155  -2.426   0.376  0.00  0.00    +0.057 A 
ATOM     16  C   UNL     1      -0.093  -3.742  -0.035  0.00  0.00    -0.020 A 
ATOM     17  C   UNL     1       0.292  -4.155  -1.317  0.00  0.00    +0.012 A 
ATOM     18  C   UNL     1       0.912  -3.268  -2.168  0.00  0.00    +0.050 A 
ATOM     19  C   UNL     1       1.152  -1.962  -1.762  0.00  0.00    +0.162 A 
BRANCH  14  20
ATOM     20  O   UNL     1       1.019  -0.266  -0.090  0.00  0.00    -0.489 OA
BRANCH  20  22
ATOM     21  C   UNL     1       0.962   1.559   1.494  0.00  0.00    +0.048 C 
ATOM     22  C   UNL     1       0.609   0.094   1.231  0.00  0.00    +0.226 C 
ENDBRANCH  20  22
ENDBRANCH  14  20
BRANCH  19  23
ATOM     23  O   UNL     1       1.758  -1.090  -2.608  0.00  0.00    -0.488 OA
BRANCH  23  24
ATOM     24  C   UNL     1       2.116  -1.583  -3.901  0.00  0.00    +0.229 C 
BRANCH  24  25
ATOM     25  C   UNL     1       2.782  -0.466  -4.707  0.00  0.00    +0.044 C 
BRANCH  25  26
ATOM     26  C   UNL     1       3.165  -0.994  -6.091  0.00  0.00    -0.014 C 
ATOM     27  C   UNL     1       1.897  -1.353  -6.868  0.00  0.00    +0.007 C 
ATOM     28  C   UNL     1       3.942   0.083  -6.851  0.00  0.00    +0.007 C 
ENDBRANCH  25  26
ENDBRANCH  24  25
ENDBRANCH  23  24
ENDBRANCH  19  23
ENDBRANCH   1  16
BRANCH   7  29
ATOM     29  C   UNL     1      -3.346 -11.643   0.899  0.00  0.00    +0.079 C 
BRANCH  29  30
ATOM     30  C   UNL     1      -4.851 -11.622   0.835  0.00  0.00    -0.025 A 
ATOM     31  C   UNL     1      -5.576 -10.980   1.821  0.00  0.00    +0.005 A 
ATOM     32  C   UNL     1      -6.957 -10.961   1.762  0.00  0.00    +0.000 A 
ATOM     33  C   UNL     1      -7.614 -11.584   0.717  0.00  0.00    +0.001 A 
ATOM     34  C   UNL     1      -6.890 -12.225  -0.270  0.00  0.00    +0.020 A 
ATOM     35  C   UNL     1      -5.507 -12.240  -0.214  0.00  0.00    +0.044 A 
ATOM     36 CL   UNL     1      -4.597 -13.040  -1.457  0.00  0.00    -0.083 Cl
ENDBRANCH  29  30
ENDBRANCH   7  29
TORSDOF 9
