REMARK  Name = ZINC67491106
REMARK  6 active torsions:
REMARK  status: ('A' for Active; 'I' for Inactive)
REMARK    1  A    between atoms: C_1  and  C_2
REMARK    2  A    between atoms: C_5  and  C_8
REMARK    3  A    between atoms: N_18  and  C_19
REMARK    4  A    between atoms: C_19  and  C_20
REMARK    5  A    between atoms: C_22  and  C_27
REMARK    6  A    between atoms: C_25  and  O_26
REMARK                            x       y       z     vdW  Elec       q    Type
REMARK                         _______ _______ _______ _____ _____    ______ ____
ROOT
ATOM      1  C   UNL     1       0.063  -4.009   0.117  0.00  0.00    +0.012 C 
ATOM      2  C   UNL     1       1.494  -4.344   0.441  0.00  0.00    +0.029 A 
ATOM      3  C   UNL     1       1.860  -5.346   1.273  0.00  0.00    +0.059 A 
ATOM      4  N   UNL     1       3.190  -5.364   1.340  0.00  0.00    -0.241 NA
ATOM      5  H   UNL     1       2.702  -3.005  -0.611  0.00  0.00    +0.166 HD
ATOM      6  C   UNL     1       3.670  -4.413   0.580  0.00  0.00    +0.196 A 
ATOM      7  N   UNL     1       2.638  -3.755   0.002  0.00  0.00    -0.349 N 
ATOM      8  C   UNL     1       0.859  -6.244   1.959  0.00  0.00    +0.039 C 
ATOM      9  C   UNL     1      -0.491  -6.065   1.250  0.00  0.00    -0.071 C 
ATOM     10  N   UNL     1      -0.804  -4.635   1.129  0.00  0.00    +0.391 N 
ATOM     11  H   UNL     1      -0.656  -4.185   2.020  0.00  0.00    -0.080 HD
ENDROOT
BRANCH   1  16
ATOM     12  C   UNL     1      -0.669   1.722   0.209  0.00  0.00    +0.044 C 
ATOM     13  C   UNL     1      -0.478   0.228   0.185  0.00  0.00    -0.050 A 
ATOM     14  C   UNL     1      -0.328  -0.431  -1.022  0.00  0.00    +0.003 A 
ATOM     15  C   UNL     1      -0.153  -1.802  -1.044  0.00  0.00    +0.002 A 
ATOM     16  C   UNL     1      -0.127  -2.514   0.141  0.00  0.00    -0.055 A 
ATOM     17  C   UNL     1      -0.276  -1.856   1.347  0.00  0.00    +0.002 A 
ATOM     18  C   UNL     1      -0.447  -0.484   1.369  0.00  0.00    +0.003 A 
ENDBRANCH   1  16
BRANCH  10  19
ATOM     19  C   UNL     1      -2.209  -4.475   0.734  0.00  0.00    -0.038 C 
BRANCH  19  20
ATOM     20  C   UNL     1      -3.102  -4.999   1.829  0.00  0.00    -0.022 A 
ATOM     21  C   UNL     1      -3.696  -6.240   1.703  0.00  0.00    +0.008 A 
ATOM     22  C   UNL     1      -4.516  -6.721   2.707  0.00  0.00    -0.050 A 
ATOM     23  C   UNL     1      -4.742  -5.961   3.841  0.00  0.00    +0.007 A 
ATOM     24  C   UNL     1      -4.151  -4.720   3.972  0.00  0.00    +0.046 A 
ATOM     25  C   UNL     1      -3.323  -4.238   2.968  0.00  0.00    +0.118 A 
ATOM     26  C   UNL     1      -5.163  -8.074   2.566  0.00  0.00    +0.044 C 
BRANCH  25  27
ATOM     27  O   UNL     1      -2.735  -3.020   3.097  0.00  0.00    -0.507 OA
ATOM     28  H   UNL     1      -3.293  -2.281   2.817  0.00  0.00    +0.292 HD
ENDBRANCH  25  27
ENDBRANCH  19  20
ENDBRANCH  10  19
TORSDOF 4
