REMARK  Name = ZINC33436093
REMARK  2 active torsions:
REMARK  status: ('A' for Active; 'I' for Inactive)
REMARK    1  A    between atoms: N_15  and  C_16
REMARK    2  A    between atoms: C_17  and  C_21
REMARK                            x       y       z     vdW  Elec       q    Type
REMARK                         _______ _______ _______ _____ _____    ______ ____
ROOT
ATOM      1  C   UNL     1      -0.852  -0.871  -0.052  0.00  0.00    +0.126 A 
ATOM      2  C   UNL     1       0.186   0.058  -0.159  0.00  0.00    +0.178 A 
ATOM      3  N   UNL     1       1.391  -0.435  -0.401  0.00  0.00    -0.135 NA
ATOM      4  N   UNL     1       1.573  -1.707  -0.516  0.00  0.00    -0.108 NA
ATOM      5  S   UNL     1       0.006  -2.358  -0.301  0.00  0.00    +0.052 S 
ENDROOT
BRANCH   1  20
ATOM      6  C   UNL     1      -9.800  -1.978   3.650  0.00  0.00    +0.005 A 
ATOM      7  C   UNL     1      -9.666  -0.985   4.612  0.00  0.00    +0.018 A 
ATOM      8  C   UNL     1      -8.600  -0.111   4.536  0.00  0.00    +0.084 A 
ATOM      9  N   UNL     1      -7.709  -0.211   3.568  0.00  0.00    -0.350 N 
ATOM     10  C   UNL     1      -7.805  -1.140   2.630  0.00  0.00    +0.099 A 
ATOM     11  C   UNL     1      -8.853  -2.055   2.644  0.00  0.00    +0.042 A 
ATOM     12  N   UNL     1      -6.847  -1.206   1.625  0.00  0.00    -0.314 N 
ATOM     13  C   UNL     1      -5.834  -0.156   1.794  0.00  0.00    +0.125 C 
ATOM     14  C   UNL     1      -4.905  -0.146   0.576  0.00  0.00    +0.128 C 
ATOM     15  N   UNL     1      -4.369  -1.503   0.386  0.00  0.00    -0.282 N 
ATOM     16  C   UNL     1      -5.317  -2.626   0.339  0.00  0.00    +0.128 C 
ATOM     17  C   UNL     1      -6.230  -2.538   1.573  0.00  0.00    +0.125 C 
ATOM     18  C   UNL     1      -3.043  -1.711   0.255  0.00  0.00    +0.307 C 
ATOM     19  O   UNL     1      -2.609  -2.845   0.195  0.00  0.00    -0.252 OA
ATOM     20  N   UNL     1      -2.200  -0.662   0.188  0.00  0.00    -0.261 N 
ATOM     21  H   UNL     1      -2.582   0.361   0.325  0.00  0.00    +0.157 HD
ATOM     22  H   UNL     1      -6.861   0.488   3.527  0.00  0.00    +0.166 HD
ENDBRANCH   1  20
BRANCH   2  23
ATOM     23  C   UNL     1      -0.048   1.502  -0.018  0.00  0.00    +0.269 C 
ATOM     24  O   UNL     1      -1.184   1.930   0.056  0.00  0.00    -0.268 OA
ATOM     25  N   UNL     1       0.997   2.352   0.023  0.00  0.00    -0.295 N 
ATOM     26  C   UNL     1       2.375   1.852  -0.049  0.00  0.00    +0.113 C 
ATOM     27  C   UNL     1       3.211   2.438   1.075  0.00  0.00    +0.027 C 
ATOM     28  C   UNL     1       3.057   3.957   1.142  0.00  0.00    +0.018 C 
ATOM     29  C   UNL     1       1.578   4.283   1.372  0.00  0.00    +0.054 C 
ATOM     30  C   UNL     1       0.782   3.803   0.146  0.00  0.00    +0.117 C 
ATOM     31  C   UNL     1       1.071   3.525   2.576  0.00  0.00    +0.027 A 
ATOM     32  C   UNL     1       0.036   4.071   3.269  0.00  0.00    +0.022 A 
ATOM     33  C   UNL     1      -0.529   3.392   4.354  0.00  0.00    +0.007 A 
ATOM     34  C   UNL     1      -0.043   2.162   4.688  0.00  0.00    +0.070 A 
ATOM     35  C   UNL     1       1.022   1.626   3.951  0.00  0.00    +0.251 A 
ATOM     36  O   UNL     1       1.422   0.499   4.197  0.00  0.00    -0.268 OA
ATOM     37  N   UNL     1       1.612   2.348   2.966  0.00  0.00    -0.312 N 
ATOM     38  C   UNL     1       2.863   1.822   2.418  0.00  0.00    +0.130 C 
ENDBRANCH   2  23
TORSDOF 2
