REMARK  Name = ZINC34747984
REMARK  5 active torsions:
REMARK  status: ('A' for Active; 'I' for Inactive)
REMARK    1  A    between atoms: C_4  and  C_7
REMARK    2  A    between atoms: C_7  and  C_8
REMARK    3  A    between atoms: C_8  and  N_9
REMARK    4  A    between atoms: N_22  and  C_25
REMARK    5  A    between atoms: C_25  and  C_26
REMARK                            x       y       z     vdW  Elec       q    Type
REMARK                         _______ _______ _______ _____ _____    ______ ____
ROOT
ATOM      1  N   UNL     1       5.464  -1.669   1.510  0.00  0.00    -0.280 N 
ATOM      2  C   UNL     1       5.470  -3.012   1.604  0.00  0.00    +0.264 A 
ATOM      3  O   UNL     1       4.436  -3.623   1.815  0.00  0.00    -0.267 OA
ATOM      4  C   UNL     1       6.709  -3.711   1.453  0.00  0.00    +0.076 A 
ATOM      5  C   UNL     1       6.944  -5.163   1.518  0.00  0.00    -0.023 A 
ATOM      6  C   UNL     1       8.208  -5.581   1.344  0.00  0.00    -0.004 A 
ATOM      7  S   UNL     1       9.153  -4.098   1.083  0.00  0.00    -0.073 S 
ATOM      8  C   UNL     1       7.838  -2.915   1.214  0.00  0.00    +0.117 A 
ATOM      9  N   UNL     1       7.765  -1.590   1.133  0.00  0.00    -0.208 NA
ATOM     10  C   UNL     1       6.610  -0.971   1.270  0.00  0.00    +0.202 A 
ATOM     11  N   UNL     1       6.562   0.397   1.175  0.00  0.00    -0.304 N 
ATOM     12  C   UNL     1       6.712   1.244   2.369  0.00  0.00    +0.089 C 
ATOM     13  C   UNL     1       7.775   2.308   2.079  0.00  0.00    -0.059 C 
ATOM     14  N   UNL     1       7.414   3.040   0.859  0.00  0.00    +0.387 N 
ATOM     15  C   UNL     1       7.439   2.132  -0.295  0.00  0.00    -0.059 C 
ATOM     16  C   UNL     1       6.364   1.059  -0.124  0.00  0.00    +0.089 C 
ATOM     17  C   UNL     1       8.329  -7.079   1.436  0.00  0.00    +0.043 C 
ATOM     18  C   UNL     1       7.022  -7.531   2.124  0.00  0.00    +0.010 C 
ATOM     19  C   UNL     1       6.058  -6.391   1.745  0.00  0.00    +0.037 C 
ATOM     20  H   UNL     1       6.487   3.426   0.961  0.00  0.00    -0.081 HD
ENDROOT
BRANCH   1  21
ATOM     21  C   UNL     1       4.200  -0.944   1.662  0.00  0.00    +0.133 C 
BRANCH  21  22
ATOM     22  C   UNL     1       3.465  -0.912   0.320  0.00  0.00    +0.057 C 
BRANCH  22  26
ATOM     23  C   UNL     1      -0.220   1.202   0.762  0.00  0.00    +0.000 A 
ATOM     24  C   UNL     1       0.930   1.884   0.413  0.00  0.00    +0.000 A 
ATOM     25  C   UNL     1       2.123   1.200   0.270  0.00  0.00    +0.004 A 
ATOM     26  C   UNL     1       2.165  -0.166   0.477  0.00  0.00    -0.046 A 
ATOM     27  C   UNL     1       1.015  -0.848   0.827  0.00  0.00    +0.004 A 
ATOM     28  C   UNL     1      -0.178  -0.165   0.968  0.00  0.00    +0.000 A 
ENDBRANCH  22  26
ENDBRANCH  21  22
ENDBRANCH   1  21
BRANCH  14  29
ATOM     29  C   UNL     1       8.373   4.131   0.642  0.00  0.00    +0.018 C 
BRANCH  29  30
ATOM     30  C   UNL     1       7.935   4.958  -0.539  0.00  0.00    +0.194 C 
ATOM     31  O   UNL     1       6.923   4.668  -1.141  0.00  0.00    -0.278 OA
ATOM     32  N   UNL     1       8.667   6.021  -0.927  0.00  0.00    -0.331 N 
ATOM     33  H   UNL     1       9.477   6.254  -0.445  0.00  0.00    +0.145 HD
ATOM     34  H   UNL     1       8.385   6.553  -1.687  0.00  0.00    +0.145 HD
ENDBRANCH  29  30
ENDBRANCH  14  29
TORSDOF 5
