REMARK  Name = ZINC08643821
REMARK  7 active torsions:
REMARK  status: ('A' for Active; 'I' for Inactive)
REMARK    1  A    between atoms: C_1  and  C_2
REMARK    2  A    between atoms: C_5  and  C_8
REMARK    3  A    between atoms: C_8  and  C_30
REMARK    4  A    between atoms: N_11  and  C_15
REMARK    5  A    between atoms: C_15  and  C_16
REMARK    6  A    between atoms: N_18  and  C_19
REMARK    7  A    between atoms: C_24  and  C_25
REMARK                            x       y       z     vdW  Elec       q    Type
REMARK                         _______ _______ _______ _____ _____    ______ ____
ROOT
ATOM      1  C   UNL     1       0.069  -4.285   0.002  0.00  0.00    +0.135 C 
ATOM      2  C   UNL     1       0.769  -4.803  -1.239  0.00  0.00    +0.251 C 
ATOM      3  O   UNL     1       0.436  -4.632  -2.392  0.00  0.00    -0.272 OA
ATOM      4  N   UNL     1       1.836  -5.495  -0.793  0.00  0.00    -0.215 N 
ATOM      5  C   UNL     1       1.907  -5.486   0.543  0.00  0.00    +0.310 C 
ATOM      6  O   UNL     1       2.783  -6.041   1.177  0.00  0.00    -0.252 OA
ATOM      7  N   UNL     1       0.902  -4.792   1.106  0.00  0.00    -0.281 N 
ATOM      8  C   UNL     1      -1.351  -4.845   0.093  0.00  0.00    +0.047 C 
ATOM      9  H   UNL     1       0.754  -4.653   2.055  0.00  0.00    +0.152 HD
ENDROOT
BRANCH   1  14
ATOM     10  C   UNL     1      -0.029   1.493   0.017  0.00  0.00    +0.044 C 
ATOM     11  C   UNL     1      -0.003  -0.014   0.013  0.00  0.00    -0.050 A 
ATOM     12  C   UNL     1      -0.015  -0.702  -1.186  0.00  0.00    +0.004 A 
ATOM     13  C   UNL     1       0.014  -2.084  -1.189  0.00  0.00    +0.006 A 
ATOM     14  C   UNL     1       0.044  -2.778   0.006  0.00  0.00    -0.015 A 
ATOM     15  C   UNL     1       0.051  -2.090   1.205  0.00  0.00    +0.006 A 
ATOM     16  C   UNL     1       0.028  -0.707   1.208  0.00  0.00    +0.004 A 
ENDBRANCH   1  14
BRANCH   4  17
ATOM     17  C   UNL     1       2.799  -6.173  -1.664  0.00  0.00    +0.214 C 
BRANCH  17  18
ATOM     18  C   UNL     1       3.917  -5.223  -2.012  0.00  0.00    +0.235 C 
ATOM     19  O   UNL     1       3.909  -4.092  -1.576  0.00  0.00    -0.274 OA
ATOM     20  N   UNL     1       4.924  -5.631  -2.808  0.00  0.00    -0.284 N 
ATOM     21  H   UNL     1       4.965  -6.554  -3.104  0.00  0.00    +0.155 HD
BRANCH  20  22
ATOM     22  C   UNL     1       5.912  -4.724  -3.209  0.00  0.00    +0.045 A 
ATOM     23  C   UNL     1       6.323  -3.717  -2.344  0.00  0.00    +0.025 A 
ATOM     24  C   UNL     1       7.301  -2.826  -2.740  0.00  0.00    +0.022 A 
ATOM     25  C   UNL     1       7.863  -2.928  -4.000  0.00  0.00    +0.042 A 
ATOM     26  C   UNL     1       7.451  -3.926  -4.865  0.00  0.00    +0.034 A 
ATOM     27  C   UNL     1       6.477  -4.824  -4.473  0.00  0.00    +0.077 A 
ATOM     28 CL   UNL     1       9.088  -1.802  -4.497  0.00  0.00    -0.084 Cl
BRANCH  27  29
ATOM     29  C   UNL     1       6.030  -5.911  -5.415  0.00  0.00    +0.419 C 
ATOM     30  F   UNL     1       6.738  -5.808  -6.617  0.00  0.00    -0.166 F 
ATOM     31  F   UNL     1       6.274  -7.161  -4.836  0.00  0.00    -0.166 F 
ATOM     32  F   UNL     1       4.660  -5.775  -5.668  0.00  0.00    -0.166 F 
ENDBRANCH  27  29
ENDBRANCH  20  22
ENDBRANCH  17  18
ENDBRANCH   4  17
TORSDOF 5
