REMARK  Name = ZINC13064620
REMARK  12 active torsions:
REMARK  status: ('A' for Active; 'I' for Inactive)
REMARK    1  A    between atoms: C_1  and  C_2
REMARK    2  A    between atoms: C_2  and  C_3
REMARK    3  A    between atoms: C_3  and  C_5
REMARK    4  A    between atoms: C_3  and  N_70
REMARK    5  A    between atoms: N_9  and  C_10
REMARK    6  A    between atoms: C_10  and  C_11
REMARK    7  A    between atoms: C_17  and  C_18
REMARK    8  A    between atoms: C_17  and  N_70
REMARK    9  A    between atoms: C_25  and  C_26
REMARK   10  A    between atoms: C_25  and  N_70
REMARK   11  A    between atoms: C_30  and  C_39
REMARK   12  A    between atoms: C_31  and  C_38
REMARK                            x       y       z     vdW  Elec       q    Type
REMARK                         _______ _______ _______ _____ _____    ______ ____
ROOT
ATOM      1  N   UNL     1       1.239   4.135   1.835  0.00  0.00    +0.392 N 
ATOM      2  H   UNL     1       0.646   3.812   2.609  0.00  0.00    -0.080 HD
ENDROOT
BRANCH   1   3
ATOM      3  C   UNL     1       1.271   5.612   1.839  0.00  0.00    +0.003 C 
BRANCH   3   4
ATOM      4  C   UNL     1      -0.074   6.121   2.290  0.00  0.00    +0.138 A 
ATOM      5  N   UNL     1      -1.247   5.658   1.930  0.00  0.00    -0.115 NA
ATOM      6  N   UNL     1      -2.150   6.355   2.529  0.00  0.00    -0.023 NA
ATOM      7  N   UNL     1      -1.585   7.250   3.262  0.00  0.00    -0.044 NA
ATOM      8  N   UNL     1      -0.305   7.134   3.146  0.00  0.00    -0.228 N 
BRANCH   8   9
ATOM      9  C   UNL     1       0.707   7.955   3.816  0.00  0.00    +0.178 C 
BRANCH   9  10
ATOM     10  C   UNL     1       1.039   9.168   2.945  0.00  0.00    +0.140 C 
ATOM     11  C   UNL     1       2.186   9.976   3.588  0.00  0.00    +0.035 C 
ATOM     12  C   UNL     1       1.747  11.441   3.320  0.00  0.00    +0.031 C 
ATOM     13  C   UNL     1       0.207  11.312   3.427  0.00  0.00    +0.160 C 
ATOM     14  O   UNL     1      -0.102  10.030   2.857  0.00  0.00    -0.375 OA
ENDBRANCH   9  10
ENDBRANCH   8   9
ENDBRANCH   3   4
BRANCH   3  16
ATOM     15  C   UNL     1       2.993   5.741   0.034  0.00  0.00    +0.002 C 
ATOM     16  C   UNL     1       1.573   6.144   0.437  0.00  0.00    -0.011 C 
ENDBRANCH   3  16
ENDBRANCH   1   3
BRANCH   1  17
ATOM     17  C   UNL     1       2.604   3.599   2.020  0.00  0.00    -0.042 C 
BRANCH  17  18
ATOM     18  C   UNL     1       3.040   3.862   3.438  0.00  0.00    -0.064 A 
ATOM     19  C   UNL     1       3.810   4.973   3.730  0.00  0.00    +0.004 A 
ATOM     20  C   UNL     1       4.206   5.218   5.031  0.00  0.00    +0.038 A 
ATOM     21  C   UNL     1       3.841   4.344   6.041  0.00  0.00    +0.123 A 
ATOM     22  C   UNL     1       3.075   3.229   5.747  0.00  0.00    +0.038 A 
ATOM     23  C   UNL     1       2.675   2.989   4.446  0.00  0.00    +0.004 A 
ATOM     24  F   UNL     1       4.232   4.579   7.312  0.00  0.00    -0.205 F 
ENDBRANCH  17  18
ENDBRANCH   1  17
BRANCH   1  25
ATOM     25  C   UNL     1       0.673   3.645   0.560  0.00  0.00    -0.036 C 
BRANCH  25  26
ATOM     26  C   UNL     1       0.353   2.180   0.703  0.00  0.00    +0.001 A 
ATOM     27  C   UNL     1      -0.896   1.792   1.060  0.00  0.00    +0.017 A 
ATOM     28  C   UNL     1      -1.173   0.360   1.190  0.00  0.00    -0.001 A 
ATOM     29  C   UNL     1      -2.443  -0.100   1.556  0.00  0.00    +0.013 A 
ATOM     30  C   UNL     1      -2.670  -1.443   1.668  0.00  0.00    -0.047 A 
ATOM     31  C   UNL     1      -1.651  -2.354   1.422  0.00  0.00    -0.046 A 
ATOM     32  C   UNL     1      -0.393  -1.923   1.061  0.00  0.00    +0.030 A 
ATOM     33  C   UNL     1      -0.139  -0.561   0.940  0.00  0.00    +0.049 A 
ATOM     34  N   UNL     1       1.110  -0.102   0.580  0.00  0.00    -0.322 N 
ATOM     35  H   UNL     1       1.822  -0.738   0.408  0.00  0.00    +0.169 HD
ATOM     36  C   UNL     1       1.356   1.215   0.463  0.00  0.00    +0.251 A 
ATOM     37  O   UNL     1       2.472   1.585   0.142  0.00  0.00    -0.268 OA
ATOM     38  C   UNL     1      -1.925  -3.830   1.553  0.00  0.00    +0.044 C 
ATOM     39  C   UNL     1      -4.037  -1.939   2.062  0.00  0.00    +0.044 C 
ENDBRANCH  25  26
ENDBRANCH   1  25
TORSDOF 9
