REMARK  Name = ZINC14198179
REMARK  8 active torsions:
REMARK  status: ('A' for Active; 'I' for Inactive)
REMARK    1  A    between atoms: C_1  and  C_2
REMARK    2  A    between atoms: C_2  and  C_3
REMARK    3  A    between atoms: C_3  and  C_5
REMARK    4  A    between atoms: C_3  and  C_6
REMARK    5  A    between atoms: C_9  and  S_12
REMARK    6  A    between atoms: S_12  and  N_15
REMARK    7  A    between atoms: N_15  and  N_16
REMARK    8  A    between atoms: C_17  and  C_19
REMARK                            x       y       z     vdW  Elec       q    Type
REMARK                         _______ _______ _______ _____ _____    ______ ____
ROOT
ATOM      1  N   UNL     1      -2.096  -3.089   0.005  0.00  0.00    -0.108 NA
ATOM      2  H   UNL     1      -2.768  -3.006   0.701  0.00  0.00    +0.172 HD
ENDROOT
BRANCH   1   3
ATOM      3  N   UNL     1      -0.986  -2.235  -0.001  0.00  0.00    -0.228 N 
ATOM      4  C   UNL     1      -1.163  -0.899   0.008  0.00  0.00    +0.261 C 
ATOM      5  O   UNL     1      -2.287  -0.435   0.022  0.00  0.00    -0.269 OA
ATOM      6  H   UNL     1      -0.089  -2.606  -0.011  0.00  0.00    +0.171 HD
BRANCH   4   7
ATOM      7  C   UNL     1       0.002  -0.004   0.002  0.00  0.00    +0.063 A 
ATOM      8  C   UNL     1       1.315  -0.373  -0.013  0.00  0.00    +0.096 A 
ATOM      9  N   UNL     1       2.101   0.731  -0.014  0.00  0.00    -0.360 N 
ATOM     10  H   UNL     1       3.071   0.719  -0.023  0.00  0.00    +0.165 HD
ATOM     11  C   UNL     1       1.327   1.873  -0.001  0.00  0.00    +0.047 A 
ATOM     12  C   UNL     1      -0.018   1.470   0.010  0.00  0.00    +0.012 A 
ATOM     13  C   UNL     1      -1.032   2.424   0.030  0.00  0.00    +0.011 A 
ATOM     14  C   UNL     1      -0.709   3.763   0.029  0.00  0.00    +0.001 A 
ATOM     15  C   UNL     1       0.619   4.163   0.018  0.00  0.00    +0.002 A 
ATOM     16  C   UNL     1       1.633   3.230   0.004  0.00  0.00    +0.026 A 
ENDBRANCH   4   7
ENDBRANCH   1   3
BRANCH   1  17
ATOM     17  S   UNL     1      -2.263  -4.240  -1.174  0.00  0.00    +0.074 S 
ATOM     18  O   UNL     1      -3.391  -5.027  -0.817  0.00  0.00    -0.152 OA
ATOM     19  O   UNL     1      -2.170  -3.561  -2.419  0.00  0.00    -0.152 OA
BRANCH  17  23
ATOM     20  C   UNL     1       1.346  -6.959  -0.911  0.00  0.00    -0.044 A 
ATOM     21  C   UNL     1       0.208  -7.248  -0.180  0.00  0.00    +0.006 A 
ATOM     22  C   UNL     1      -0.894  -6.418  -0.261  0.00  0.00    +0.029 A 
ATOM     23  C   UNL     1      -0.858  -5.298  -1.071  0.00  0.00    +0.107 A 
ATOM     24  C   UNL     1       0.278  -5.012  -1.805  0.00  0.00    +0.029 A 
ATOM     25  C   UNL     1       1.382  -5.840  -1.721  0.00  0.00    +0.006 A 
BRANCH  20  26
ATOM     26  C   UNL     1       2.548  -7.865  -0.823  0.00  0.00    +0.016 C 
ATOM     27  C   UNL     1       2.868  -8.424  -2.211  0.00  0.00    +0.012 C 
BRANCH  26  29
ATOM     28  C   UNL     1       4.933  -8.015  -0.096  0.00  0.00    +0.004 C 
ATOM     29  C   UNL     1       3.748  -7.070  -0.304  0.00  0.00    +0.004 C 
ENDBRANCH  26  29
ENDBRANCH  20  26
ENDBRANCH  17  23
ENDBRANCH   1  17
TORSDOF 6
