REMARK  Name = ZINC28054068
REMARK  4 active torsions:
REMARK  status: ('A' for Active; 'I' for Inactive)
REMARK    1  A    between atoms: C_1  and  C_2
REMARK    2  A    between atoms: C_5  and  C_8
REMARK    3  A    between atoms: C_14  and  C_28
REMARK    4  A    between atoms: C_19  and  C_21
REMARK                            x       y       z     vdW  Elec       q    Type
REMARK                         _______ _______ _______ _____ _____    ______ ____
ROOT
ATOM      1  C   UNL     1      -5.601   3.321   0.428  0.00  0.00    +0.174 C 
ATOM      2  C   UNL     1      -4.097   3.433   0.445  0.00  0.00    +0.026 C 
ATOM      3  C   UNL     1      -3.461   4.556   0.117  0.00  0.00    +0.050 C 
ATOM      4  C   UNL     1      -1.980   4.569   0.155  0.00  0.00    +0.038 A 
ATOM      5  C   UNL     1      -1.261   5.758   0.155  0.00  0.00    +0.016 A 
ATOM      6  C   UNL     1       0.120   5.719   0.183  0.00  0.00    -0.050 A 
ATOM      7  C   UNL     1       0.784   4.505   0.212  0.00  0.00    +0.007 A 
ATOM      8  C   UNL     1       0.076   3.316   0.213  0.00  0.00    +0.046 A 
ATOM      9  C   UNL     1      -1.305   3.341   0.180  0.00  0.00    +0.131 A 
ATOM     10  O   UNL     1      -2.037   2.197   0.182  0.00  0.00    -0.479 OA
ATOM     11  C   UNL     1      -3.288   2.228   0.869  0.00  0.00    +0.237 C 
ATOM     12  C   UNL     1       0.906   7.004   0.184  0.00  0.00    +0.044 C 
ATOM     13  N   UNL     1      -4.147   5.708  -0.286  0.00  0.00    -0.282 N 
ATOM     14  C   UNL     1      -5.491   5.572  -0.593  0.00  0.00    +0.240 A 
ATOM     15  N   UNL     1      -6.183   4.452  -0.255  0.00  0.00    -0.201 N 
ATOM     16  N   UNL     1      -7.479   4.661  -0.724  0.00  0.00    -0.042 NA
ATOM     17  N   UNL     1      -7.487   5.830  -1.278  0.00  0.00    -0.021 NA
ATOM     18  N   UNL     1      -6.319   6.372  -1.201  0.00  0.00    -0.092 NA
ATOM     19  H   UNL     1      -3.616   6.670  -0.349  0.00  0.00    +0.155 HD
ENDROOT
BRANCH   1  24
ATOM     20  C   UNL     1      -7.579   3.244   5.857  0.00  0.00    +0.044 C 
ATOM     21  C   UNL     1      -7.063   3.264   4.441  0.00  0.00    -0.050 A 
ATOM     22  C   UNL     1      -7.448   2.278   3.551  0.00  0.00    +0.004 A 
ATOM     23  C   UNL     1      -6.975   2.296   2.253  0.00  0.00    +0.006 A 
ATOM     24  C   UNL     1      -6.117   3.301   1.843  0.00  0.00    -0.019 A 
ATOM     25  C   UNL     1      -5.729   4.283   2.735  0.00  0.00    +0.006 A 
ATOM     26  C   UNL     1      -6.205   4.267   4.032  0.00  0.00    +0.004 A 
ENDBRANCH   1  24
BRANCH  11  27
ATOM     27  C   UNL     1      -3.038   2.296   2.353  0.00  0.00    +0.032 A 
ATOM     28  C   UNL     1      -2.003   3.068   2.846  0.00  0.00    +0.010 A 
ATOM     29  C   UNL     1      -1.774   3.130   4.208  0.00  0.00    +0.001 A 
ATOM     30  C   UNL     1      -2.580   2.420   5.079  0.00  0.00    +0.003 A 
ATOM     31  C   UNL     1      -3.615   1.648   4.588  0.00  0.00    +0.039 A 
ATOM     32  C   UNL     1      -3.848   1.588   3.225  0.00  0.00    +0.130 A 
ATOM     33  F   UNL     1      -4.864   0.837   2.745  0.00  0.00    -0.205 F 
ENDBRANCH  11  27
TORSDOF 2
