REMARK  Name = ZINC14114760
REMARK  10 active torsions:
REMARK  status: ('A' for Active; 'I' for Inactive)
REMARK    1  A    between atoms: C_1  and  N_2
REMARK    2  A    between atoms: N_2  and  C_3
REMARK    3  A    between atoms: N_2  and  S_26
REMARK    4  A    between atoms: C_6  and  O_9
REMARK    5  A    between atoms: O_9  and  C_10
REMARK    6  A    between atoms: C_10  and  C_11
REMARK    7  A    between atoms: N_13  and  C_14
REMARK    8  A    between atoms: C_19  and  C_20
REMARK    9  A    between atoms: C_19  and  N_63
REMARK   10  A    between atoms: S_26  and  C_29
REMARK                            x       y       z     vdW  Elec       q    Type
REMARK                         _______ _______ _______ _____ _____    ______ ____
ROOT
ATOM      1  C   UNL     1       0.398   7.910  -2.655  0.00  0.00    +0.324 C 
ENDROOT
BRANCH   1   2
ATOM      2  C   UNL     1       0.543   9.197  -3.425  0.00  0.00    +0.251 C 
ATOM      3  O   UNL     1       0.236   9.240  -4.598  0.00  0.00    -0.272 OA
ATOM      4  N   UNL     1       1.014  10.301  -2.811  0.00  0.00    -0.310 N 
ATOM      5  H   UNL     1       1.260  10.266  -1.873  0.00  0.00    +0.149 HD
BRANCH   4   6
ATOM      6  C   UNL     1       1.156  11.552  -3.559  0.00  0.00    +0.070 C 
ATOM      7  C   UNL     1       2.505  11.566  -4.282  0.00  0.00    +0.003 C 
ATOM      8  C   UNL     1       2.674  12.900  -5.013  0.00  0.00    -0.077 C 
ATOM      9  C   UNL     1       1.301  14.037  -3.372  0.00  0.00    -0.077 C 
ATOM     10  C   UNL     1       1.091  12.737  -2.592  0.00  0.00    +0.003 C 
ATOM     11  N   UNL     1       2.627  13.998  -4.024  0.00  0.00    +0.382 N 
ATOM     12  H   UNL     1       3.345  13.832  -3.309  0.00  0.00    -0.081 HD
BRANCH  11  13
ATOM     13  C   UNL     1       2.901  15.288  -4.689  0.00  0.00    -0.043 C 
BRANCH  13  14
ATOM     14  C   UNL     1       4.334  15.300  -5.154  0.00  0.00    -0.064 A 
ATOM     15  C   UNL     1       5.329  15.762  -4.313  0.00  0.00    +0.002 A 
ATOM     16  C   UNL     1       6.645  15.768  -4.737  0.00  0.00    +0.000 A 
ATOM     17  C   UNL     1       6.964  15.322  -6.006  0.00  0.00    +0.000 A 
ATOM     18  C   UNL     1       5.968  14.866  -6.849  0.00  0.00    +0.000 A 
ATOM     19  C   UNL     1       4.653  14.854  -6.423  0.00  0.00    +0.002 A 
ENDBRANCH  13  14
ENDBRANCH  11  13
ENDBRANCH   4   6
ENDBRANCH   1   2
BRANCH   1  20
ATOM     20  O   UNL     1      -0.117   6.894  -3.518  0.00  0.00    -0.483 OA
BRANCH  20  24
ATOM     21  C   UNL     1      -0.700   3.153  -1.871  0.00  0.00    +0.051 A 
ATOM     22  C   UNL     1      -0.208   4.189  -1.087  0.00  0.00    +0.028 A 
ATOM     23  C   UNL     1      -0.008   5.438  -1.640  0.00  0.00    +0.047 A 
ATOM     24  C   UNL     1      -0.309   5.662  -2.975  0.00  0.00    +0.121 A 
ATOM     25  C   UNL     1      -0.807   4.630  -3.757  0.00  0.00    +0.047 A 
ATOM     26  C   UNL     1      -1.002   3.378  -3.207  0.00  0.00    +0.028 A 
BRANCH  21  28
ATOM     27  C   UNL     1      -1.883   0.973  -1.897  0.00  0.00    +0.157 C 
ATOM     28  N   UNL     1      -0.897   1.885  -1.312  0.00  0.00    -0.206 N 
BRANCH  28  29
ATOM     29  S   UNL     1      -0.017   1.417   0.010  0.00  0.00    +0.081 S 
ATOM     30  O   UNL     1       0.002  -0.004   0.002  0.00  0.00    -0.149 OA
ATOM     31  O   UNL     1       1.172   2.195   0.003  0.00  0.00    -0.149 OA
BRANCH  29  32
ATOM     32  C   UNL     1      -0.927   1.900   1.439  0.00  0.00    +0.146 A 
ATOM     33  C   UNL     1      -1.862   1.205   2.132  0.00  0.00    +0.036 A 
ATOM     34  C   UNL     1      -2.451   1.790   3.236  0.00  0.00    +0.010 A 
ATOM     35  C   UNL     1      -2.076   3.043   3.595  0.00  0.00    +0.047 A 
ATOM     36  S   UNL     1      -0.850   3.430   2.357  0.00  0.00    -0.077 S 
ENDBRANCH  29  32
ENDBRANCH  28  29
ENDBRANCH  21  28
ENDBRANCH  20  24
ENDBRANCH   1  20
TORSDOF 9
