REMARK  Name = ZINC52447655
REMARK  8 active torsions:
REMARK  status: ('A' for Active; 'I' for Inactive)
REMARK    1  A    between atoms: C_4  and  O_22
REMARK    2  A    between atoms: C_5  and  C_7
REMARK    3  A    between atoms: C_7  and  N_8
REMARK    4  A    between atoms: N_8  and  C_9
REMARK    5  A    between atoms: C_12  and  N_19
REMARK    6  A    between atoms: C_14  and  S_15
REMARK    7  A    between atoms: S_15  and  N_18
REMARK    8  A    between atoms: O_22  and  C_23
REMARK                            x       y       z     vdW  Elec       q    Type
REMARK                         _______ _______ _______ _____ _____    ______ ____
ROOT
ATOM      1  N   UNL     1       1.623  -2.402   1.831  0.00  0.00    -0.338 N 
ATOM      2  H   UNL     1       1.803  -1.659   2.427  0.00  0.00    +0.146 HD
ENDROOT
BRANCH   1   3
ATOM      3  C   UNL     1       1.720  -3.714   2.300  0.00  0.00    +0.054 A 
ATOM      4  C   UNL     1       1.468  -4.780   1.445  0.00  0.00    +0.027 A 
ATOM      5  C   UNL     1       1.565  -6.076   1.913  0.00  0.00    +0.034 A 
ATOM      6  C   UNL     1       1.912  -6.313   3.230  0.00  0.00    +0.128 A 
ATOM      7  C   UNL     1       2.163  -5.255   4.084  0.00  0.00    +0.063 A 
ATOM      8  C   UNL     1       2.073  -3.956   3.621  0.00  0.00    +0.128 A 
BRANCH   8   9
ATOM      9  S   UNL     1       2.400  -2.608   4.708  0.00  0.00    +0.058 S 
ATOM     10  O   UNL     1       1.318  -1.698   4.562  0.00  0.00    -0.153 OA
ATOM     11  O   UNL     1       2.755  -3.174   5.962  0.00  0.00    -0.153 OA
BRANCH   9  12
ATOM     12  N   UNL     1       3.749  -1.835   4.138  0.00  0.00    -0.203 NA
ATOM     13  H   UNL     1       4.193  -2.160   3.339  0.00  0.00    +0.144 HD
ATOM     14  H   UNL     1       4.095  -1.058   4.603  0.00  0.00    +0.144 HD
ENDBRANCH   9  12
ENDBRANCH   8   9
BRANCH   6  15
ATOM     15  N   UNL     1       2.015  -7.703   3.728  0.00  0.00    +0.056 N 
ATOM     16  O   UNL     1       1.796  -8.630   2.983  0.00  0.00    -0.126 OA
ATOM     17  O   UNL     1       2.319  -7.912   4.880  0.00  0.00    -0.126 OA
ENDBRANCH   6  15
ENDBRANCH   1   3
BRANCH   1  18
ATOM     18  C   UNL     1       1.250  -2.149   0.437  0.00  0.00    +0.140 C 
BRANCH  18  23
ATOM     19  C   UNL     1      -0.019   1.374  -0.045  0.00  0.00    +0.001 A 
ATOM     20  C   UNL     1       1.156   2.066  -0.271  0.00  0.00    +0.004 A 
ATOM     21  C   UNL     1       2.364   1.397  -0.269  0.00  0.00    +0.046 A 
ATOM     22  C   UNL     1       2.398   0.029  -0.039  0.00  0.00    +0.126 A 
ATOM     23  C   UNL     1       1.217  -0.663   0.187  0.00  0.00    +0.011 A 
ATOM     24  C   UNL     1       0.011   0.011   0.184  0.00  0.00    +0.009 A 
BRANCH  22  25
ATOM     25  O   UNL     1       3.586  -0.632  -0.037  0.00  0.00    -0.488 OA
BRANCH  25  26
ATOM     26  C   UNL     1       4.769   0.160  -0.156  0.00  0.00    +0.173 C 
ATOM     27  C   UNL     1       5.100   0.396  -1.644  0.00  0.00    +0.044 C 
ATOM     28  C   UNL     1       6.646   0.340  -1.703  0.00  0.00    +0.004 C 
ATOM     29  C   UNL     1       6.987  -0.786  -0.695  0.00  0.00    +0.004 C 
ATOM     30  C   UNL     1       5.969  -0.591   0.448  0.00  0.00    +0.044 C 
ENDBRANCH  25  26
ENDBRANCH  22  25
ENDBRANCH  18  23
ENDBRANCH   1  18
TORSDOF 8
