REMARK  Name = ZINC02444612
REMARK  1 active torsions:
REMARK  status: ('A' for Active; 'I' for Inactive)
REMARK    1  A    between atoms: N_20  and  C_23
REMARK                            x       y       z     vdW  Elec       q    Type
REMARK                         _______ _______ _______ _____ _____    ______ ____
ROOT
ATOM      1  C   UNL     1      -1.181   3.095  -0.312  0.00  0.00    +0.040 A 
ATOM      2  C   UNL     1       0.016   3.773  -0.411  0.00  0.00    +0.026 A 
ATOM      3  C   UNL     1       1.222   3.078  -0.359  0.00  0.00    +0.036 A 
ATOM      4  C   UNL     1       1.198   1.695  -0.207  0.00  0.00    -0.024 A 
ATOM      5  C   UNL     1       0.003   1.020  -0.108  0.00  0.00    +0.043 A 
ATOM      6  C   UNL     1      -1.194   1.718  -0.166  0.00  0.00    +0.124 A 
ATOM      7  F   UNL     1      -2.368   1.057  -0.077  0.00  0.00    -0.205 F 
ATOM      8  C   UNL     1       2.636   1.258  -0.188  0.00  0.00    +0.053 C 
ATOM      9  C   UNL     1       2.986   0.538   1.119  0.00  0.00    +0.089 C 
ATOM     10  C   UNL     1       2.917  -0.973   0.766  0.00  0.00    +0.074 C 
ATOM     11  C   UNL     1       2.532  -1.023  -0.724  0.00  0.00    -0.054 C 
ATOM     12  C   UNL     1       4.392   0.211  -1.480  0.00  0.00    -0.076 C 
ATOM     13  C   UNL     1       4.638  -1.232  -1.963  0.00  0.00    -0.020 C 
ATOM     14  C   UNL     1       3.413  -2.059  -1.445  0.00  0.00    -0.016 C 
ATOM     15  C   UNL     1       4.347  -1.436   0.932  0.00  0.00    +0.228 C 
ATOM     16  O   UNL     1       4.743  -2.567   0.750  0.00  0.00    -0.275 OA
ATOM     17  N   UNL     1       5.107  -0.402   1.312  0.00  0.00    -0.209 N 
ATOM     18  C   UNL     1       4.446   0.753   1.447  0.00  0.00    +0.229 C 
ATOM     19  O   UNL     1       4.941   1.809   1.780  0.00  0.00    -0.275 OA
ATOM     20  C   UNL     1       3.431   2.527  -0.342  0.00  0.00    +0.212 C 
ATOM     21  O   UNL     1       4.640   2.624  -0.377  0.00  0.00    -0.277 OA
ATOM     22  N   UNL     1       2.541   3.533  -0.435  0.00  0.00    -0.286 N 
ATOM     23  H   UNL     1       2.787   4.465  -0.543  0.00  0.00    +0.155 HD
ATOM     24  N   UNL     1       2.937   0.270  -1.228  0.00  0.00    +0.395 N 
ATOM     25  H   UNL     1       2.435   0.499  -2.094  0.00  0.00    -0.079 HD
ENDROOT
BRANCH  17  26
ATOM     26  C   UNL     1       6.485  -0.520   1.548  0.00  0.00    +0.064 A 
ATOM     27  C   UNL     1       7.389  -0.283   0.522  0.00  0.00    +0.045 A 
ATOM     28  C   UNL     1       8.746  -0.399   0.758  0.00  0.00    +0.043 A 
ATOM     29  C   UNL     1       9.203  -0.751   2.016  0.00  0.00    +0.021 A 
ATOM     30  C   UNL     1       8.305  -0.989   3.040  0.00  0.00    +0.023 A 
ATOM     31  C   UNL     1       6.947  -0.868   2.811  0.00  0.00    +0.063 A 
ATOM     32 CL   UNL     1       5.819  -1.158   4.099  0.00  0.00    -0.082 Cl
ATOM     33 CL   UNL     1       9.878  -0.103  -0.524  0.00  0.00    -0.083 Cl
ENDBRANCH  17  26
TORSDOF 1
