REMARK  Name = ZINC47876993
REMARK  11 active torsions:
REMARK  status: ('A' for Active; 'I' for Inactive)
REMARK    1  A    between atoms: C_1  and  N_2
REMARK    2  A    between atoms: N_2  and  C_3
REMARK    3  A    between atoms: N_2  and  C_4
REMARK    4  A    between atoms: C_4  and  C_6
REMARK    5  A    between atoms: C_4  and  C_23
REMARK    6  A    between atoms: C_6  and  N_7
REMARK    7  A    between atoms: N_10  and  C_11
REMARK    8  A    between atoms: C_16  and  O_17
REMARK    9  A    between atoms: O_17  and  C_18
REMARK   10  A    between atoms: C_18  and  C_19
REMARK   11  A    between atoms: C_19  and  C_20
REMARK                            x       y       z     vdW  Elec       q    Type
REMARK                         _______ _______ _______ _____ _____    ______ ____
ROOT
ATOM      1  N   UNL     1      -1.154  -2.654   1.119  0.00  0.00    -0.300 N 
ATOM      2  C   UNL     1      -1.371  -3.970   1.309  0.00  0.00    +0.304 C 
ATOM      3  O   UNL     1      -1.960  -4.618   0.465  0.00  0.00    -0.253 OA
ATOM      4  N   UNL     1      -0.936  -4.569   2.436  0.00  0.00    -0.266 N 
ATOM      5  H   UNL     1      -0.685  -2.138   1.792  0.00  0.00    +0.150 HD
ATOM      6  H   UNL     1      -0.522  -4.042   3.136  0.00  0.00    +0.156 HD
ENDROOT
BRANCH   4   7
ATOM      7  C   UNL     1      -1.082  -5.954   2.594  0.00  0.00    +0.077 A 
ATOM      8  C   UNL     1      -1.023  -6.791   1.489  0.00  0.00    +0.027 A 
ATOM      9  C   UNL     1      -1.167  -8.156   1.648  0.00  0.00    +0.002 A 
ATOM     10  C   UNL     1      -1.370  -8.692   2.907  0.00  0.00    +0.004 A 
ATOM     11  C   UNL     1      -1.430  -7.864   4.013  0.00  0.00    +0.047 A 
ATOM     12  C   UNL     1      -1.281  -6.495   3.862  0.00  0.00    +0.142 A 
BRANCH  12  13
ATOM     13  O   UNL     1      -1.334  -5.680   4.950  0.00  0.00    -0.490 OA
BRANCH  13  14
ATOM     14  C   UNL     1      -1.540  -6.304   6.219  0.00  0.00    +0.238 C 
BRANCH  14  15
ATOM     15  C   UNL     1      -1.571  -5.236   7.314  0.00  0.00    +0.136 C 
BRANCH  15  16
ATOM     16  C   UNL     1      -1.789  -5.894   8.652  0.00  0.00    +0.214 C 
ATOM     17  O   UNL     1      -1.908  -7.099   8.723  0.00  0.00    -0.276 OA
ATOM     18  N   UNL     1      -1.851  -5.144   9.770  0.00  0.00    -0.329 N 
ATOM     19  H   UNL     1      -1.756  -4.180   9.713  0.00  0.00    +0.145 HD
ATOM     20  H   UNL     1      -1.992  -5.567  10.631  0.00  0.00    +0.145 HD
ENDBRANCH  15  16
ENDBRANCH  14  15
ENDBRANCH  13  14
ENDBRANCH  12  13
ENDBRANCH   4   7
BRANCH   1  21
ATOM     21  C   UNL     1      -1.627  -2.003  -0.105  0.00  0.00    +0.098 C 
BRANCH  21  22
ATOM     22  C   UNL     1      -1.368  -0.498  -0.015  0.00  0.00    +0.016 C 
BRANCH  22  23
ATOM     23  C   UNL     1       0.117  -0.245   0.018  0.00  0.00    +0.093 A 
ATOM     24  C   UNL     1       0.874   0.140  -1.025  0.00  0.00    +0.043 A 
ATOM     25  C   UNL     1       2.200   0.258  -0.548  0.00  0.00    +0.041 A 
ATOM     26  C   UNL     1       2.174  -0.063   0.758  0.00  0.00    +0.195 A 
ATOM     27  O   UNL     1       0.909  -0.361   1.097  0.00  0.00    -0.469 OA
ENDBRANCH  22  23
BRANCH  22  29
ATOM     28  C   UNL     1      -1.815   1.492   1.248  0.00  0.00    -0.096 C 
ATOM     29  N   UNL     1      -1.983   0.033   1.208  0.00  0.00    +0.384 N 
ATOM     30  C   UNL     1      -3.415  -0.295   1.219  0.00  0.00    -0.096 C 
ATOM     31  H   UNL     1      -1.538  -0.379   2.015  0.00  0.00    -0.082 HD
ENDBRANCH  22  29
ENDBRANCH  21  22
ENDBRANCH   1  21
TORSDOF 9
