REMARK  Name = ZINC36597423
REMARK  13 active torsions:
REMARK  status: ('A' for Active; 'I' for Inactive)
REMARK    1  A    between atoms: C_1  and  C_2
REMARK    2  A    between atoms: C_5  and  C_7
REMARK    3  A    between atoms: C_7  and  N_8
REMARK    4  A    between atoms: N_8  and  C_9
REMARK    5  A    between atoms: C_9  and  C_11
REMARK    6  A    between atoms: C_9  and  C_17
REMARK    7  A    between atoms: N_19  and  C_20
REMARK    8  A    between atoms: C_20  and  C_21
REMARK    9  A    between atoms: C_20  and  C_22
REMARK   10  A    between atoms: C_20  and  C_23
REMARK   11  A    between atoms: C_24  and  C_26
REMARK   12  A    between atoms: C_27  and  O_33
REMARK   13  A    between atoms: C_31  and  O_32
REMARK                            x       y       z     vdW  Elec       q    Type
REMARK                         _______ _______ _______ _____ _____    ______ ____
ROOT
ATOM      1  N   UNL     1       2.232  -3.314  -1.030  0.00  0.00    -0.278 N 
ATOM      2  C   UNL     1       1.189  -4.121  -1.306  0.00  0.00    +0.255 C 
ATOM      3  O   UNL     1       1.091  -4.633  -2.404  0.00  0.00    -0.270 OA
ENDROOT
BRANCH   2   4
ATOM      4  C   UNL     1       0.168  -4.382  -0.277  0.00  0.00    +0.119 A 
ATOM      5  C   UNL     1      -0.961  -3.555  -0.177  0.00  0.00    +0.133 A 
ATOM      6  C   UNL     1      -1.915  -3.810   0.794  0.00  0.00    +0.046 A 
ATOM      7  C   UNL     1      -1.759  -4.875   1.662  0.00  0.00    +0.007 A 
ATOM      8  C   UNL     1      -0.650  -5.696   1.572  0.00  0.00    +0.046 A 
ATOM      9  C   UNL     1       0.314  -5.462   0.605  0.00  0.00    +0.133 A 
BRANCH   9  10
ATOM     10  O   UNL     1       1.398  -6.273   0.515  0.00  0.00    -0.506 OA
ATOM     11  H   UNL     1       2.149  -5.987   1.054  0.00  0.00    +0.292 HD
ENDBRANCH   9  10
BRANCH   5  12
ATOM     12  O   UNL     1      -1.116  -2.510  -1.027  0.00  0.00    -0.506 OA
ATOM     13  H   UNL     1      -1.595  -2.730  -1.837  0.00  0.00    +0.292 HD
ENDBRANCH   5  12
ENDBRANCH   2   4
BRANCH   1  14
ATOM     14  C   UNL     1       2.419  -2.796   0.328  0.00  0.00    +0.183 C 
BRANCH  14  19
ATOM     15  C   UNL     1       1.460   2.156   0.289  0.00  0.00    +0.086 C 
ATOM     16  C   UNL     1       1.274   0.669   0.453  0.00  0.00    +0.102 A 
ATOM     17  C   UNL     1       0.147   0.057   0.858  0.00  0.00    +0.045 A 
ATOM     18  C   UNL     1       0.416  -1.331   0.869  0.00  0.00    +0.046 A 
ATOM     19  C   UNL     1       1.691  -1.484   0.469  0.00  0.00    +0.122 A 
ATOM     20  O   UNL     1       2.204  -0.269   0.213  0.00  0.00    -0.463 OA
ENDBRANCH  14  19
ENDBRANCH   1  14
BRANCH   1  21
ATOM     21  C   UNL     1       3.180  -2.954  -2.087  0.00  0.00    +0.166 C 
BRANCH  21  22
ATOM     22  C   UNL     1       2.419  -2.359  -3.274  0.00  0.00    +0.019 C 
ATOM     23  C   UNL     1       3.417  -1.851  -4.316  0.00  0.00    +0.006 C 
ATOM     24  C   UNL     1       2.656  -1.256  -5.503  0.00  0.00    +0.000 C 
ATOM     25  C   UNL     1       1.786  -0.093  -5.019  0.00  0.00    +0.000 C 
ATOM     26  C   UNL     1       0.789  -0.602  -3.977  0.00  0.00    +0.000 C 
ATOM     27  C   UNL     1       1.550  -1.197  -2.790  0.00  0.00    +0.006 C 
ENDBRANCH  21  22
BRANCH  21  28
ATOM     28  C   UNL     1       3.924  -4.186  -2.535  0.00  0.00    +0.234 C 
ATOM     29  O   UNL     1       3.570  -5.281  -2.152  0.00  0.00    -0.274 OA
ATOM     30  N   UNL     1       4.984  -4.071  -3.360  0.00  0.00    -0.309 N 
ATOM     31  H   UNL     1       5.302  -3.193  -3.621  0.00  0.00    +0.149 HD
BRANCH  30  32
ATOM     32  C   UNL     1       5.654  -5.273  -3.864  0.00  0.00    +0.026 C 
ATOM     33  C   UNL     1       4.657  -6.118  -4.658  0.00  0.00    +0.031 C 
ATOM     34  C   UNL     1       6.815  -4.865  -4.773  0.00  0.00    +0.031 C 
ATOM     35  C   UNL     1       6.190  -6.088  -2.686  0.00  0.00    +0.031 C 
ENDBRANCH  30  32
ENDBRANCH  21  28
ENDBRANCH   1  21
TORSDOF 9
