REMARK  Name = ZINC21077179
REMARK  12 active torsions:
REMARK  status: ('A' for Active; 'I' for Inactive)
REMARK    1  A    between atoms: C_1  and  C_2
REMARK    2  A    between atoms: C_2  and  C_3
REMARK    3  A    between atoms: C_3  and  C_5
REMARK    4  A    between atoms: C_3  and  N_6
REMARK    5  A    between atoms: N_6  and  S_7
REMARK    6  A    between atoms: S_7  and  C_10
REMARK    7  A    between atoms: C_13  and  N_16
REMARK    8  A    between atoms: C_17  and  C_19
REMARK    9  A    between atoms: C_19  and  S_20
REMARK   10  A    between atoms: S_20  and  C_21
REMARK   11  A    between atoms: N_26  and  N_27
REMARK   12  A    between atoms: C_28  and  C_29
REMARK                            x       y       z     vdW  Elec       q    Type
REMARK                         _______ _______ _______ _____ _____    ______ ____
ROOT
ATOM      1  N   UNL     1      -1.692   6.376   0.045  0.00  0.00    -0.285 N 
ATOM      2  C   UNL     1      -1.942   5.051   0.037  0.00  0.00    +0.227 C 
ATOM      3  O   UNL     1      -3.086   4.650   0.032  0.00  0.00    -0.275 OA
ATOM      4  H   UNL     1      -0.657   6.740   0.126  0.00  0.00    +0.155 HD
ENDROOT
BRANCH   1   8
ATOM      5  C   UNL     1      -4.839   9.091  -0.239  0.00  0.00    +0.105 A 
ATOM      6  C   UNL     1      -5.011   7.904   0.449  0.00  0.00    +0.030 A 
ATOM      7  C   UNL     1      -3.970   7.002   0.545  0.00  0.00    +0.025 A 
ATOM      8  C   UNL     1      -2.749   7.288  -0.051  0.00  0.00    +0.034 A 
ATOM      9  C   UNL     1      -2.577   8.483  -0.736  0.00  0.00    +0.025 A 
ATOM     10  C   UNL     1      -3.624   9.378  -0.834  0.00  0.00    +0.030 A 
BRANCH   5  11
ATOM     11  S   UNL     1      -6.170  10.239  -0.360  0.00  0.00    +0.059 S 
ATOM     12  O   UNL     1      -5.924  11.025  -1.518  0.00  0.00    -0.153 OA
ATOM     13  O   UNL     1      -7.367   9.494  -0.184  0.00  0.00    -0.153 OA
BRANCH  11  14
ATOM     14  N   UNL     1      -6.054  11.261   0.939  0.00  0.00    -0.187 NA
ATOM     15  H   UNL     1      -6.756  11.145   1.778  0.00  0.00    +0.148 HD
BRANCH  14  16
ATOM     16  C   UNL     1      -4.902  12.156   1.066  0.00  0.00    +0.073 C 
ATOM     17  C   UNL     1      -5.254  13.526   0.484  0.00  0.00    +0.025 C 
BRANCH  16  19
ATOM     18  C   UNL     1      -4.064  10.961   3.094  0.00  0.00    +0.005 C 
ATOM     19  C   UNL     1      -4.535  12.309   2.544  0.00  0.00    +0.017 C 
ENDBRANCH  16  19
ENDBRANCH  14  16
ENDBRANCH  11  14
ENDBRANCH   5  11
ENDBRANCH   1   8
BRANCH   2  20
ATOM     20  C   UNL     1      -0.799   4.069   0.035  0.00  0.00    +0.173 C 
BRANCH  20  21
ATOM     21  S   UNL     1      -1.455   2.378   0.024  0.00  0.00    -0.075 S 
BRANCH  21  22
ATOM     22  C   UNL     1      -0.016   1.362   0.022  0.00  0.00    +0.211 A 
ATOM     23  N   UNL     1       0.003  -0.004   0.015  0.00  0.00    -0.186 NA
ATOM     24  C   UNL     1       1.309  -0.409   0.010  0.00  0.00    +0.232 A 
ATOM     25  N   UNL     1       2.065   0.662   0.014  0.00  0.00    -0.245 N 
ATOM     26  N   UNL     1       1.226   1.784   0.022  0.00  0.00    -0.144 NA
ATOM     27  N   UNL     1       1.755  -1.722   0.002  0.00  0.00    -0.205 N 
ATOM     28  H   UNL     1       1.030  -2.550  -0.001  0.00  0.00    +0.177 HD
ATOM     29  H   UNL     1       3.160   0.562   0.011  0.00  0.00    +0.192 HD
BRANCH  27  30
ATOM     30  N   UNL     1       3.130  -1.995  -0.002  0.00  0.00    -0.188 NA
ATOM     31  C   UNL     1       3.548  -3.224  -0.009  0.00  0.00    +0.138 C 
BRANCH  31  32
ATOM     32  C   UNL     1       4.994  -3.511  -0.014  0.00  0.00    -0.005 A 
ATOM     33  C   UNL     1       5.917  -2.462  -0.016  0.00  0.00    +0.012 A 
ATOM     34  C   UNL     1       7.268  -2.737  -0.015  0.00  0.00    +0.039 A 
ATOM     35  C   UNL     1       7.711  -4.050  -0.023  0.00  0.00    +0.123 A 
ATOM     36  C   UNL     1       6.800  -5.095  -0.026  0.00  0.00    +0.039 A 
ATOM     37  C   UNL     1       5.447  -4.833  -0.022  0.00  0.00    +0.012 A 
ATOM     38  F   UNL     1       9.036  -4.313  -0.028  0.00  0.00    -0.205 F 
ENDBRANCH  31  32
ENDBRANCH  27  30
ENDBRANCH  21  22
ENDBRANCH  20  21
ENDBRANCH   2  20
TORSDOF 10
