REMARK  Name = ZINC67393520
REMARK  7 active torsions:
REMARK  status: ('A' for Active; 'I' for Inactive)
REMARK    1  A    between atoms: C_1  and  C_2
REMARK    2  A    between atoms: C_2  and  C_3
REMARK    3  A    between atoms: C_3  and  N_4
REMARK    4  A    between atoms: C_7  and  C_10
REMARK    5  A    between atoms: C_10  and  N_11
REMARK    6  A    between atoms: C_12  and  C_14
REMARK    7  A    between atoms: N_16  and  C_17
REMARK                            x       y       z     vdW  Elec       q    Type
REMARK                         _______ _______ _______ _____ _____    ______ ____
ROOT
ATOM      1  C   UNL     1      -3.657  -8.639   0.968  0.00  0.00    +0.303 C 
ATOM      2  O   UNL     1      -3.485  -8.564   2.167  0.00  0.00    -0.265 OA
ATOM      3  N   UNL     1      -3.936  -9.829   0.400  0.00  0.00    -0.278 N 
ATOM      4  H   UNL     1      -4.139  -9.880  -0.547  0.00  0.00    +0.155 HD
ENDROOT
BRANCH   3   5
ATOM      5  C   UNL     1      -3.933 -10.992   1.177  0.00  0.00    +0.038 A 
ATOM      6  C   UNL     1      -3.491 -12.191   0.632  0.00  0.00    +0.027 A 
ATOM      7  C   UNL     1      -3.486 -13.340   1.399  0.00  0.00    +0.051 A 
ATOM      8  C   UNL     1      -3.923 -13.301   2.713  0.00  0.00    +0.167 A 
ATOM      9  C   UNL     1      -4.368 -12.100   3.263  0.00  0.00    +0.169 A 
ATOM     10  C   UNL     1      -4.366 -10.947   2.496  0.00  0.00    +0.073 A 
ATOM     11  O   UNL     1      -4.742 -12.323   4.559  0.00  0.00    -0.447 OA
ATOM     12  C   UNL     1      -4.883 -13.743   4.670  0.00  0.00    +0.254 C 
ATOM     13  O   UNL     1      -4.017 -14.279   3.665  0.00  0.00    -0.448 OA
ATOM     14  C   UNL     1      -4.473 -14.228   6.067  0.00  0.00    +0.093 C 
ATOM     15  C   UNL     1      -5.819 -14.385   6.820  0.00  0.00    +0.008 C 
ATOM     16  C   UNL     1      -6.768 -14.926   5.720  0.00  0.00    +0.008 C 
ATOM     17  C   UNL     1      -6.333 -14.176   4.441  0.00  0.00    +0.093 C 
ENDBRANCH   3   5
BRANCH   1  19
ATOM     18  N   UNL     1      -3.279  -6.223   0.688  0.00  0.00    -0.307 N 
ATOM     19  C   UNL     1      -3.559  -7.413   0.120  0.00  0.00    +0.299 C 
ATOM     20  O   UNL     1      -3.730  -7.489  -1.079  0.00  0.00    -0.265 OA
ATOM     21  H   UNL     1      -3.142  -6.163   1.646  0.00  0.00    +0.149 HD
BRANCH  18  22
ATOM     22  C   UNL     1      -3.183  -5.020  -0.143  0.00  0.00    +0.106 C 
BRANCH  22  26
ATOM     23  N   UNL     1      -1.431  -1.997  -0.003  0.00  0.00    +0.380 N 
ATOM     24  C   UNL     1      -0.892  -2.510   1.283  0.00  0.00    -0.079 C 
ATOM     25  C   UNL     1      -1.444  -3.957   1.346  0.00  0.00    -0.016 C 
ATOM     26  C   UNL     1      -2.859  -3.814   0.741  0.00  0.00    -0.012 C 
ATOM     27  C   UNL     1      -2.808  -2.528  -0.104  0.00  0.00    -0.074 C 
ATOM     28  H   UNL     1      -0.871  -2.332  -0.774  0.00  0.00    -0.082 HD
BRANCH  23  29
ATOM     29  C   UNL     1      -1.453  -0.529   0.007  0.00  0.00    -0.079 C 
BRANCH  29  31
ATOM     30  C   UNL     1      -0.042   1.533  -0.003  0.00  0.00    +0.002 C 
ATOM     31  C   UNL     1      -0.019   0.004  -0.014  0.00  0.00    -0.022 C 
ENDBRANCH  29  31
ENDBRANCH  23  29
ENDBRANCH  22  26
ENDBRANCH  18  22
ENDBRANCH   1  19
TORSDOF 6
