REMARK  Name = ZINC00938080
REMARK  5 active torsions:
REMARK  status: ('A' for Active; 'I' for Inactive)
REMARK    1  A    between atoms: C_1  and  C_2
REMARK    2  A    between atoms: C_2  and  C_4
REMARK    3  A    between atoms: C_2  and  O_23
REMARK    4  A    between atoms: C_4  and  C_6
REMARK    5  A    between atoms: C_4  and  N_8
REMARK                            x       y       z     vdW  Elec       q    Type
REMARK                         _______ _______ _______ _____ _____    ______ ____
ROOT
ATOM      1  N   UNL     1      -0.770   1.428   1.216  0.00  0.00    -0.217 N 
ATOM      2  C   UNL     1      -1.162   2.673   1.542  0.00  0.00    +0.256 C 
ATOM      3  O   UNL     1      -0.945   3.677   0.893  0.00  0.00    -0.269 OA
ATOM      4  C   UNL     1      -1.903   2.615   2.817  0.00  0.00    +0.071 A 
ATOM      5  C   UNL     1      -1.901   1.257   3.203  0.00  0.00    +0.071 A 
ATOM      6  C   UNL     1      -2.523   0.874   4.381  0.00  0.00    +0.074 A 
ATOM      7  C   UNL     1      -3.146   1.830   5.174  0.00  0.00    +0.080 A 
ATOM      8  C   UNL     1      -3.149   3.160   4.796  0.00  0.00    +0.080 A 
ATOM      9  C   UNL     1      -2.529   3.558   3.618  0.00  0.00    +0.074 A 
ATOM     10 CL   UNL     1      -2.537   5.230   3.150  0.00  0.00    -0.081 Cl
ATOM     11 CL   UNL     1      -3.932   4.340   5.800  0.00  0.00    -0.080 Cl
ATOM     12 CL   UNL     1      -3.927   1.351   6.649  0.00  0.00    -0.080 Cl
ATOM     13 CL   UNL     1      -2.526  -0.794   4.862  0.00  0.00    -0.081 Cl
ATOM     14  C   UNL     1      -1.163   0.538   2.145  0.00  0.00    +0.256 C 
ATOM     15  O   UNL     1      -0.946  -0.657   2.119  0.00  0.00    -0.269 OA
ENDROOT
BRANCH   1  16
ATOM     16  C   UNL     1      -0.009   1.087   0.011  0.00  0.00    +0.225 C 
BRANCH  16  17
ATOM     17  C   UNL     1       1.354   1.727   0.080  0.00  0.00    +0.379 C 
ATOM     18  O   UNL     1       1.658   2.399   1.037  0.00  0.00    -0.244 OA
ATOM     19  O   UNL     1       2.229   1.550  -0.922  0.00  0.00    -0.244 OA
ENDBRANCH  16  17
BRANCH  16  21
ATOM     20  C   UNL     1      -0.046   1.106  -2.487  0.00  0.00    +0.040 C 
ATOM     21  C   UNL     1      -0.752   1.601  -1.223  0.00  0.00    +0.143 C 
BRANCH  21  22
ATOM     22  O   UNL     1      -2.096   1.115  -1.207  0.00  0.00    -0.390 OA
ATOM     23  H   UNL     1      -2.165   0.153  -1.137  0.00  0.00    +0.210 HD
ENDBRANCH  21  22
ENDBRANCH  16  21
ENDBRANCH   1  16
TORSDOF 4
