REMARK  Name = ZINC65314517
REMARK  1 active torsions:
REMARK  status: ('A' for Active; 'I' for Inactive)
REMARK    1  A    between atoms: C_3  and  C_8
REMARK                            x       y       z     vdW  Elec       q    Type
REMARK                         _______ _______ _______ _____ _____    ______ ____
ROOT
ATOM      1  C   UNL     1       3.528   2.464   0.275  0.00  0.00    +0.015 A 
ATOM      2  C   UNL     1       3.747   3.445  -0.637  0.00  0.00    +0.056 A 
ATOM      3  S   UNL     1       5.381   3.806  -0.510  0.00  0.00    -0.089 S 
ATOM      4  C   UNL     1       5.849   2.668   0.762  0.00  0.00    +0.103 A 
ATOM      5  C   UNL     1       4.652   2.006   1.074  0.00  0.00    +0.094 A 
ATOM      6  N   UNL     1       4.710   1.055   2.046  0.00  0.00    -0.215 NA
ATOM      7  C   UNL     1       5.827   0.774   2.664  0.00  0.00    +0.199 A 
ATOM      8  N   UNL     1       7.004   1.405   2.385  0.00  0.00    -0.294 N 
ATOM      9  C   UNL     1       7.037   2.359   1.423  0.00  0.00    +0.267 A 
ATOM     10  O   UNL     1       8.075   2.941   1.152  0.00  0.00    -0.267 OA
ATOM     11  N   UNL     1       5.816  -0.197   3.635  0.00  0.00    -0.301 N 
ATOM     12  C   UNL     1       4.606  -0.994   3.882  0.00  0.00    +0.113 C 
ATOM     13  C   UNL     1       4.249  -0.900   5.369  0.00  0.00    +0.084 C 
ATOM     14  C   UNL     1       5.460  -1.311   6.209  0.00  0.00    +0.173 C 
ATOM     15  C   UNL     1       6.632  -0.369   5.928  0.00  0.00    +0.084 C 
ATOM     16  C   UNL     1       7.014  -0.463   4.443  0.00  0.00    +0.113 C 
ATOM     17  O   UNL     1       5.121  -1.256   7.600  0.00  0.00    -0.346 OA
ATOM     18  C   UNL     1       5.304  -2.582   8.138  0.00  0.00    +0.191 C 
ATOM     19  C   UNL     1       6.277  -3.239   7.127  0.00  0.00    +0.191 C 
ATOM     20  O   UNL     1       5.837  -2.657   5.875  0.00  0.00    -0.346 OA
ATOM     21  H   UNL     1       7.812   1.169   2.866  0.00  0.00    +0.172 HD
ENDROOT
BRANCH   1  24
ATOM     22  C   UNL     1      -0.183   2.164   0.793  0.00  0.00    +0.002 A 
ATOM     23  C   UNL     1       1.072   2.712   0.625  0.00  0.00    +0.009 A 
ATOM     24  C   UNL     1       2.177   1.880   0.456  0.00  0.00    -0.014 A 
ATOM     25  C   UNL     1       2.007   0.496   0.456  0.00  0.00    +0.028 A 
ATOM     26  C   UNL     1       0.747  -0.042   0.625  0.00  0.00    +0.042 A 
ATOM     27  C   UNL     1      -0.347   0.791   0.792  0.00  0.00    +0.020 A 
ATOM     28 CL   UNL     1       0.533  -1.765   0.625  0.00  0.00    -0.084 Cl
ENDBRANCH   1  24
TORSDOF 1
