REMARK  Name = ZINC02953901
REMARK  8 active torsions:
REMARK  status: ('A' for Active; 'I' for Inactive)
REMARK    1  A    between atoms: C_1  and  C_2
REMARK    2  A    between atoms: C_7  and  N_8
REMARK    3  A    between atoms: C_9  and  C_11
REMARK    4  A    between atoms: C_14  and  C_31
REMARK    5  A    between atoms: C_17  and  C_30
REMARK    6  A    between atoms: N_21  and  C_22
REMARK    7  A    between atoms: C_25  and  C_28
REMARK    8  A    between atoms: C_31  and  O_32
REMARK                            x       y       z     vdW  Elec       q    Type
REMARK                         _______ _______ _______ _____ _____    ______ ____
ROOT
ATOM      1  C   UNL     1       6.003  -0.619  -0.292  0.00  0.00    +0.098 A 
ATOM      2  C   UNL     1       7.028   0.046  -0.956  0.00  0.00    +0.030 A 
ATOM      3  C   UNL     1       6.736   1.387  -1.466  0.00  0.00    +0.027 A 
ATOM      4  C   UNL     1       7.593   2.038  -2.362  0.00  0.00    +0.007 A 
ATOM      5  C   UNL     1       7.249   3.299  -2.803  0.00  0.00    +0.117 A 
ATOM      6  N   UNL     1       6.140   3.887  -2.394  0.00  0.00    -0.256 NA
ATOM      7  C   UNL     1       5.302   3.317  -1.552  0.00  0.00    +0.081 A 
ATOM      8  C   UNL     1       5.564   2.049  -1.052  0.00  0.00    +0.159 A 
ATOM      9  O   UNL     1       4.721   1.445  -0.183  0.00  0.00    -0.437 OA
ATOM     10  C   UNL     1       4.712   0.088  -0.176  0.00  0.00    +0.212 A 
ATOM     11  N   UNL     1       3.583  -0.580  -0.062  0.00  0.00    -0.325 N 
ATOM     12  C   UNL     1       4.053   4.047  -1.128  0.00  0.00    +0.069 C 
ATOM     13  H   UNL     1       3.599  -1.677   0.026  0.00  0.00    +0.169 HD
ENDROOT
BRANCH  11  14
ATOM     14  C   UNL     1       2.394   0.086  -0.053  0.00  0.00    +0.042 A 
ATOM     15  C   UNL     1       1.771   0.423  -1.260  0.00  0.00    +0.027 A 
ATOM     16  C   UNL     1       0.581   1.091  -1.251  0.00  0.00    +0.021 A 
ATOM     17  C   UNL     1      -0.016   1.440  -0.034  0.00  0.00    +0.052 A 
ATOM     18  C   UNL     1       0.606   1.103   1.173  0.00  0.00    +0.021 A 
ATOM     19  C   UNL     1       1.796   0.435   1.164  0.00  0.00    +0.027 A 
BRANCH  17  20
ATOM     20  C   UNL     1      -1.262   2.146  -0.025  0.00  0.00    +0.099 C 
ATOM     21  N   UNL     1      -2.250   2.707  -0.017  0.00  0.00    -0.191 NA
ENDBRANCH  17  20
ENDBRANCH  11  14
BRANCH   1  23
ATOM     22  N   UNL     1       5.176  -2.586   0.901  0.00  0.00    -0.281 N 
ATOM     23  C   UNL     1       6.193  -1.970   0.267  0.00  0.00    +0.253 C 
ATOM     24  O   UNL     1       7.268  -2.528   0.155  0.00  0.00    -0.270 OA
ATOM     25  H   UNL     1       4.184  -2.113   0.938  0.00  0.00    +0.155 HD
BRANCH  22  32
ATOM     26  C   UNL     1       3.771  -3.147   3.311  0.00  0.00    +0.045 C 
ATOM     27  C   UNL     1       4.717  -4.142   2.689  0.00  0.00    -0.029 A 
ATOM     28  C   UNL     1       4.920  -5.370   3.288  0.00  0.00    +0.005 A 
ATOM     29  C   UNL     1       5.792  -6.282   2.721  0.00  0.00    +0.000 A 
ATOM     30  C   UNL     1       6.460  -5.969   1.551  0.00  0.00    +0.002 A 
ATOM     31  C   UNL     1       6.258  -4.745   0.945  0.00  0.00    +0.023 A 
ATOM     32  C   UNL     1       5.383  -3.827   1.512  0.00  0.00    +0.037 A 
ENDBRANCH  22  32
ENDBRANCH   1  23
BRANCH   4  33
ATOM     33  C   UNL     1       8.861   1.375  -2.835  0.00  0.00    +0.193 C 
BRANCH  33  34
ATOM     34  O   UNL     1       9.546   2.247  -3.736  0.00  0.00    -0.390 OA
ATOM     35  H   UNL     1      10.499   1.933  -4.187  0.00  0.00    +0.210 HD
ENDBRANCH  33  34
ENDBRANCH   4  33
TORSDOF 6
