REMARK  Name = ZINC39482291
REMARK  9 active torsions:
REMARK  status: ('A' for Active; 'I' for Inactive)
REMARK    1  A    between atoms: C_4  and  O_38
REMARK    2  A    between atoms: C_5  and  C_7
REMARK    3  A    between atoms: C_10  and  N_27
REMARK    4  A    between atoms: C_11  and  N_13
REMARK    5  A    between atoms: C_17  and  C_20
REMARK    6  A    between atoms: C_25  and  O_26
REMARK    7  A    between atoms: N_27  and  S_28
REMARK    8  A    between atoms: S_28  and  C_31
REMARK    9  A    between atoms: C_36  and  O_37
REMARK                            x       y       z     vdW  Elec       q    Type
REMARK                         _______ _______ _______ _____ _____    ______ ____
ROOT
ATOM      1  C   UNL     1       2.039  -2.512   0.958  0.00  0.00    -0.013 A 
ATOM      2  C   UNL     1       2.646  -3.053  -0.173  0.00  0.00    +0.010 A 
ATOM      3  C   UNL     1       2.486  -4.391  -0.471  0.00  0.00    +0.027 A 
ATOM      4  C   UNL     1       1.720  -5.202   0.355  0.00  0.00    +0.069 A 
ATOM      5  C   UNL     1       1.109  -4.665   1.489  0.00  0.00    +0.053 A 
ATOM      6  C   UNL     1       1.273  -3.325   1.793  0.00  0.00    +0.033 A 
ENDROOT
BRANCH   5   7
ATOM      7  N   UNL     1       0.336  -5.483   2.322  0.00  0.00    -0.331 N 
ATOM      8  C   UNL     1       0.942  -6.195   3.457  0.00  0.00    +0.086 C 
ATOM      9  C   UNL     1       0.529  -7.669   3.383  0.00  0.00    -0.063 C 
ATOM     10  N   UNL     1      -0.935  -7.764   3.320  0.00  0.00    +0.386 N 
ATOM     11  C   UNL     1      -1.422  -7.154   2.076  0.00  0.00    -0.020 C 
ATOM     12  C   UNL     1      -1.107  -5.650   2.089  0.00  0.00    +0.094 C 
ATOM     13  H   UNL     1      -1.209  -8.734   3.347  0.00  0.00    -0.085 HD
ATOM     14  H   UNL     1      -1.336  -7.281   4.110  0.00  0.00    -0.085 HD
BRANCH  11  15
ATOM     15  C   UNL     1      -2.912  -7.353   1.969  0.00  0.00    -0.018 A 
ATOM     16  C   UNL     1      -3.670  -7.531   3.111  0.00  0.00    +0.005 A 
ATOM     17  C   UNL     1      -5.036  -7.714   3.014  0.00  0.00    +0.000 A 
ATOM     18  C   UNL     1      -5.649  -7.719   1.774  0.00  0.00    +0.004 A 
ATOM     19  C   UNL     1      -4.896  -7.541   0.629  0.00  0.00    +0.045 A 
ATOM     20  C   UNL     1      -3.525  -7.352   0.725  0.00  0.00    +0.118 A 
BRANCH  20  21
ATOM     21  O   UNL     1      -2.783  -7.171  -0.399  0.00  0.00    -0.507 OA
ATOM     22  H   UNL     1      -2.447  -7.992  -0.785  0.00  0.00    +0.292 HD
ENDBRANCH  20  21
ENDBRANCH  11  15
ENDBRANCH   5   7
BRANCH   1  27
ATOM     23  C   UNL     1       1.266   1.055   1.859  0.00  0.00    +0.001 A 
ATOM     24  C   UNL     1       2.532   1.615   1.872  0.00  0.00    +0.004 A 
ATOM     25  C   UNL     1       3.640   0.839   1.589  0.00  0.00    +0.046 A 
ATOM     26  C   UNL     1       3.489  -0.506   1.290  0.00  0.00    +0.125 A 
ATOM     27  C   UNL     1       2.211  -1.074   1.277  0.00  0.00    +0.024 A 
ATOM     28  C   UNL     1       1.101  -0.282   1.563  0.00  0.00    +0.012 A 
BRANCH  26  29
ATOM     29  O   UNL     1       4.577  -1.269   1.011  0.00  0.00    -0.506 OA
ATOM     30  H   UNL     1       4.972  -1.690   1.788  0.00  0.00    +0.292 HD
ENDBRANCH  26  29
ENDBRANCH   1  27
BRANCH   4  31
ATOM     31  N   UNL     1       1.559  -6.558   0.050  0.00  0.00    -0.214 N 
ATOM     32  H   UNL     1       0.717  -7.001   0.239  0.00  0.00    +0.174 HD
BRANCH  31  33
ATOM     33  S   UNL     1       2.806  -7.406  -0.635  0.00  0.00    +0.076 S 
ATOM     34  O   UNL     1       3.974  -7.077   0.103  0.00  0.00    -0.150 OA
ATOM     35  O   UNL     1       2.352  -8.744  -0.787  0.00  0.00    -0.150 OA
BRANCH  33  36
ATOM     36  C   UNL     1       3.041  -6.766  -2.260  0.00  0.00    +0.150 A 
ATOM     37  C   UNL     1       4.230  -6.147  -2.594  0.00  0.00    +0.032 A 
ATOM     38  C   UNL     1       4.414  -5.644  -3.869  0.00  0.00    +0.002 A 
ATOM     39  C   UNL     1       3.410  -5.760  -4.812  0.00  0.00    +0.004 A 
ATOM     40  C   UNL     1       2.220  -6.379  -4.484  0.00  0.00    +0.047 A 
ATOM     41  C   UNL     1       2.034  -6.889  -3.207  0.00  0.00    +0.143 A 
BRANCH  41  42
ATOM     42  O   UNL     1       0.866  -7.503  -2.882  0.00  0.00    -0.505 OA
ATOM     43  H   UNL     1       0.184  -6.902  -2.551  0.00  0.00    +0.292 HD
ENDBRANCH  41  42
ENDBRANCH  33  36
ENDBRANCH  31  33
ENDBRANCH   4  31
TORSDOF 9
