REMARK  Name = ZINC32542476
REMARK  10 active torsions:
REMARK  status: ('A' for Active; 'I' for Inactive)
REMARK    1  A    between atoms: C_1  and  C_2
REMARK    2  A    between atoms: C_8  and  N_10
REMARK    3  A    between atoms: C_14  and  C_16
REMARK    4  A    between atoms: C_16  and  N_17
REMARK    5  A    between atoms: N_17  and  C_18
REMARK    6  A    between atoms: N_17  and  C_19
REMARK    7  A    between atoms: C_19  and  C_21
REMARK    8  A    between atoms: C_19  and  C_22
REMARK    9  A    between atoms: C_25  and  S_28
REMARK   10  A    between atoms: S_28  and  N_31
REMARK                            x       y       z     vdW  Elec       q    Type
REMARK                         _______ _______ _______ _____ _____    ______ ____
ROOT
ATOM      1  N   UNL     1      -7.653   1.147  -3.187  0.00  0.00    +0.388 N 
ATOM      2  C   UNL     1      -7.976   2.141  -2.156  0.00  0.00    -0.095 C 
ATOM      3  H   UNL     1      -7.945   0.157  -2.806  0.00  0.00    -0.081 HD
ENDROOT
BRANCH   1   4
ATOM      4  C   UNL     1      -8.413   1.399  -4.419  0.00  0.00    -0.041 C 
ATOM      5  C   UNL     1      -8.124   0.289  -5.432  0.00  0.00    -0.008 C 
BRANCH   4   6
ATOM      6  C   UNL     1      -9.886   1.421  -4.104  0.00  0.00    -0.061 A 
ATOM      7  C   UNL     1     -10.416   0.507  -3.211  0.00  0.00    +0.004 A 
ATOM      8  C   UNL     1     -11.767   0.530  -2.919  0.00  0.00    +0.029 A 
ATOM      9  C   UNL     1     -12.590   1.461  -3.526  0.00  0.00    +0.105 A 
ATOM     10  C   UNL     1     -12.061   2.370  -4.423  0.00  0.00    +0.029 A 
ATOM     11  C   UNL     1     -10.710   2.350  -4.712  0.00  0.00    +0.004 A 
BRANCH   9  12
ATOM     12  S   UNL     1     -14.313   1.487  -3.157  0.00  0.00    +0.056 S 
ATOM     13  O   UNL     1     -14.463   0.889  -1.877  0.00  0.00    -0.153 OA
ATOM     14  O   UNL     1     -14.769   2.803  -3.441  0.00  0.00    -0.153 OA
BRANCH  12  15
ATOM     15  N   UNL     1     -15.061   0.482  -4.240  0.00  0.00    -0.204 NA
ATOM     16  H   UNL     1     -16.143   0.471  -4.043  0.00  0.00    +0.144 HD
ATOM     17  H   UNL     1     -14.658  -0.536  -4.135  0.00  0.00    +0.144 HD
ENDBRANCH  12  15
ENDBRANCH   9  12
ENDBRANCH   4   6
ENDBRANCH   1   4
BRANCH   1  18
ATOM     18  C   UNL     1      -6.209   1.118  -3.456  0.00  0.00    +0.019 C 
BRANCH  18  23
ATOM     19  N   UNL     1      -2.142  -0.048  -1.174  0.00  0.00    -0.296 N 
ATOM     20  C   UNL     1      -3.485   0.062  -1.159  0.00  0.00    +0.306 C 
ATOM     21  O   UNL     1      -4.108  -0.241  -0.160  0.00  0.00    -0.252 OA
ATOM     22  N   UNL     1      -4.137   0.509  -2.251  0.00  0.00    -0.242 N 
ATOM     23  C   UNL     1      -5.480   0.619  -2.236  0.00  0.00    +0.204 C 
ATOM     24  O   UNL     1      -6.102   0.317  -1.240  0.00  0.00    -0.277 OA
ATOM     25  H   UNL     1      -1.578   0.226  -2.078  0.00  0.00    +0.151 HD
ATOM     26  H   UNL     1      -3.573   0.783  -3.154  0.00  0.00    +0.159 HD
BRANCH  19  33
ATOM     27  C   UNL     1      -0.019   1.526   0.010  0.00  0.00    +0.009 C 
ATOM     28  C   UNL     1       0.002  -0.004   0.002  0.00  0.00    +0.006 C 
ATOM     29  C   UNL     1       0.742  -0.511   1.242  0.00  0.00    +0.005 C 
ATOM     30  C   UNL     1       0.763  -2.041   1.233  0.00  0.00    +0.000 C 
ATOM     31  C   UNL     1      -0.673  -2.570   1.244  0.00  0.00    +0.002 C 
ATOM     32  C   UNL     1      -1.413  -2.063   0.004  0.00  0.00    +0.022 C 
ATOM     33  C   UNL     1      -1.433  -0.534   0.013  0.00  0.00    +0.077 C 
ENDBRANCH  19  33
ENDBRANCH  18  23
ENDBRANCH   1  18
TORSDOF 7
