REMARK  Name = ZINC20241378
REMARK  10 active torsions:
REMARK  status: ('A' for Active; 'I' for Inactive)
REMARK    1  A    between atoms: C_1  and  C_2
REMARK    2  A    between atoms: C_8  and  N_10
REMARK    3  A    between atoms: N_10  and  C_11
REMARK    4  A    between atoms: N_10  and  C_12
REMARK    5  A    between atoms: N_15  and  C_18
REMARK    6  A    between atoms: C_18  and  C_19
REMARK    7  A    between atoms: C_19  and  C_20
REMARK    8  A    between atoms: C_20  and  N_21
REMARK    9  A    between atoms: C_22  and  C_24
REMARK   10  A    between atoms: C_25  and  C_26
REMARK                            x       y       z     vdW  Elec       q    Type
REMARK                         _______ _______ _______ _____ _____    ______ ____
ROOT
ATOM      1  C   UNL     1       2.984   0.392   7.303  0.00  0.00    -0.077 C 
ENDROOT
BRANCH   1   5
ATOM      2  C   UNL     1       1.004  -0.283   3.591  0.00  0.00    +0.053 C 
ATOM      3  C   UNL     1       2.302   0.529   3.615  0.00  0.00    +0.000 C 
ATOM      4  C   UNL     1       3.058   0.234   4.912  0.00  0.00    -0.077 C 
ATOM      5  N   UNL     1       2.226   0.604   6.063  0.00  0.00    +0.380 N 
ATOM      6  C   UNL     1       1.012  -0.221   6.086  0.00  0.00    -0.077 C 
ATOM      7  C   UNL     1       0.177   0.057   4.834  0.00  0.00    +0.000 C 
ATOM      8  H   UNL     1       1.968   1.577   5.991  0.00  0.00    -0.082 HD
BRANCH   2   9
ATOM      9  N   UNL     1       0.236   0.054   2.384  0.00  0.00    -0.299 NA
ATOM     10  C   UNL     1       0.029   1.504   2.279  0.00  0.00    +0.105 C 
BRANCH   9  17
ATOM     11  C   UNL     1      -0.881   0.568  -0.240  0.00  0.00    +0.009 C 
ATOM     12  C   UNL     1      -0.160  -0.738   0.101  0.00  0.00    +0.003 C 
ATOM     13  C   UNL     1       0.523  -1.286  -1.154  0.00  0.00    +0.005 C 
ATOM     14  C   UNL     1       1.243  -2.592  -0.813  0.00  0.00    +0.000 C 
ATOM     15  C   UNL     1       2.295  -2.327   0.266  0.00  0.00    +0.002 C 
ATOM     16  C   UNL     1       1.612  -1.779   1.520  0.00  0.00    +0.019 C 
ATOM     17  C   UNL     1       0.892  -0.473   1.179  0.00  0.00    +0.059 C 
ENDBRANCH   9  17
ENDBRANCH   2   9
ENDBRANCH   1   5
BRANCH   1  18
ATOM     18  C   UNL     1       2.166   0.894   8.494  0.00  0.00    +0.000 C 
BRANCH  18  19
ATOM     19  C   UNL     1       2.956   0.673   9.785  0.00  0.00    +0.102 C 
BRANCH  19  20
ATOM     20  N   UNL     1       2.173   1.154  10.926  0.00  0.00    -0.312 N 
ATOM     21  C   UNL     1       2.672   1.060  12.174  0.00  0.00    +0.237 C 
ATOM     22  O   UNL     1       3.775   0.577  12.354  0.00  0.00    -0.271 OA
ATOM     23  H   UNL     1       1.294   1.539  10.783  0.00  0.00    +0.149 HD
BRANCH  21  24
ATOM     24  C   UNL     1       1.890   1.540  13.313  0.00  0.00    +0.068 C 
ATOM     25  C   UNL     1       2.390   1.447  14.563  0.00  0.00    +0.014 C 
BRANCH  25  26
ATOM     26  C   UNL     1       1.603   1.930  15.708  0.00  0.00    -0.006 A 
ATOM     27  C   UNL     1       0.333   2.481  15.506  0.00  0.00    +0.011 A 
ATOM     28  C   UNL     1      -0.398   2.931  16.584  0.00  0.00    +0.020 A 
ATOM     29  C   UNL     1       0.120   2.838  17.866  0.00  0.00    +0.042 A 
ATOM     30  C   UNL     1       1.376   2.295  18.075  0.00  0.00    +0.040 A 
ATOM     31  C   UNL     1       2.119   1.835  17.006  0.00  0.00    +0.049 A 
ATOM     32 CL   UNL     1       3.691   1.147  17.270  0.00  0.00    -0.083 Cl
ATOM     33 CL   UNL     1      -0.810   3.408  19.216  0.00  0.00    -0.083 Cl
ENDBRANCH  25  26
ENDBRANCH  21  24
ENDBRANCH  19  20
ENDBRANCH  18  19
ENDBRANCH   1  18
TORSDOF 8
