REMARK  Name = ZINC04171975
REMARK  12 active torsions:
REMARK  status: ('A' for Active; 'I' for Inactive)
REMARK    1  A    between atoms: C_1  and  C_2
REMARK    2  A    between atoms: C_2  and  C_3
REMARK    3  A    between atoms: C_2  and  C_4
REMARK    4  A    between atoms: C_2  and  N_5
REMARK    5  A    between atoms: N_5  and  S_6
REMARK    6  A    between atoms: S_6  and  C_9
REMARK    7  A    between atoms: C_17  and  S_22
REMARK    8  A    between atoms: S_22  and  N_25
REMARK    9  A    between atoms: N_25  and  C_26
REMARK   10  A    between atoms: C_26  and  C_27
REMARK   11  A    between atoms: C_26  and  C_28
REMARK   12  A    between atoms: C_26  and  C_29
REMARK                            x       y       z     vdW  Elec       q    Type
REMARK                         _______ _______ _______ _____ _____    ______ ____
ROOT
ATOM      1  C   UNL     1      -2.697   1.289   0.821  0.00  0.00    +0.106 A 
ATOM      2  C   UNL     1      -1.631   1.982   1.372  0.00  0.00    +0.032 A 
ATOM      3  C   UNL     1      -1.643   2.347   2.702  0.00  0.00    +0.049 A 
ATOM      4  C   UNL     1      -2.725   2.012   3.507  0.00  0.00    +0.136 A 
ATOM      5  C   UNL     1      -3.799   1.306   2.948  0.00  0.00    +0.030 A 
ATOM      6  C   UNL     1      -3.780   0.947   1.605  0.00  0.00    +0.040 A 
ATOM      7  C   UNL     1      -4.764   1.111   4.048  0.00  0.00    +0.030 A 
ATOM      8  C   UNL     1      -6.008   0.496   4.144  0.00  0.00    +0.040 A 
ATOM      9  C   UNL     1      -6.673   0.484   5.351  0.00  0.00    +0.106 A 
ATOM     10  C   UNL     1      -6.104   1.083   6.465  0.00  0.00    +0.032 A 
ATOM     11  C   UNL     1      -4.872   1.694   6.380  0.00  0.00    +0.049 A 
ATOM     12  C   UNL     1      -4.186   1.716   5.172  0.00  0.00    +0.136 A 
ATOM     13  O   UNL     1      -2.990   2.234   4.813  0.00  0.00    -0.455 OA
ENDROOT
BRANCH   1  14
ATOM     14  S   UNL     1      -2.667   0.838  -0.882  0.00  0.00    +0.059 S 
ATOM     15  O   UNL     1      -3.129  -0.504  -0.954  0.00  0.00    -0.153 OA
ATOM     16  O   UNL     1      -1.399   1.235  -1.385  0.00  0.00    -0.153 OA
BRANCH  14  17
ATOM     17  N   UNL     1      -3.796   1.769  -1.655  0.00  0.00    -0.185 NA
ATOM     18  H   UNL     1      -4.592   1.358  -2.028  0.00  0.00    +0.149 HD
BRANCH  17  20
ATOM     19  C   UNL     1      -2.396   3.487  -2.689  0.00  0.00    +0.029 C 
ATOM     20  C   UNL     1      -3.594   3.215  -1.777  0.00  0.00    +0.032 C 
ATOM     21  C   UNL     1      -4.847   3.857  -2.376  0.00  0.00    +0.029 C 
ATOM     22  C   UNL     1      -3.327   3.811  -0.394  0.00  0.00    +0.029 C 
ENDBRANCH  17  20
ENDBRANCH  14  17
ENDBRANCH   1  14
BRANCH   9  23
ATOM     23  S   UNL     1      -8.250  -0.292   5.479  0.00  0.00    +0.059 S 
ATOM     24  O   UNL     1      -8.998   0.462   6.423  0.00  0.00    -0.153 OA
ATOM     25  O   UNL     1      -8.702  -0.514   4.151  0.00  0.00    -0.153 OA
BRANCH  23  26
ATOM     26  N   UNL     1      -8.007  -1.786   6.152  0.00  0.00    -0.185 NA
ATOM     27  H   UNL     1      -8.347  -1.979   7.040  0.00  0.00    +0.149 HD
BRANCH  26  28
ATOM     28  C   UNL     1      -7.278  -2.815   5.407  0.00  0.00    +0.032 C 
ATOM     29  C   UNL     1      -5.894  -2.285   5.026  0.00  0.00    +0.029 C 
ATOM     30  C   UNL     1      -7.125  -4.063   6.279  0.00  0.00    +0.029 C 
ATOM     31  C   UNL     1      -8.054  -3.171   4.138  0.00  0.00    +0.029 C 
ENDBRANCH  26  28
ENDBRANCH  23  26
ENDBRANCH   9  23
TORSDOF 6
