REMARK  Name = ZINC21227009
REMARK  11 active torsions:
REMARK  status: ('A' for Active; 'I' for Inactive)
REMARK    1  A    between atoms: C_1  and  C_2
REMARK    2  A    between atoms: C_2  and  O_3
REMARK    3  A    between atoms: O_3  and  C_4
REMARK    4  A    between atoms: C_7  and  C_10
REMARK    5  A    between atoms: C_15  and  C_25
REMARK    6  A    between atoms: C_27  and  O_35
REMARK    7  A    between atoms: C_28  and  O_33
REMARK    8  A    between atoms: C_30  and  O_31
REMARK    9  A    between atoms: O_31  and  C_32
REMARK   10  A    between atoms: O_33  and  C_34
REMARK   11  A    between atoms: O_35  and  C_36
REMARK                            x       y       z     vdW  Elec       q    Type
REMARK                         _______ _______ _______ _____ _____    ______ ____
ROOT
ATOM      1  C   UNL     1       1.847   9.227   3.614  0.00  0.00    +0.032 C 
ATOM      2  C   UNL     1       1.139   8.456   4.727  0.00  0.00    +0.059 C 
ATOM      3  C   UNL     1      -0.193   7.925   4.221  0.00  0.00    +0.017 C 
ATOM      4  C   UNL     1      -0.332   7.553   2.938  0.00  0.00    +0.037 C 
ATOM      5  C   UNL     1      -1.580   6.975   2.314  0.00  0.00    +0.140 C 
ATOM      6  N   UNL     1      -2.765   7.076   3.140  0.00  0.00    -0.331 N 
ATOM      7  C   UNL     1      -2.856   6.399   4.356  0.00  0.00    +0.049 A 
ATOM      8  C   UNL     1      -3.743   5.350   4.533  0.00  0.00    +0.025 A 
ATOM      9  C   UNL     1      -3.725   4.638   5.720  0.00  0.00    +0.002 A 
ATOM     10  C   UNL     1      -2.832   4.969   6.722  0.00  0.00    +0.002 A 
ATOM     11  C   UNL     1      -1.958   6.030   6.555  0.00  0.00    +0.025 A 
ATOM     12  C   UNL     1      -1.987   6.754   5.376  0.00  0.00    +0.052 A 
ATOM     13  N   UNL     1      -1.169   7.858   5.162  0.00  0.00    -0.316 N 
ATOM     14  C   UNL     1       0.747   7.691   2.034  0.00  0.00    +0.163 C 
ATOM     15  O   UNL     1       0.596   7.334   0.882  0.00  0.00    -0.292 OA
ATOM     16  C   UNL     1       2.072   8.261   2.446  0.00  0.00    +0.088 C 
ATOM     17  H   UNL     1      -3.613   7.696   2.813  0.00  0.00    +0.147 HD
ATOM     18  H   UNL     1      -1.357   8.718   5.821  0.00  0.00    +0.152 HD
ENDROOT
BRANCH   1  22
ATOM     19  C   UNL     1       5.607  10.685   5.029  0.00  0.00    +0.121 A 
ATOM     20  C   UNL     1       4.641  11.574   4.579  0.00  0.00    +0.046 A 
ATOM     21  C   UNL     1       3.427  11.100   4.122  0.00  0.00    +0.007 A 
ATOM     22  C   UNL     1       3.173   9.741   4.114  0.00  0.00    -0.043 A 
ATOM     23  C   UNL     1       4.131   8.854   4.567  0.00  0.00    +0.007 A 
ATOM     24  C   UNL     1       5.349   9.322   5.020  0.00  0.00    +0.046 A 
BRANCH  19  25
ATOM     25  O   UNL     1       6.802  11.149   5.479  0.00  0.00    -0.492 OA
BRANCH  25  27
ATOM     26  C   UNL     1       9.024  10.882   6.393  0.00  0.00    +0.048 C 
ATOM     27  C   UNL     1       7.748  10.176   5.928  0.00  0.00    +0.225 C 
ENDBRANCH  25  27
ENDBRANCH  19  25
ENDBRANCH   1  22
BRANCH   5  28
ATOM     28  C   UNL     1      -1.333   5.520   2.010  0.00  0.00    +0.023 A 
ATOM     29  C   UNL     1      -0.279   4.858   2.612  0.00  0.00    +0.058 A 
ATOM     30  C   UNL     1      -0.052   3.520   2.337  0.00  0.00    +0.162 A 
ATOM     31  C   UNL     1      -0.880   2.844   1.446  0.00  0.00    +0.165 A 
ATOM     32  C   UNL     1      -1.935   3.508   0.843  0.00  0.00    +0.095 A 
ATOM     33  C   UNL     1      -2.162   4.847   1.125  0.00  0.00    +0.129 A 
BRANCH  33  34
ATOM     34  O   UNL     1      -3.198   5.500   0.534  0.00  0.00    -0.495 OA
ATOM     35  C   UNL     1      -4.011   4.745  -0.367  0.00  0.00    +0.277 C 
ENDBRANCH  33  34
BRANCH  31  36
ATOM     36  O   UNL     1      -0.656   1.531   1.171  0.00  0.00    -0.491 OA
ATOM     37  C   UNL     1      -1.548   0.899   0.251  0.00  0.00    +0.277 C 
ENDBRANCH  31  36
BRANCH  30  38
ATOM     38  O   UNL     1       0.981   2.868   2.935  0.00  0.00    -0.491 OA
ATOM     39  C   UNL     1       1.736   3.598   3.904  0.00  0.00    +0.277 C 
ENDBRANCH  30  38
ENDBRANCH   5  28
TORSDOF 7
