REMARK  Name = ZINC20879765
REMARK  6 active torsions:
REMARK  status: ('A' for Active; 'I' for Inactive)
REMARK    1  A    between atoms: C_5  and  C_7
REMARK    2  A    between atoms: C_7  and  O_8
REMARK    3  A    between atoms: O_8  and  C_9
REMARK    4  A    between atoms: C_14  and  C_15
REMARK    5  A    between atoms: C_15  and  N_16
REMARK    6  A    between atoms: N_16  and  C_17
REMARK                            x       y       z     vdW  Elec       q    Type
REMARK                         _______ _______ _______ _____ _____    ______ ____
ROOT
ATOM      1  C   UNL     1      -1.223   1.754   0.017  0.00  0.00    +0.126 A 
ATOM      2  C   UNL     1      -0.013   1.076   0.008  0.00  0.00    +0.047 A 
ATOM      3  C   UNL     1       1.174   1.783   0.000  0.00  0.00    +0.019 A 
ATOM      4  C   UNL     1       1.156   3.167   0.008  0.00  0.00    +0.018 A 
ATOM      5  C   UNL     1      -0.050   3.844   0.024  0.00  0.00    +0.024 A 
ATOM      6  C   UNL     1      -1.239   3.140   0.032  0.00  0.00    +0.012 A 
ATOM      7 BR   UNL     1       2.781   4.132  -0.002  0.00  0.00    -0.050 Br
ENDROOT
BRANCH   1   8
ATOM      8  O   UNL     1      -2.392   1.060   0.019  0.00  0.00    -0.487 OA
BRANCH   8   9
ATOM      9  C   UNL     1      -2.299  -0.366   0.011  0.00  0.00    +0.267 C 
BRANCH   9  14
ATOM     10  C   UNL     1      -6.062  -0.675   0.027  0.00  0.00    +0.001 A 
ATOM     11  C   UNL     1      -6.228  -2.048   0.020  0.00  0.00    +0.003 A 
ATOM     12  C   UNL     1      -5.123  -2.878   0.010  0.00  0.00    +0.039 A 
ATOM     13  C   UNL     1      -3.849  -2.334   0.007  0.00  0.00    +0.130 A 
ATOM     14  C   UNL     1      -3.685  -0.960   0.014  0.00  0.00    +0.025 A 
ATOM     15  C   UNL     1      -4.791  -0.132   0.029  0.00  0.00    +0.010 A 
ATOM     16  F   UNL     1      -2.768  -3.144  -0.002  0.00  0.00    -0.205 F 
ENDBRANCH   9  14
ENDBRANCH   8   9
ENDBRANCH   1   8
BRANCH   6  17
ATOM     17  C   UNL     1      -2.553   3.879   0.049  0.00  0.00    +0.140 C 
BRANCH  17  18
ATOM     18  N   UNL     1      -3.082   3.902   1.415  0.00  0.00    -0.340 N 
ATOM     19  H   UNL     1      -2.522   3.420   2.230  0.00  0.00    +0.146 HD
BRANCH  18  20
ATOM     20  C   UNL     1      -4.300   4.536   1.683  0.00  0.00    +0.029 A 
ATOM     21  C   UNL     1      -5.004   5.149   0.653  0.00  0.00    +0.025 A 
ATOM     22  C   UNL     1      -6.209   5.772   0.910  0.00  0.00    +0.029 A 
ATOM     23  C   UNL     1      -6.714   5.796   2.201  0.00  0.00    +0.067 A 
ATOM     24  C   UNL     1      -6.007   5.186   3.238  0.00  0.00    +0.069 A 
ATOM     25  C   UNL     1      -4.800   4.557   2.976  0.00  0.00    +0.050 A 
ATOM     26  N   UNL     1      -6.754   5.372   4.399  0.00  0.00    -0.306 N 
ATOM     27  H   UNL     1      -6.390   4.973   5.357  0.00  0.00    +0.170 HD
ATOM     28  C   UNL     1      -7.865   6.064   4.083  0.00  0.00    +0.325 A 
ATOM     29  O   UNL     1      -8.732   6.394   4.871  0.00  0.00    -0.247 OA
ATOM     30  N   UNL     1      -7.871   6.335   2.765  0.00  0.00    -0.306 N 
ATOM     31  H   UNL     1      -8.593   6.871   2.132  0.00  0.00    +0.170 HD
ENDBRANCH  18  20
ENDBRANCH  17  18
ENDBRANCH   6  17
TORSDOF 6
