REMARK  Name = ZINC14138655
REMARK  11 active torsions:
REMARK  status: ('A' for Active; 'I' for Inactive)
REMARK    1  A    between atoms: C_1  and  C_2
REMARK    2  A    between atoms: C_2  and  O_3
REMARK    3  A    between atoms: O_3  and  C_4
REMARK    4  A    between atoms: C_4  and  C_6
REMARK    5  A    between atoms: C_8  and  C_30
REMARK    6  A    between atoms: C_10  and  N_11
REMARK    7  A    between atoms: C_12  and  C_14
REMARK    8  A    between atoms: C_14  and  N_62
REMARK    9  A    between atoms: C_18  and  C_20
REMARK   10  A    between atoms: C_30  and  C_31
REMARK   11  A    between atoms: C_30  and  C_32
REMARK                            x       y       z     vdW  Elec       q    Type
REMARK                         _______ _______ _______ _____ _____    ______ ____
ROOT
ATOM      1  N   UNL     1       4.150   2.847   4.457  0.00  0.00    -0.281 N 
ATOM      2  C   UNL     1       4.154   2.709   3.116  0.00  0.00    +0.201 C 
ATOM      3  O   UNL     1       4.859   1.871   2.595  0.00  0.00    -0.278 OA
ATOM      4  H   UNL     1       3.586   3.518   4.873  0.00  0.00    +0.155 HD
ENDROOT
BRANCH   1   9
ATOM      5  C   UNL     1       5.087   2.026   6.624  0.00  0.00    +0.088 A 
ATOM      6  C   UNL     1       5.999   1.055   7.182  0.00  0.00    +0.028 A 
ATOM      7  C   UNL     1       6.644   0.251   6.319  0.00  0.00    -0.005 A 
ATOM      8  S   UNL     1       6.031   0.777   4.731  0.00  0.00    -0.077 S 
ATOM      9  C   UNL     1       4.951   2.031   5.240  0.00  0.00    +0.086 A 
BRANCH   7  10
ATOM     10  C   UNL     1       7.644  -0.835   6.621  0.00  0.00    +0.020 C 
ATOM     11  C   UNL     1       7.118  -2.174   6.100  0.00  0.00    +0.013 C 
ATOM     12  C   UNL     1       8.973  -0.509   5.937  0.00  0.00    +0.013 C 
ENDBRANCH   7  10
BRANCH   5  13
ATOM     13  C   UNL     1       4.339   2.955   7.473  0.00  0.00    +0.342 C 
ATOM     14  O   UNL     1       3.576   3.758   6.971  0.00  0.00    -0.245 OA
BRANCH  13  15
ATOM     15  O   UNL     1       4.497   2.920   8.812  0.00  0.00    -0.461 OA
BRANCH  15  17
ATOM     16  C   UNL     1       4.032   3.682  11.079  0.00  0.00    +0.048 C 
ATOM     17  C   UNL     1       3.724   3.870   9.592  0.00  0.00    +0.229 C 
ENDBRANCH  15  17
ENDBRANCH  13  15
ENDBRANCH   5  13
ENDBRANCH   1   9
BRANCH   2  18
ATOM     18  C   UNL     1       3.283   3.597   2.264  0.00  0.00    +0.020 C 
BRANCH  18  23
ATOM     19  C   UNL     1       4.770   3.754   0.340  0.00  0.00    -0.077 C 
ATOM     20  C   UNL     1       4.594   3.814  -1.193  0.00  0.00    -0.020 C 
ATOM     21  C   UNL     1       3.073   3.931  -1.418  0.00  0.00    -0.013 C 
ATOM     22  C   UNL     1       2.457   3.931  -0.002  0.00  0.00    -0.037 C 
ATOM     23  N   UNL     1       3.477   3.266   0.816  0.00  0.00    +0.390 N 
ATOM     24  H   UNL     1       3.419   2.249   0.692  0.00  0.00    -0.080 HD
BRANCH  22  25
ATOM     25  C   UNL     1       1.160   3.165   0.007  0.00  0.00    -0.057 A 
ATOM     26  C   UNL     1       1.175   1.782   0.000  0.00  0.00    +0.006 A 
ATOM     27  C   UNL     1      -0.013   1.076   0.008  0.00  0.00    +0.049 A 
ATOM     28  C   UNL     1      -1.223   1.752   0.017  0.00  0.00    +0.162 A 
ATOM     29  C   UNL     1      -1.239   3.142   0.033  0.00  0.00    +0.162 A 
ATOM     30  C   UNL     1      -0.043   3.845   0.024  0.00  0.00    +0.051 A 
ATOM     31  O   UNL     1      -2.416   3.825   0.057  0.00  0.00    -0.485 OA
ATOM     32  C   UNL     1      -3.590   3.095  -0.328  0.00  0.00    +0.270 C 
ATOM     33  C   UNL     1      -3.570   1.746   0.404  0.00  0.00    +0.270 C 
ATOM     34  O   UNL     1      -2.385   1.043   0.014  0.00  0.00    -0.485 OA
ENDBRANCH  22  25
ENDBRANCH  18  23
ENDBRANCH   2  18
TORSDOF 8
