REMARK  Name = ZINC28887172
REMARK  7 active torsions:
REMARK  status: ('A' for Active; 'I' for Inactive)
REMARK    1  A    between atoms: C_3  and  C_8
REMARK    2  A    between atoms: C_5  and  O_7
REMARK    3  A    between atoms: C_9  and  C_25
REMARK    4  A    between atoms: C_10  and  N_24
REMARK    5  A    between atoms: C_12  and  S_16
REMARK    6  A    between atoms: C_13  and  C_14
REMARK    7  A    between atoms: S_16  and  C_17
REMARK                            x       y       z     vdW  Elec       q    Type
REMARK                         _______ _______ _______ _____ _____    ______ ____
ROOT
ATOM      1  C   UNL     1      -0.072   5.328   0.030  0.00  0.00    +0.023 A 
ATOM      2  C   UNL     1       0.436   6.056   1.124  0.00  0.00    +0.100 A 
ATOM      3  C   UNL     1       0.399   7.463   1.083  0.00  0.00    +0.136 A 
ATOM      4  N   UNL     1      -0.114   8.100   0.043  0.00  0.00    -0.223 NA
ATOM      5  C   UNL     1      -0.608   7.456  -1.004  0.00  0.00    +0.122 A 
ATOM      6  C   UNL     1      -0.608   6.050  -1.055  0.00  0.00    +0.093 A 
ENDROOT
BRANCH   1   9
ATOM      7  C   UNL     1      -1.222   1.750   0.024  0.00  0.00    +0.004 A 
ATOM      8  C   UNL     1      -1.246   3.130   0.036  0.00  0.00    +0.009 A 
ATOM      9  C   UNL     1      -0.050   3.849   0.023  0.00  0.00    -0.012 A 
ATOM     10  C   UNL     1       1.167   3.167   0.005  0.00  0.00    +0.054 A 
ATOM     11  C   UNL     1       1.180   1.783  -0.002  0.00  0.00    +0.117 A 
ATOM     12  C   UNL     1      -0.015   1.076   0.011  0.00  0.00    +0.045 A 
BRANCH  11  13
ATOM     13  O   UNL     1       2.364   1.115  -0.020  0.00  0.00    -0.507 OA
ATOM     14  H   UNL     1       2.374   0.015  -0.025  0.00  0.00    +0.292 HD
ENDBRANCH  11  13
ENDBRANCH   1   9
BRANCH   3  15
ATOM     15  N   UNL     1       0.899   8.188   2.146  0.00  0.00    -0.342 N 
ATOM     16  H   UNL     1       0.874   9.287   2.123  0.00  0.00    +0.144 HD
ATOM     17  H   UNL     1       1.323   7.666   3.017  0.00  0.00    +0.144 HD
ENDBRANCH   3  15
BRANCH   6  18
ATOM     18  C   UNL     1      -1.143   5.363  -2.192  0.00  0.00    +0.102 C 
ATOM     19  N   UNL     1      -1.568   4.818  -3.093  0.00  0.00    -0.191 NA
ENDBRANCH   6  18
BRANCH   2  20
ATOM     20  C   UNL     1       0.988   5.376   2.257  0.00  0.00    +0.103 C 
ATOM     21  N   UNL     1       1.426   4.836   3.155  0.00  0.00    -0.191 NA
ENDBRANCH   2  20
BRANCH   5  22
ATOM     22  S   UNL     1      -1.274   8.374  -2.353  0.00  0.00    -0.069 S 
BRANCH  22  23
ATOM     23  C   UNL     1      -1.161  10.006  -1.698  0.00  0.00    +0.014 A 
ATOM     24  C   UNL     1      -2.176  10.505  -0.891  0.00  0.00    +0.016 A 
ATOM     25  C   UNL     1      -2.081  11.782  -0.375  0.00  0.00    +0.021 A 
ATOM     26  C   UNL     1      -0.982  12.569  -0.670  0.00  0.00    +0.041 A 
ATOM     27  C   UNL     1       0.028  12.078  -1.478  0.00  0.00    +0.021 A 
ATOM     28  C   UNL     1      -0.058  10.799  -1.992  0.00  0.00    +0.016 A 
ATOM     29 CL   UNL     1      -0.870  14.177  -0.024  0.00  0.00    -0.084 Cl
ENDBRANCH  22  23
ENDBRANCH   5  22
TORSDOF 7
