REMARK  Name = ZINC08745545
REMARK  5 active torsions:
REMARK  status: ('A' for Active; 'I' for Inactive)
REMARK    1  A    between atoms: C_1  and  N_2
REMARK    2  A    between atoms: C_11  and  S_12
REMARK    3  A    between atoms: S_12  and  C_13
REMARK    4  A    between atoms: C_13  and  C_14
REMARK    5  A    between atoms: C_22  and  N_24
REMARK                            x       y       z     vdW  Elec       q    Type
REMARK                         _______ _______ _______ _____ _____    ______ ____
ROOT
ATOM      1  C   UNL     1      -1.350   2.020   0.019  0.00  0.00    +0.153 C 
ENDROOT
BRANCH   1   2
ATOM      2  C   UNL     1      -0.016   1.319   0.009  0.00  0.00    +0.142 A 
ATOM      3  N   UNL     1       1.075   2.048   0.003  0.00  0.00    -0.231 NA
ATOM      4  C   UNL     1       2.283   1.465  -0.012  0.00  0.00    +0.076 A 
ATOM      5  C   UNL     1       3.468   2.212  -0.019  0.00  0.00    +0.028 A 
ATOM      6  C   UNL     1       4.669   1.568  -0.035  0.00  0.00    +0.002 A 
ATOM      7  C   UNL     1       4.738   0.178  -0.044  0.00  0.00    +0.001 A 
ATOM      8  C   UNL     1       3.604  -0.580  -0.036  0.00  0.00    +0.013 A 
ATOM      9  C   UNL     1       2.355   0.050  -0.020  0.00  0.00    +0.040 A 
ATOM     10  C   UNL     1       1.142  -0.681  -0.013  0.00  0.00    +0.127 A 
ATOM     11  N   UNL     1       0.002  -0.004   0.002  0.00  0.00    -0.216 NA
BRANCH  10  12
ATOM     12  N   UNL     1       1.147  -2.060  -0.020  0.00  0.00    -0.343 N 
ATOM     13  H   UNL     1       0.309  -2.548  -0.014  0.00  0.00    +0.144 HD
ATOM     14  H   UNL     1       1.989  -2.542  -0.030  0.00  0.00    +0.144 HD
ENDBRANCH  10  12
ENDBRANCH   1   2
BRANCH   1  15
ATOM     15  S   UNL     1      -1.876   2.292   1.730  0.00  0.00    -0.080 S 
BRANCH  15  26
ATOM     16  C   UNL     1      -3.677   3.220   3.892  0.00  0.00    +0.154 C 
ATOM     17  N   UNL     1      -4.158   3.483   2.533  0.00  0.00    -0.290 N 
ATOM     18  C   UNL     1      -5.341   4.112   2.334  0.00  0.00    +0.269 A 
ATOM     19  O   UNL     1      -6.026   4.469   3.278  0.00  0.00    -0.266 OA
ATOM     20  C   UNL     1      -5.757   4.335   1.024  0.00  0.00    +0.102 A 
ATOM     21  C   UNL     1      -4.979   3.929  -0.075  0.00  0.00    +0.086 A 
ATOM     22  C   UNL     1      -5.520   4.218  -1.336  0.00  0.00    +0.036 A 
ATOM     23  C   UNL     1      -6.712   4.845  -1.437  0.00  0.00    +0.048 A 
ATOM     24  S   UNL     1      -7.177   5.084   0.270  0.00  0.00    -0.090 S 
ATOM     25  N   UNL     1      -3.799   3.308   0.220  0.00  0.00    -0.223 NA
ATOM     26  C   UNL     1      -3.415   3.102   1.451  0.00  0.00    +0.172 A 
ENDBRANCH  15  26
ENDBRANCH   1  15
TORSDOF 4
