REMARK  Name = ZINC05237701
REMARK  7 active torsions:
REMARK  status: ('A' for Active; 'I' for Inactive)
REMARK    1  A    between atoms: C_1  and  C_2
REMARK    2  A    between atoms: C_2  and  C_3
REMARK    3  A    between atoms: C_8  and  N_9
REMARK    4  A    between atoms: C_10  and  C_12
REMARK    5  A    between atoms: C_12  and  S_13
REMARK    6  A    between atoms: S_13  and  C_14
REMARK    7  A    between atoms: C_26  and  C_30
REMARK                            x       y       z     vdW  Elec       q    Type
REMARK                         _______ _______ _______ _____ _____    ______ ____
ROOT
ATOM      1  C   UNL     1      -2.491  -4.554   0.455  0.00  0.00    +0.170 A 
ATOM      2  N   UNL     1      -3.533  -5.428   0.571  0.00  0.00    -0.301 N 
ATOM      3  H   UNL     1      -4.468  -5.075   0.595  0.00  0.00    +0.171 HD
ATOM      4  C   UNL     1      -3.326  -6.755   0.655  0.00  0.00    +0.261 A 
ATOM      5  O   UNL     1      -4.268  -7.522   0.758  0.00  0.00    -0.267 OA
ATOM      6  C   UNL     1      -1.985  -7.253   0.621  0.00  0.00    +0.075 A 
ATOM      7  C   UNL     1      -1.531  -8.643   0.697  0.00  0.00    -0.023 A 
ATOM      8  C   UNL     1      -0.201  -8.856   0.643  0.00  0.00    -0.004 A 
ATOM      9  S   UNL     1       0.518  -7.243   0.490  0.00  0.00    -0.073 S 
ATOM     10  C   UNL     1      -0.975  -6.284   0.499  0.00  0.00    +0.117 A 
ATOM     11  N   UNL     1      -1.247  -4.987   0.415  0.00  0.00    -0.216 NA
ATOM     12  C   UNL     1       0.511 -10.174   0.702  0.00  0.00    +0.046 C 
ATOM     13  C   UNL     1      -0.476 -11.235   1.208  0.00  0.00    -0.009 C 
ATOM     14  C   UNL     1      -1.786 -11.100   0.426  0.00  0.00    +0.008 C 
ATOM     15  C   UNL     1      -2.503  -9.812   0.832  0.00  0.00    +0.037 C 
ATOM     16  C   UNL     1       0.114 -12.630   0.991  0.00  0.00    +0.008 C 
ENDROOT
BRANCH   1  17
ATOM     17  S   UNL     1      -2.814  -2.825   0.349  0.00  0.00    -0.078 S 
BRANCH  17  18
ATOM     18  C   UNL     1      -1.121  -2.197   0.216  0.00  0.00    +0.173 C 
BRANCH  18  20
ATOM     19  N   UNL     1       0.002  -0.004   0.002  0.00  0.00    -0.285 N 
ATOM     20  C   UNL     1      -1.150  -0.694   0.111  0.00  0.00    +0.227 C 
ATOM     21  O   UNL     1      -2.211  -0.106   0.124  0.00  0.00    -0.275 OA
ATOM     22  H   UNL     1       0.845  -0.477  -0.074  0.00  0.00    +0.155 HD
BRANCH  19  28
ATOM     23  C   UNL     1       1.022   2.107   0.583  0.00  0.00    -0.026 A 
ATOM     24  C   UNL     1       0.999   3.488   0.577  0.00  0.00    +0.005 A 
ATOM     25  C   UNL     1      -0.057   4.162  -0.008  0.00  0.00    +0.000 A 
ATOM     26  C   UNL     1      -1.094   3.455  -0.590  0.00  0.00    +0.002 A 
ATOM     27  C   UNL     1      -1.075   2.075  -0.593  0.00  0.00    +0.023 A 
ATOM     28  C   UNL     1      -0.018   1.395  -0.001  0.00  0.00    +0.037 A 
BRANCH  23  30
ATOM     29  C   UNL     1       3.210   1.023   0.151  0.00  0.00    +0.009 C 
ATOM     30  C   UNL     1       2.173   1.374   1.220  0.00  0.00    +0.033 C 
ENDBRANCH  23  30
ENDBRANCH  19  28
ENDBRANCH  18  20
ENDBRANCH  17  18
ENDBRANCH   1  17
TORSDOF 5
