REMARK  Name = ZINC13135090
REMARK  11 active torsions:
REMARK  status: ('A' for Active; 'I' for Inactive)
REMARK    1  A    between atoms: C_1  and  O_2
REMARK    2  A    between atoms: O_2  and  C_3
REMARK    3  A    between atoms: C_3  and  C_4
REMARK    4  A    between atoms: C_4  and  N_5
REMARK    5  A    between atoms: N_5  and  C_6
REMARK    6  A    between atoms: C_7  and  N_22
REMARK    7  A    between atoms: N_8  and  C_15
REMARK    8  A    between atoms: C_15  and  C_16
REMARK    9  A    between atoms: C_23  and  C_25
REMARK   10  A    between atoms: C_25  and  O_26
REMARK   11  A    between atoms: O_26  and  C_27
REMARK                            x       y       z     vdW  Elec       q    Type
REMARK                         _______ _______ _______ _____ _____    ______ ____
ROOT
ATOM      1  C   UNL     1       1.247   3.007  -0.298  0.00  0.00    +0.140 A 
ATOM      2  C   UNL     1       0.564   2.358   0.710  0.00  0.00    +0.128 A 
ATOM      3  N   UNL     1      -0.757   2.026   0.521  0.00  0.00    -0.276 N 
ATOM      4  C   UNL     1      -1.378   2.335  -0.632  0.00  0.00    +0.331 A 
ATOM      5  O   UNL     1      -2.548   2.038  -0.778  0.00  0.00    -0.246 OA
ATOM      6  N   UNL     1      -0.728   2.963  -1.627  0.00  0.00    -0.273 N 
ATOM      7  H   UNL     1      -1.210   3.175  -2.477  0.00  0.00    +0.173 HD
ATOM      8  C   UNL     1       0.567   3.311  -1.492  0.00  0.00    +0.277 A 
ATOM      9  O   UNL     1       1.147   3.884  -2.400  0.00  0.00    -0.266 OA
ENDROOT
BRANCH   1  10
ATOM     10  N   UNL     1       2.603   3.361  -0.134  0.00  0.00    -0.259 N 
ATOM     11  C   UNL     1       2.960   4.662  -0.093  0.00  0.00    +0.258 C 
ATOM     12  O   UNL     1       2.109   5.526  -0.111  0.00  0.00    -0.272 OA
BRANCH  10  13
ATOM     13  C   UNL     1       3.623   2.317  -0.007  0.00  0.00    +0.142 C 
BRANCH  13  14
ATOM     14  C   UNL     1       4.039   1.839  -1.400  0.00  0.00    +0.178 C 
BRANCH  14  16
ATOM     15  C   UNL     1       5.109   2.567  -3.418  0.00  0.00    +0.194 C 
ATOM     16  O   UNL     1       4.678   2.909  -2.099  0.00  0.00    -0.381 OA
ENDBRANCH  14  16
ENDBRANCH  13  14
ENDBRANCH  10  13
BRANCH  11  17
ATOM     17  C   UNL     1       4.417   5.041  -0.027  0.00  0.00    +0.325 C 
BRANCH  17  18
ATOM     18  O   UNL     1       4.538   6.465   0.007  0.00  0.00    -0.481 OA
BRANCH  18  19
ATOM     19  C   UNL     1       5.796   6.976   0.068  0.00  0.00    +0.141 A 
ATOM     20  C   UNL     1       6.891   6.125   0.095  0.00  0.00    +0.047 A 
ATOM     21  C   UNL     1       8.169   6.646   0.157  0.00  0.00    +0.005 A 
ATOM     22  C   UNL     1       8.358   8.015   0.191  0.00  0.00    +0.022 A 
ATOM     23  C   UNL     1       7.268   8.867   0.165  0.00  0.00    +0.063 A 
ATOM     24  C   UNL     1       5.987   8.350   0.097  0.00  0.00    +0.101 A 
ATOM     25 CL   UNL     1       4.619   9.419   0.056  0.00  0.00    -0.078 Cl
ATOM     26 CL   UNL     1       7.509  10.586   0.209  0.00  0.00    -0.082 Cl
ENDBRANCH  18  19
ENDBRANCH  17  18
ENDBRANCH  11  17
ENDBRANCH   1  10
BRANCH   2  27
ATOM     27  N   UNL     1       1.197   2.046   1.890  0.00  0.00    -0.343 N 
ATOM     28  H   UNL     1       2.097   2.369   2.058  0.00  0.00    +0.144 HD
ATOM     29  H   UNL     1       0.745   1.503   2.554  0.00  0.00    +0.144 HD
ENDBRANCH   2  27
BRANCH   3  30
ATOM     30  C   UNL     1      -1.494   1.336   1.583  0.00  0.00    +0.163 C 
BRANCH  30  31
ATOM     31  C   UNL     1      -2.139   2.353   2.489  0.00  0.00    -0.028 A 
ATOM     32  C   UNL     1      -1.457   2.825   3.594  0.00  0.00    +0.005 A 
ATOM     33  C   UNL     1      -2.047   3.762   4.422  0.00  0.00    +0.000 A 
ATOM     34  C   UNL     1      -3.323   4.218   4.151  0.00  0.00    +0.000 A 
ATOM     35  C   UNL     1      -4.007   3.742   3.048  0.00  0.00    +0.000 A 
ATOM     36  C   UNL     1      -3.415   2.810   2.217  0.00  0.00    +0.005 A 
ENDBRANCH  30  31
ENDBRANCH   3  30
TORSDOF 10
