REMARK  Name = ZINC38001720
REMARK  4 active torsions:
REMARK  status: ('A' for Active; 'I' for Inactive)
REMARK    1  A    between atoms: C_1  and  C_2
REMARK    2  A    between atoms: C_2  and  C_4
REMARK    3  A    between atoms: C_2  and  N_10
REMARK    4  A    between atoms: N_10  and  C_11
REMARK                            x       y       z     vdW  Elec       q    Type
REMARK                         _______ _______ _______ _____ _____    ______ ____
ROOT
ATOM      1  C   UNL     1      -2.049  -0.660   1.217  0.00  0.00    +0.041 A 
ATOM      2  C   UNL     1      -1.399  -0.423   2.420  0.00  0.00    +0.024 A 
ATOM      3  C   UNL     1      -2.068  -0.570   3.624  0.00  0.00    +0.003 A 
ATOM      4  C   UNL     1      -3.393  -0.952   3.655  0.00  0.00    +0.014 A 
ATOM      5  C   UNL     1      -4.072  -1.196   2.462  0.00  0.00    +0.057 A 
ATOM      6  C   UNL     1      -3.397  -1.044   1.229  0.00  0.00    +0.074 A 
ATOM      7  C   UNL     1      -4.140  -1.303  -0.006  0.00  0.00    +0.274 A 
ATOM      8  O   UNL     1      -3.597  -1.189  -1.091  0.00  0.00    -0.266 OA
ATOM      9  N   UNL     1      -5.435  -1.670   0.077  0.00  0.00    -0.239 N 
ATOM     10  H   UNL     1      -5.930  -1.842  -0.739  0.00  0.00    +0.192 HD
ATOM     11  N   UNL     1      -6.082  -1.809   1.306  0.00  0.00    -0.128 NA
ATOM     12  C   UNL     1      -5.480  -1.605   2.444  0.00  0.00    +0.295 A 
ATOM     13  O   UNL     1      -6.160  -1.757   3.609  0.00  0.00    -0.264 OA
ENDROOT
BRANCH   1  14
ATOM     14  N   UNL     1      -1.372  -0.511   0.012  0.00  0.00    -0.336 N 
ATOM     15  H   UNL     1      -1.805  -0.757  -0.820  0.00  0.00    +0.147 HD
BRANCH  14  17
ATOM     16  C   UNL     1      -0.051   1.547  -0.005  0.00  0.00    +0.033 C 
ATOM     17  C   UNL     1      -0.006   0.018   0.000  0.00  0.00    +0.104 C 
BRANCH  17  18
ATOM     18  C   UNL     1       0.709  -0.468  -1.234  0.00  0.00    +0.011 A 
ATOM     19  C   UNL     1       1.989  -0.893  -1.367  0.00  0.00    +0.014 A 
ATOM     20  C   UNL     1       2.436  -1.298  -2.611  0.00  0.00    +0.023 A 
ATOM     21  C   UNL     1       1.580  -1.257  -3.662  0.00  0.00    +0.055 A 
ATOM     22  S   UNL     1       0.088  -0.640  -2.899  0.00  0.00    -0.085 S 
ATOM     23 BR   UNL     1       1.884  -1.737  -5.465  0.00  0.00    -0.043 Br
ENDBRANCH  17  18
ENDBRANCH  14  17
ENDBRANCH   1  14
TORSDOF 3
