REMARK  Name = ZINC12680504
REMARK  7 active torsions:
REMARK  status: ('A' for Active; 'I' for Inactive)
REMARK    1  A    between atoms: C_3  and  C_17
REMARK    2  A    between atoms: C_5  and  S_7
REMARK    3  A    between atoms: S_7  and  N_10
REMARK    4  A    between atoms: N_19  and  C_20
REMARK    5  A    between atoms: C_20  and  C_21
REMARK    6  A    between atoms: C_21  and  C_23
REMARK    7  A    between atoms: C_21  and  N_62
REMARK                            x       y       z     vdW  Elec       q    Type
REMARK                         _______ _______ _______ _____ _____    ______ ____
ROOT
ATOM      1  C   UNL     1      -1.962   3.401  -4.590  0.00  0.00    +0.244 C 
ATOM      2  O   UNL     1      -2.760   2.795  -5.277  0.00  0.00    -0.270 OA
ATOM      3  N   UNL     1      -1.240   2.747  -3.659  0.00  0.00    -0.312 N 
ATOM      4  H   UNL     1      -0.603   3.231  -3.111  0.00  0.00    +0.149 HD
ENDROOT
BRANCH   1   7
ATOM      5  C   UNL     1      -0.704   6.915  -4.167  0.00  0.00    +0.003 A 
ATOM      6  C   UNL     1      -0.870   5.557  -3.985  0.00  0.00    +0.013 A 
ATOM      7  C   UNL     1      -1.782   4.857  -4.776  0.00  0.00    +0.039 A 
ATOM      8  C   UNL     1      -2.528   5.538  -5.740  0.00  0.00    +0.041 A 
ATOM      9  C   UNL     1      -2.356   6.896  -5.908  0.00  0.00    +0.106 A 
ATOM     10  C   UNL     1      -1.446   7.584  -5.123  0.00  0.00    +0.028 A 
BRANCH   9  11
ATOM     11  S   UNL     1      -3.296   7.758  -7.123  0.00  0.00    +0.061 S 
ATOM     12  O   UNL     1      -2.557   8.925  -7.457  0.00  0.00    -0.153 OA
ATOM     13  O   UNL     1      -3.681   6.796  -8.096  0.00  0.00    -0.153 OA
BRANCH  11  14
ATOM     14  N   UNL     1      -4.689   8.273  -6.391  0.00  0.00    -0.177 NA
ATOM     15  C   UNL     1      -5.846   7.407  -6.414  0.00  0.00    +0.109 C 
ATOM     16  C   UNL     1      -6.685   7.686  -7.679  0.00  0.00    +0.017 C 
ATOM     17  C   UNL     1      -7.359   8.989  -7.567  0.00  0.00    +0.001 C 
ATOM     18  C   UNL     1      -6.411  10.180  -7.470  0.00  0.00    +0.001 C 
ATOM     19  C   UNL     1      -5.998  10.376  -6.032  0.00  0.00    +0.017 C 
ATOM     20  C   UNL     1      -4.699   9.601  -5.745  0.00  0.00    +0.109 C 
ENDBRANCH  11  14
ENDBRANCH   9  11
ENDBRANCH   1   7
BRANCH   3  21
ATOM     21  C   UNL     1      -1.418   1.304  -3.475  0.00  0.00    +0.097 C 
BRANCH  21  22
ATOM     22  C   UNL     1      -0.487   0.813  -2.365  0.00  0.00    +0.016 C 
BRANCH  22  27
ATOM     23  C   UNL     1      -0.061   0.968   0.028  0.00  0.00    -0.078 C 
ATOM     24  C   UNL     1      -0.808   1.536   1.253  0.00  0.00    -0.020 C 
ATOM     25  C   UNL     1      -2.198   1.949   0.716  0.00  0.00    -0.020 C 
ATOM     26  C   UNL     1      -2.169   1.594  -0.786  0.00  0.00    -0.078 C 
ATOM     27  N   UNL     1      -0.745   1.591  -1.112  0.00  0.00    +0.387 N 
ATOM     28  H   UNL     1      -0.411   2.554  -1.238  0.00  0.00    -0.081 HD
ENDBRANCH  22  27
BRANCH  22  29
ATOM     29  C   UNL     1      -0.757  -0.644  -2.091  0.00  0.00    +0.093 A 
ATOM     30  C   UNL     1       0.039  -1.671  -2.440  0.00  0.00    +0.043 A 
ATOM     31  C   UNL     1      -0.594  -2.851  -1.988  0.00  0.00    +0.041 A 
ATOM     32  C   UNL     1      -1.742  -2.476  -1.396  0.00  0.00    +0.195 A 
ATOM     33  O   UNL     1      -1.836  -1.138  -1.462  0.00  0.00    -0.469 OA
ENDBRANCH  22  29
ENDBRANCH  21  22
ENDBRANCH   3  21
TORSDOF 7
