REMARK  Name = ZINC39314785
REMARK  3 active torsions:
REMARK  status: ('A' for Active; 'I' for Inactive)
REMARK    1  A    between atoms: C_6  and  C_7
REMARK    2  A    between atoms: C_7  and  N_8
REMARK    3  A    between atoms: C_16  and  C_18
REMARK                            x       y       z     vdW  Elec       q    Type
REMARK                         _______ _______ _______ _____ _____    ______ ____
ROOT
ATOM      1  N   UNL     1      -1.726  -1.017  -1.368  0.00  0.00    -0.302 N 
ATOM      2  C   UNL     1      -2.545  -0.181  -2.140  0.00  0.00    +0.054 A 
ATOM      3  C   UNL     1      -3.137   1.038  -1.831  0.00  0.00    +0.046 A 
ATOM      4  C   UNL     1      -3.916   1.689  -2.769  0.00  0.00    +0.061 A 
ATOM      5  C   UNL     1      -4.109   1.130  -4.021  0.00  0.00    +0.061 A 
ATOM      6  C   UNL     1      -3.523  -0.082  -4.336  0.00  0.00    +0.046 A 
ATOM      7  C   UNL     1      -2.738  -0.743  -3.399  0.00  0.00    +0.052 A 
ATOM      8  N   UNL     1      -2.052  -1.963  -3.484  0.00  0.00    -0.321 N 
ATOM      9  C   UNL     1      -1.379  -2.177  -2.197  0.00  0.00    +0.191 C 
ATOM     10 CL   UNL     1      -5.088   1.951  -5.196  0.00  0.00    -0.082 Cl
ATOM     11 CL   UNL     1      -4.654   3.211  -2.377  0.00  0.00    -0.082 Cl
ATOM     12  H   UNL     1      -2.024  -2.554  -4.253  0.00  0.00    +0.148 HD
ENDROOT
BRANCH   9  13
ATOM     13  C   UNL     1      -1.881  -3.445  -1.556  0.00  0.00    +0.003 C 
ATOM     14  C   UNL     1      -1.006  -4.403  -1.214  0.00  0.00    -0.009 C 
ATOM     15  C   UNL     1      -1.564  -5.659  -0.572  0.00  0.00    +0.125 C 
ATOM     16  C   UNL     1      -3.065  -5.711  -0.375  0.00  0.00    +0.240 C 
ATOM     17  O   UNL     1      -3.594  -6.680   0.132  0.00  0.00    -0.273 OA
ATOM     18  N   UNL     1      -3.794  -4.661  -0.775  0.00  0.00    -0.188 NA
ATOM     19  C   UNL     1      -3.260  -3.602  -1.319  0.00  0.00    +0.107 C 
ENDBRANCH   9  13
BRANCH   1  20
ATOM     20  C   UNL     1      -1.293  -0.775   0.011  0.00  0.00    +0.142 C 
BRANCH  20  26
ATOM     21  C   UNL     1      -0.017   1.378   0.010  0.00  0.00    +0.007 A 
ATOM     22  C   UNL     1       1.171   2.086   0.002  0.00  0.00    +0.022 A 
ATOM     23  C   UNL     1       2.378   1.412  -0.013  0.00  0.00    +0.059 A 
ATOM     24  C   UNL     1       2.397   0.027  -0.021  0.00  0.00    +0.060 A 
ATOM     25  C   UNL     1       1.208  -0.680  -0.013  0.00  0.00    +0.026 A 
ATOM     26  C   UNL     1       0.002  -0.004   0.002  0.00  0.00    -0.029 A 
ATOM     27 CL   UNL     1       3.912  -0.821  -0.040  0.00  0.00    -0.082 Cl
ATOM     28 CL   UNL     1       3.869   2.301  -0.023  0.00  0.00    -0.082 Cl
ENDBRANCH  20  26
ENDBRANCH   1  20
TORSDOF 3
