REMARK  Name = ZINC02216150
REMARK  9 active torsions:
REMARK  status: ('A' for Active; 'I' for Inactive)
REMARK    1  A    between atoms: C_1  and  O_2
REMARK    2  A    between atoms: O_2  and  C_3
REMARK    3  A    between atoms: C_8  and  C_9
REMARK    4  A    between atoms: C_10  and  C_20
REMARK    5  A    between atoms: C_14  and  C_15
REMARK    6  A    between atoms: C_23  and  O_27
REMARK    7  A    between atoms: C_25  and  O_26
REMARK    8  A    between atoms: O_27  and  C_28
REMARK    9  A    between atoms: C_28  and  C_29
REMARK                            x       y       z     vdW  Elec       q    Type
REMARK                         _______ _______ _______ _____ _____    ______ ____
ROOT
ATOM      1  C   UNL     1       2.356   0.062   0.101  0.00  0.00    +0.042 A 
ATOM      2  C   UNL     1       1.155  -0.668  -0.013  0.00  0.00    +0.088 A 
ATOM      3  N   UNL     1       0.007  -0.003  -0.112  0.00  0.00    -0.214 NA
ATOM      4  C   UNL     1      -0.011   1.320  -0.105  0.00  0.00    +0.214 A 
ATOM      5  N   UNL     1       1.099   2.037  -0.000  0.00  0.00    -0.210 NA
ATOM      6  C   UNL     1       2.282   1.455   0.103  0.00  0.00    +0.157 A 
ATOM      7  N   UNL     1      -1.225   1.975  -0.217  0.00  0.00    -0.327 N 
ATOM      8  H   UNL     1      -2.046   1.465  -0.298  0.00  0.00    +0.145 HD
ATOM      9  H   UNL     1      -1.255   2.945  -0.213  0.00  0.00    +0.145 HD
ENDROOT
BRANCH   1  15
ATOM     10  C   UNL     1       4.170  -0.968   1.472  0.00  0.00    +0.128 A 
ATOM     11  C   UNL     1       5.391  -1.616   1.568  0.00  0.00    +0.046 A 
ATOM     12  C   UNL     1       6.101  -1.928   0.424  0.00  0.00    +0.004 A 
ATOM     13  C   UNL     1       5.599  -1.597  -0.822  0.00  0.00    +0.001 A 
ATOM     14  C   UNL     1       4.383  -0.955  -0.933  0.00  0.00    +0.012 A 
ATOM     15  C   UNL     1       3.660  -0.631   0.214  0.00  0.00    +0.028 A 
BRANCH  10  17
ATOM     16  C   UNL     1       4.054  -1.035   3.845  0.00  0.00    +0.277 C 
ATOM     17  O   UNL     1       3.471  -0.660   2.596  0.00  0.00    -0.495 OA
ENDBRANCH  10  17
ENDBRANCH   1  15
BRANCH   2  18
ATOM     18  C   UNL     1       1.172  -2.147  -0.020  0.00  0.00    +0.043 A 
ATOM     19  C   UNL     1       1.947  -2.834  -0.956  0.00  0.00    +0.017 A 
ATOM     20  C   UNL     1       1.961  -4.211  -0.961  0.00  0.00    +0.046 A 
ATOM     21  C   UNL     1       1.204  -4.921  -0.035  0.00  0.00    +0.124 A 
ATOM     22  C   UNL     1       0.431  -4.248   0.898  0.00  0.00    +0.091 A 
ATOM     23  C   UNL     1       0.415  -2.863   0.915  0.00  0.00    +0.129 A 
BRANCH  23  24
ATOM     24  O   UNL     1      -0.336  -2.202   1.833  0.00  0.00    -0.506 OA
ATOM     25  H   UNL     1      -1.239  -2.015   1.541  0.00  0.00    +0.292 HD
ENDBRANCH  23  24
BRANCH  21  26
ATOM     26  O   UNL     1       1.222  -6.279  -0.046  0.00  0.00    -0.487 OA
BRANCH  26  27
ATOM     27  C   UNL     1       2.040  -6.910  -1.034  0.00  0.00    +0.264 C 
BRANCH  27  28
ATOM     28  C   UNL     1       1.934  -8.406  -0.893  0.00  0.00    -0.010 A 
ATOM     29  C   UNL     1       2.814  -9.086  -0.072  0.00  0.00    +0.010 A 
ATOM     30  C   UNL     1       2.716 -10.458   0.062  0.00  0.00    +0.039 A 
ATOM     31  C   UNL     1       1.742 -11.153  -0.634  0.00  0.00    +0.123 A 
ATOM     32  C   UNL     1       0.864 -10.471  -1.461  0.00  0.00    +0.039 A 
ATOM     33  C   UNL     1       0.961  -9.099  -1.589  0.00  0.00    +0.010 A 
ATOM     34  F   UNL     1       1.647 -12.495  -0.508  0.00  0.00    -0.205 F 
ENDBRANCH  27  28
ENDBRANCH  26  27
ENDBRANCH  21  26
ENDBRANCH   2  18
BRANCH   6  35
ATOM     35  C   UNL     1       3.533   2.285   0.222  0.00  0.00    +0.435 C 
ATOM     36  F   UNL     1       4.040   2.551  -1.054  0.00  0.00    -0.164 F 
ATOM     37  F   UNL     1       3.233   3.491   0.865  0.00  0.00    -0.164 F 
ATOM     38  F   UNL     1       4.489   1.585   0.967  0.00  0.00    -0.164 F 
ENDBRANCH   6  35
TORSDOF 8
