REMARK  Name = ZINC64176546
REMARK  7 active torsions:
REMARK  status: ('A' for Active; 'I' for Inactive)
REMARK    1  A    between atoms: C_4  and  C_7
REMARK    2  A    between atoms: C_7  and  C_9
REMARK    3  A    between atoms: C_7  and  C_25
REMARK    4  A    between atoms: C_9  and  N_10
REMARK    5  A    between atoms: C_11  and  C_13
REMARK    6  A    between atoms: C_13  and  C_14
REMARK    7  A    between atoms: C_14  and  N_15
REMARK                            x       y       z     vdW  Elec       q    Type
REMARK                         _______ _______ _______ _____ _____    ______ ____
ROOT
ATOM      1  C   UNL     1       3.817  -1.592   1.206  0.00  0.00    +0.116 C 
ENDROOT
BRANCH   1   2
ATOM      2  N   UNL     1       3.861  -0.748   2.403  0.00  0.00    -0.314 N 
ATOM      3  C   UNL     1       3.954  -1.314   3.623  0.00  0.00    +0.215 C 
ATOM      4  O   UNL     1       4.003  -2.521   3.730  0.00  0.00    -0.276 OA
ATOM      5  H   UNL     1       3.822   0.217   2.318  0.00  0.00    +0.149 HD
BRANCH   3   6
ATOM      6  C   UNL     1       3.999  -0.446   4.854  0.00  0.00    +0.115 C 
BRANCH   6   7
ATOM      7  C   UNL     1       4.105  -1.331   6.098  0.00  0.00    +0.119 C 
BRANCH   7   8
ATOM      8  N   UNL     1       4.149  -0.487   7.295  0.00  0.00    -0.281 N 
ATOM      9  C   UNL     1       5.451  -0.039   7.779  0.00  0.00    +0.213 C 
ATOM     10  N   UNL     1       5.362   1.297   8.394  0.00  0.00    -0.322 N 
ATOM     11  C   UNL     1       4.237   1.564   9.135  0.00  0.00    +0.079 A 
ATOM     12  C   UNL     1       3.024   0.886   8.936  0.00  0.00    +0.065 A 
ATOM     13  C   UNL     1       1.943   1.305   9.800  0.00  0.00    +0.022 A 
ATOM     14  C   UNL     1       2.228   2.279  10.684  0.00  0.00    +0.048 A 
ATOM     15  S   UNL     1       3.944   2.639  10.364  0.00  0.00    -0.081 S 
ATOM     16  C   UNL     1       2.983  -0.159   7.890  0.00  0.00    +0.250 C 
ATOM     17  O   UNL     1       1.940  -0.704   7.581  0.00  0.00    -0.270 OA
ATOM     18  H   UNL     1       6.065   1.956   8.282  0.00  0.00    +0.148 HD
ENDBRANCH   7   8
ENDBRANCH   6   7
ENDBRANCH   3   6
ENDBRANCH   1   2
BRANCH   1  19
ATOM     19  C   UNL     1       3.711  -0.707  -0.038  0.00  0.00    +0.064 C 
BRANCH  19  20
ATOM     20  C   UNL     1       3.790  -1.566  -1.273  0.00  0.00    -0.033 C 
ATOM     21  C   UNL     1       4.716  -1.494  -2.256  0.00  0.00    -0.000 A 
ATOM     22  C   UNL     1       5.883  -0.628  -2.461  0.00  0.00    +0.010 A 
ATOM     23  C   UNL     1       6.640  -0.798  -3.569  0.00  0.00    +0.001 A 
ATOM     24  C   UNL     1       6.338  -1.778  -4.524  0.00  0.00    +0.002 A 
ATOM     25  C   UNL     1       5.284  -2.612  -4.405  0.00  0.00    +0.026 A 
ATOM     26  C   UNL     1       4.420  -2.522  -3.279  0.00  0.00    +0.043 A 
ATOM     27  N   UNL     1       3.352  -3.203  -2.942  0.00  0.00    -0.380 N 
ATOM     28  C   UNL     1       2.853  -2.687  -1.662  0.00  0.00    +0.145 C 
ATOM     29  H   UNL     1       2.959  -3.929  -3.451  0.00  0.00    +0.160 HD
ENDBRANCH  19  20
BRANCH  19  33
ATOM     30  C   UNL     1      -0.017   1.378   0.010  0.00  0.00    +0.000 A 
ATOM     31  C   UNL     1       1.171   2.086   0.002  0.00  0.00    +0.000 A 
ATOM     32  C   UNL     1       2.377   1.411  -0.013  0.00  0.00    +0.004 A 
ATOM     33  C   UNL     1       2.396   0.029  -0.020  0.00  0.00    -0.039 A 
ATOM     34  C   UNL     1       1.208  -0.679  -0.012  0.00  0.00    +0.004 A 
ATOM     35  C   UNL     1       0.002  -0.004   0.002  0.00  0.00    +0.000 A 
ENDBRANCH  19  33
ENDBRANCH   1  19
TORSDOF 7
