REMARK  Name = ZINC03109447
REMARK  9 active torsions:
REMARK  status: ('A' for Active; 'I' for Inactive)
REMARK    1  A    between atoms: C_1  and  C_2
REMARK    2  A    between atoms: C_5  and  S_8
REMARK    3  A    between atoms: S_8  and  N_11
REMARK    4  A    between atoms: N_11  and  C_12
REMARK    5  A    between atoms: C_16  and  N_19
REMARK    6  A    between atoms: C_17  and  C_18
REMARK    7  A    between atoms: N_19  and  S_20
REMARK    8  A    between atoms: S_20  and  C_23
REMARK    9  A    between atoms: C_26  and  C_29
REMARK                            x       y       z     vdW  Elec       q    Type
REMARK                         _______ _______ _______ _____ _____    ______ ____
ROOT
ATOM      1  C   UNL     1       1.147   1.722  -0.336  0.00  0.00    +0.053 A 
ATOM      2  C   UNL     1       1.335   2.983   0.215  0.00  0.00    +0.025 A 
ATOM      3  C   UNL     1       2.579   3.582   0.166  0.00  0.00    +0.004 A 
ATOM      4  C   UNL     1       3.638   2.934  -0.441  0.00  0.00    +0.025 A 
ATOM      5  C   UNL     1       3.455   1.675  -0.998  0.00  0.00    +0.053 A 
ATOM      6  C   UNL     1       2.209   1.068  -0.946  0.00  0.00    -0.006 A 
ATOM      7  C   UNL     1       2.007  -0.299  -1.549  0.00  0.00    +0.047 C 
ENDROOT
BRANCH   1   8
ATOM      8  N   UNL     1      -0.109   1.114  -0.281  0.00  0.00    -0.216 N 
ATOM      9  H   UNL     1      -0.179   0.154  -0.165  0.00  0.00    +0.174 HD
BRANCH   8  10
ATOM     10  S   UNL     1      -1.480   2.033  -0.419  0.00  0.00    +0.072 S 
ATOM     11  O   UNL     1      -2.573   1.127  -0.472  0.00  0.00    -0.150 OA
ATOM     12  O   UNL     1      -1.385   3.055   0.565  0.00  0.00    -0.150 OA
BRANCH  10  17
ATOM     13  C   UNL     1      -1.253   4.781  -5.786  0.00  0.00    +0.044 C 
ATOM     14  C   UNL     1      -1.310   4.095  -4.445  0.00  0.00    -0.050 A 
ATOM     15  C   UNL     1      -1.906   2.853  -4.329  0.00  0.00    +0.005 A 
ATOM     16  C   UNL     1      -1.958   2.224  -3.099  0.00  0.00    +0.029 A 
ATOM     17  C   UNL     1      -1.413   2.836  -1.986  0.00  0.00    +0.109 A 
ATOM     18  C   UNL     1      -0.821   4.079  -2.101  0.00  0.00    +0.029 A 
ATOM     19  C   UNL     1      -0.765   4.707  -3.332  0.00  0.00    +0.005 A 
ENDBRANCH  10  17
ENDBRANCH   8  10
ENDBRANCH   1   8
BRANCH   5  20
ATOM     20  N   UNL     1       4.526   1.020  -1.611  0.00  0.00    -0.216 N 
ATOM     21  H   UNL     1       4.367   0.428  -2.363  0.00  0.00    +0.174 HD
BRANCH  20  22
ATOM     22  S   UNL     1       6.068   1.254  -1.054  0.00  0.00    +0.072 S 
ATOM     23  O   UNL     1       6.902   0.358  -1.776  0.00  0.00    -0.150 OA
ATOM     24  O   UNL     1       6.287   2.658  -1.043  0.00  0.00    -0.150 OA
BRANCH  22  25
ATOM     25  C   UNL     1       6.100   0.726   0.627  0.00  0.00    +0.109 A 
ATOM     26  C   UNL     1       5.823   1.626   1.639  0.00  0.00    +0.029 A 
ATOM     27  C   UNL     1       5.844   1.210   2.958  0.00  0.00    +0.005 A 
ATOM     28  C   UNL     1       6.151  -0.102   3.264  0.00  0.00    -0.050 A 
ATOM     29  C   UNL     1       6.433  -1.000   2.252  0.00  0.00    +0.005 A 
ATOM     30  C   UNL     1       6.408  -0.586   0.934  0.00  0.00    +0.029 A 
ATOM     31  C   UNL     1       6.179  -0.553   4.702  0.00  0.00    +0.044 C 
ENDBRANCH  22  25
ENDBRANCH  20  22
ENDBRANCH   5  20
TORSDOF 6
