REMARK  Name = ZINC13768243
REMARK  11 active torsions:
REMARK  status: ('A' for Active; 'I' for Inactive)
REMARK    1  A    between atoms: C_1  and  C_2
REMARK    2  A    between atoms: C_2  and  C_3
REMARK    3  A    between atoms: C_3  and  C_4
REMARK    4  A    between atoms: C_4  and  C_5
REMARK    5  A    between atoms: C_5  and  N_6
REMARK    6  A    between atoms: C_7  and  C_18
REMARK    7  A    between atoms: N_11  and  C_12
REMARK    8  A    between atoms: C_22  and  S_24
REMARK    9  A    between atoms: S_24  and  N_27
REMARK   10  A    between atoms: C_29  and  C_36
REMARK   11  A    between atoms: C_32  and  C_35
REMARK                            x       y       z     vdW  Elec       q    Type
REMARK                         _______ _______ _______ _____ _____    ______ ____
ROOT
ATOM      1  N   UNL     1       1.465   8.093   2.932  0.00  0.00    -0.321 N 
ATOM      2  C   UNL     1       1.799   6.883   3.477  0.00  0.00    +0.058 A 
ATOM      3  C   UNL     1       2.969   6.301   3.143  0.00  0.00    +0.075 A 
ATOM      4  S   UNL     1       3.661   7.482   1.997  0.00  0.00    -0.059 S 
ATOM      5  C   UNL     1       2.339   8.682   2.049  0.00  0.00    +0.152 A 
ATOM      6  N   UNL     1       2.229   9.830   1.408  0.00  0.00    -0.336 N 
ATOM      7  H   UNL     1       1.370  10.489   1.602  0.00  0.00    +0.168 HD
ENDROOT
BRANCH   6   8
ATOM      8  C   UNL     1       3.184  10.201   0.502  0.00  0.00    +0.041 A 
ATOM      9  C   UNL     1       4.277  10.970   0.910  0.00  0.00    +0.025 A 
ATOM     10  C   UNL     1       5.239  11.336  -0.008  0.00  0.00    +0.002 A 
ATOM     11  C   UNL     1       5.118  10.953  -1.332  0.00  0.00    +0.000 A 
ATOM     12  C   UNL     1       4.035  10.197  -1.745  0.00  0.00    +0.002 A 
ATOM     13  C   UNL     1       3.068   9.819  -0.837  0.00  0.00    +0.025 A 
ENDBRANCH   6   8
BRANCH   2  14
ATOM     14  C   UNL     1       0.884   6.219   4.431  0.00  0.00    +0.001 A 
ATOM     15  C   UNL     1      -0.492   6.216   4.196  0.00  0.00    +0.010 A 
ATOM     16  C   UNL     1      -1.340   5.596   5.090  0.00  0.00    +0.003 A 
ATOM     17  C   UNL     1      -0.829   4.978   6.217  0.00  0.00    +0.028 A 
ATOM     18  C   UNL     1       0.534   4.977   6.456  0.00  0.00    +0.106 A 
ATOM     19  C   UNL     1       1.392   5.599   5.572  0.00  0.00    +0.038 A 
BRANCH  18  20
ATOM     20  S   UNL     1       1.174   4.188   7.895  0.00  0.00    +0.061 S 
ATOM     21  O   UNL     1       0.118   4.156   8.845  0.00  0.00    -0.153 OA
ATOM     22  O   UNL     1       2.428   4.798   8.170  0.00  0.00    -0.153 OA
BRANCH  20  23
ATOM     23  N   UNL     1       1.493   2.614   7.490  0.00  0.00    -0.172 NA
ATOM     24  C   UNL     1       2.808   2.219   6.962  0.00  0.00    +0.140 C 
ATOM     25  C   UNL     1       2.592   1.410   5.679  0.00  0.00    +0.131 C 
ATOM     26  O   UNL     1       1.669   0.350   5.940  0.00  0.00    -0.371 OA
ATOM     27  C   UNL     1       0.366   0.791   6.330  0.00  0.00    +0.131 C 
ATOM     28  C   UNL     1       0.469   1.569   7.647  0.00  0.00    +0.140 C 
ATOM     29  C   UNL     1      -0.549  -0.420   6.522  0.00  0.00    +0.039 C 
ATOM     30  C   UNL     1       3.926   0.823   5.214  0.00  0.00    +0.039 C 
ENDBRANCH  20  23
ENDBRANCH  18  20
ENDBRANCH   2  14
BRANCH   1  31
ATOM     31  C   UNL     1       0.203   8.748   3.283  0.00  0.00    +0.124 C 
BRANCH  31  32
ATOM     32  C   UNL     1       0.416  10.262   3.353  0.00  0.00    +0.022 C 
BRANCH  32  33
ATOM     33  C   UNL     1      -0.902  10.946   3.720  0.00  0.00    +0.001 C 
BRANCH  33  35
ATOM     34  C   UNL     1      -2.007  13.144   4.157  0.00  0.00    +0.004 C 
ATOM     35  C   UNL     1      -0.689  12.459   3.790  0.00  0.00    -0.003 C 
ENDBRANCH  33  35
ENDBRANCH  32  33
ENDBRANCH  31  32
ENDBRANCH   1  31
TORSDOF 8
