REMARK  Name = ZINC56105780
REMARK  2 active torsions:
REMARK  status: ('A' for Active; 'I' for Inactive)
REMARK    1  A    between atoms: N_14  and  S_16
REMARK    2  A    between atoms: S_16  and  C_19
REMARK                            x       y       z     vdW  Elec       q    Type
REMARK                         _______ _______ _______ _____ _____    ______ ____
ROOT
ATOM      1  C   UNL     1      -0.017   1.385   0.010  0.00  0.00    +0.022 A 
ATOM      2  C   UNL     1       1.159   2.103   0.002  0.00  0.00    +0.027 A 
ATOM      3  C   UNL     1       2.380   1.437  -0.013  0.00  0.00    +0.047 A 
ATOM      4  C   UNL     1       2.401   0.029  -0.022  0.00  0.00    +0.006 A 
ATOM      5  C   UNL     1       1.200  -0.684  -0.013  0.00  0.00    +0.030 A 
ATOM      6  C   UNL     1       0.002  -0.004   0.002  0.00  0.00    +0.042 A 
ATOM      7 CL   UNL     1      -1.492  -0.888   0.012  0.00  0.00    -0.084 Cl
ATOM      8  C   UNL     1       3.809  -0.347  -0.040  0.00  0.00    -0.003 A 
ATOM      9  C   UNL     1       4.533   0.789  -0.043  0.00  0.00    +0.023 A 
ATOM     10  N   UNL     1       3.690   1.865  -0.024  0.00  0.00    -0.358 N 
ATOM     11  H   UNL     1       3.972   2.793  -0.019  0.00  0.00    +0.166 HD
ATOM     12  C   UNL     1       6.043   0.829  -0.070  0.00  0.00    +0.070 C 
ATOM     13  C   UNL     1       6.586  -0.537   0.365  0.00  0.00    +0.116 C 
ATOM     14  N   UNL     1       5.841  -1.596  -0.331  0.00  0.00    -0.172 NA
ATOM     15  C   UNL     1       4.401  -1.735  -0.049  0.00  0.00    +0.147 C 
ENDROOT
BRANCH  14  16
ATOM     16  S   UNL     1       6.599  -2.605  -1.404  0.00  0.00    +0.063 S 
ATOM     17  O   UNL     1       5.594  -3.094  -2.281  0.00  0.00    -0.153 OA
ATOM     18  O   UNL     1       7.747  -1.911  -1.872  0.00  0.00    -0.153 OA
BRANCH  16  19
ATOM     19  C   UNL     1       7.187  -3.991  -0.489  0.00  0.00    +0.124 A 
ATOM     20  C   UNL     1       8.454  -3.973   0.077  0.00  0.00    +0.033 A 
ATOM     21  C   UNL     1       8.875  -5.085   0.788  0.00  0.00    +0.042 A 
ATOM     22  C   UNL     1       8.024  -6.170   0.909  0.00  0.00    +0.129 A 
ATOM     23  N   UNL     1       6.825  -6.152   0.357  0.00  0.00    -0.242 NA
ATOM     24  C   UNL     1       6.390  -5.107  -0.322  0.00  0.00    +0.141 A 
ATOM     25 CL   UNL     1       8.539  -7.570   1.797  0.00  0.00    -0.062 Cl
ENDBRANCH  16  19
ENDBRANCH  14  16
TORSDOF 2
