REMARK  Name = ZINC18266452
REMARK  8 active torsions:
REMARK  status: ('A' for Active; 'I' for Inactive)
REMARK    1  A    between atoms: C_1  and  C_2
REMARK    2  A    between atoms: C_5  and  N_8
REMARK    3  A    between atoms: N_8  and  C_9
REMARK    4  A    between atoms: C_11  and  C_22
REMARK    5  A    between atoms: N_13  and  C_16
REMARK    6  A    between atoms: C_22  and  S_23
REMARK    7  A    between atoms: S_23  and  C_24
REMARK    8  A    between atoms: N_28  and  C_29
REMARK                            x       y       z     vdW  Elec       q    Type
REMARK                         _______ _______ _______ _____ _____    ______ ____
ROOT
ATOM      1  C   UNL     1       0.075  -4.849   1.144  0.00  0.00    +0.087 C 
ATOM      2  C   UNL     1       0.093  -6.234   1.137  0.00  0.00    +0.076 C 
ATOM      3  C   UNL     1       0.105  -7.136   2.298  0.00  0.00    +0.083 C 
ATOM      4  N   UNL     1       0.121  -8.353   1.848  0.00  0.00    -0.175 NA
ATOM      5  N   UNL     1       0.121  -8.379   0.454  0.00  0.00    -0.156 N 
ATOM      6  C   UNL     1       0.099  -7.122  -0.033  0.00  0.00    +0.273 C 
ATOM      7  O   UNL     1       0.088  -6.789  -1.206  0.00  0.00    -0.268 OA
ENDROOT
BRANCH   5   8
ATOM      8  C   UNL     1       0.136  -9.541  -0.327  0.00  0.00    +0.060 A 
ATOM      9  C   UNL     1       0.141  -9.449  -1.713  0.00  0.00    +0.025 A 
ATOM     10  C   UNL     1       0.156 -10.597  -2.480  0.00  0.00    +0.002 A 
ATOM     11  C   UNL     1       0.167 -11.838  -1.870  0.00  0.00    +0.000 A 
ATOM     12  C   UNL     1       0.162 -11.934  -0.491  0.00  0.00    +0.002 A 
ATOM     13  C   UNL     1       0.152 -10.789   0.282  0.00  0.00    +0.025 A 
ENDBRANCH   5   8
BRANCH   1  14
ATOM     14  N   UNL     1       0.059  -4.168  -0.021  0.00  0.00    -0.320 N 
ATOM     15  H   UNL     1       0.062  -4.649  -0.864  0.00  0.00    +0.152 HD
BRANCH  14  20
ATOM     16  C   UNL     1      -0.018   1.503   0.010  0.00  0.00    +0.044 C 
ATOM     17  C   UNL     1       0.002  -0.004   0.002  0.00  0.00    -0.050 A 
ATOM     18  C   UNL     1       0.006  -0.687  -1.200  0.00  0.00    +0.005 A 
ATOM     19  C   UNL     1       0.025  -2.068  -1.212  0.00  0.00    +0.023 A 
ATOM     20  C   UNL     1       0.041  -2.771  -0.013  0.00  0.00    +0.031 A 
ATOM     21  C   UNL     1       0.037  -2.081   1.193  0.00  0.00    +0.023 A 
ATOM     22  C   UNL     1       0.023  -0.700   1.197  0.00  0.00    +0.005 A 
ENDBRANCH  14  20
ENDBRANCH   1  14
BRANCH   3  23
ATOM     23  C   UNL     1       0.101  -6.722   3.747  0.00  0.00    +0.135 C 
BRANCH  23  24
ATOM     24  S   UNL     1       0.120  -8.200   4.798  0.00  0.00    -0.078 S 
BRANCH  24  25
ATOM     25  C   UNL     1       0.113  -7.557   6.439  0.00  0.00    +0.214 A 
ATOM     26  N   UNL     1       0.091  -6.286   6.780  0.00  0.00    -0.101 NA
ATOM     27  N   UNL     1       0.091  -6.165   8.059  0.00  0.00    -0.022 NA
ATOM     28  N   UNL     1       0.113  -7.324   8.621  0.00  0.00    -0.038 NA
ATOM     29  N   UNL     1       0.123  -8.278   7.588  0.00  0.00    -0.187 N 
BRANCH  29  30
ATOM     30  C   UNL     1       0.141  -9.674   7.718  0.00  0.00    +0.070 A 
ATOM     31  C   UNL     1      -0.534 -10.466   6.799  0.00  0.00    +0.028 A 
ATOM     32  C   UNL     1      -0.514 -11.841   6.929  0.00  0.00    +0.002 A 
ATOM     33  C   UNL     1       0.176 -12.428   7.973  0.00  0.00    +0.000 A 
ATOM     34  C   UNL     1       0.850 -11.642   8.890  0.00  0.00    +0.002 A 
ATOM     35  C   UNL     1       0.838 -10.267   8.762  0.00  0.00    +0.028 A 
ENDBRANCH  29  30
ENDBRANCH  24  25
ENDBRANCH  23  24
ENDBRANCH   3  23
TORSDOF 7
