REMARK  Name = ZINC35271267
REMARK  16 active torsions:
REMARK  status: ('A' for Active; 'I' for Inactive)
REMARK    1  A    between atoms: C_1  and  C_2
REMARK    2  A    between atoms: C_3  and  C_4
REMARK    3  A    between atoms: C_3  and  C_5
REMARK    4  A    between atoms: C_5  and  O_7
REMARK    5  A    between atoms: O_7  and  C_8
REMARK    6  A    between atoms: C_10  and  O_40
REMARK    7  A    between atoms: C_12  and  O_39
REMARK    8  A    between atoms: C_14  and  C_38
REMARK    9  A    between atoms: C_17  and  O_19
REMARK   10  A    between atoms: O_19  and  C_20
REMARK   11  A    between atoms: C_20  and  C_37
REMARK   12  A    between atoms: C_23  and  O_36
REMARK   13  A    between atoms: C_25  and  C_35
REMARK   14  A    between atoms: C_29  and  C_32
REMARK   15  A    between atoms: C_32  and  C_33
REMARK   16  A    between atoms: C_32  and  C_34
REMARK                            x       y       z     vdW  Elec       q    Type
REMARK                         _______ _______ _______ _____ _____    ______ ____
ROOT
ATOM      1  C   UNL     1       1.883   0.850   4.348  0.00  0.00    +0.263 C 
ATOM      2  C   UNL     1       3.270   1.451   4.098  0.00  0.00    +0.191 C 
ATOM      3  C   UNL     1       4.311   0.327   4.111  0.00  0.00    +0.175 C 
ATOM      4  C   UNL     1       4.231  -0.415   5.448  0.00  0.00    +0.149 C 
ATOM      5  O   UNL     1       2.908  -0.922   5.632  0.00  0.00    -0.342 OA
ATOM      6  C   UNL     1       1.896   0.088   5.675  0.00  0.00    +0.295 C 
ATOM      7  C   UNL     1       5.227  -1.577   5.446  0.00  0.00    +0.041 C 
ENDROOT
BRANCH   3   8
ATOM      8  O   UNL     1       4.045  -0.583   3.042  0.00  0.00    -0.387 OA
ATOM      9  H   UNL     1       4.667  -1.322   2.990  0.00  0.00    +0.210 HD
ENDBRANCH   3   8
BRANCH   2  10
ATOM     10  O   UNL     1       3.573   2.398   5.124  0.00  0.00    -0.385 OA
ATOM     11  H   UNL     1       4.439   2.818   5.028  0.00  0.00    +0.210 HD
ENDBRANCH   2  10
BRANCH   1  12
ATOM     12  O   UNL     1       1.552  -0.046   3.285  0.00  0.00    -0.450 OA
BRANCH  12  13
ATOM     13  C   UNL     1       0.907   0.475   2.223  0.00  0.00    +0.335 C 
ATOM     14  O   UNL     1       0.632   1.659   2.200  0.00  0.00    -0.245 OA
BRANCH  13  17
ATOM     15  C   UNL     1      -0.443   1.594   0.016  0.00  0.00    +0.036 C 
ATOM     16  C   UNL     1      -0.103   0.127   0.045  0.00  0.00    -0.020 C 
ATOM     17  C   UNL     1       0.535  -0.388   1.093  0.00  0.00    +0.029 C 
ATOM     18  C   UNL     1       0.875  -1.856   1.122  0.00  0.00    +0.051 C 
ENDBRANCH  13  17
ENDBRANCH  12  13
ENDBRANCH   1  12
BRANCH   6  19
ATOM     19  O   UNL     1       0.621  -0.521   5.888  0.00  0.00    -0.341 OA
BRANCH  19  20
ATOM     20  C   UNL     1       0.448  -1.067   7.197  0.00  0.00    +0.074 C 
ATOM     21  C   UNL     1       1.518  -2.130   7.447  0.00  0.00    +0.037 C 
ATOM     22  C   UNL     1       1.380  -3.233   6.395  0.00  0.00    +0.035 C 
ATOM     23  C   UNL     1      -0.001  -3.874   6.522  0.00  0.00    +0.121 C 
ATOM     24  C   UNL     1      -1.091  -2.824   6.287  0.00  0.00    +0.003 C 
ATOM     25  C   UNL     1      -0.947  -1.689   7.308  0.00  0.00    +0.033 C 
ATOM     26  C   UNL     1      -1.980  -0.605   6.979  0.00  0.00    +0.037 C 
ATOM     27  C   UNL     1      -3.337  -1.211   6.787  0.00  0.00    -0.070 C 
ATOM     28  C   UNL     1      -3.543  -2.470   6.571  0.00  0.00    -0.027 C 
ATOM     29  C   UNL     1      -2.454  -3.496   6.497  0.00  0.00    +0.036 C 
ATOM     30  C   UNL     1      -0.992  -2.278   4.861  0.00  0.00    +0.014 C 
ATOM     31  C   UNL     1       0.591   0.048   8.235  0.00  0.00    +0.042 C 
BRANCH  27  32
ATOM     32  C   UNL     1      -4.535  -0.299   6.850  0.00  0.00    +0.008 C 
ATOM     33  C   UNL     1      -4.592   0.375   8.223  0.00  0.00    +0.012 C 
ATOM     34  C   UNL     1      -4.420   0.770   5.762  0.00  0.00    +0.012 C 
ENDBRANCH  27  32
BRANCH  23  35
ATOM     35  O   UNL     1      -0.132  -4.915   5.552  0.00  0.00    -0.391 OA
ATOM     36  H   UNL     1       0.521  -5.622   5.644  0.00  0.00    +0.210 HD
ENDBRANCH  23  35
ENDBRANCH  19  20
ENDBRANCH   6  19
TORSDOF 9
