REMARK  Name = ZINC37392583
REMARK  5 active torsions:
REMARK  status: ('A' for Active; 'I' for Inactive)
REMARK    1  A    between atoms: C_1  and  C_2
REMARK    2  A    between atoms: C_5  and  S_9
REMARK    3  A    between atoms: C_7  and  N_8
REMARK    4  A    between atoms: S_9  and  N_12
REMARK    5  A    between atoms: N_12  and  C_13
REMARK                            x       y       z     vdW  Elec       q    Type
REMARK                         _______ _______ _______ _____ _____    ______ ____
ROOT
ATOM      1  S   UNL     1       0.062  -4.535  -0.031  0.00  0.00    +0.092 S 
ATOM      2  O   UNL     1      -0.477  -4.960   1.213  0.00  0.00    -0.148 OA
ATOM      3  O   UNL     1      -0.490  -4.937  -1.277  0.00  0.00    -0.148 OA
ENDROOT
BRANCH   1   8
ATOM      4  C   UNL     1      -0.018   1.503   0.010  0.00  0.00    +0.045 C 
ATOM      5  C   UNL     1       0.002  -0.004   0.002  0.00  0.00    -0.030 A 
ATOM      6  C   UNL     1       0.006  -0.689  -1.198  0.00  0.00    +0.007 A 
ATOM      7  C   UNL     1       0.024  -2.071  -1.206  0.00  0.00    +0.029 A 
ATOM      8  C   UNL     1       0.039  -2.773  -0.014  0.00  0.00    +0.112 A 
ATOM      9  C   UNL     1       0.036  -2.095   1.188  0.00  0.00    +0.051 A 
ATOM     10  C   UNL     1       0.023  -0.706   1.200  0.00  0.00    +0.029 A 
BRANCH  10  11
ATOM     11  N   UNL     1       0.025  -0.016   2.415  0.00  0.00    -0.358 N 
ATOM     12  H   UNL     1       0.012   0.954   2.422  0.00  0.00    +0.142 HD
ATOM     13  H   UNL     1       0.040  -0.507   3.252  0.00  0.00    +0.142 HD
ENDBRANCH  10  11
ENDBRANCH   1   8
BRANCH   1  14
ATOM     14  N   UNL     1       1.650  -5.004  -0.044  0.00  0.00    -0.094 NA
BRANCH  14  15
ATOM     15  C   UNL     1       1.978  -6.366  -0.058  0.00  0.00    +0.123 A 
ATOM     16  C   UNL     1       0.971  -7.324  -0.068  0.00  0.00    +0.152 A 
ATOM     17  C   UNL     1       1.297  -8.668  -0.082  0.00  0.00    +0.078 A 
ATOM     18  C   UNL     1       2.626  -9.058  -0.086  0.00  0.00    +0.127 A 
ATOM     19  C   UNL     1       3.630  -8.105  -0.077  0.00  0.00    +0.055 A 
ATOM     20  C   UNL     1       3.309  -6.760  -0.069  0.00  0.00    +0.048 A 
ATOM     21 BR   UNL     1       4.681  -5.460  -0.064  0.00  0.00    -0.048 Br
ATOM     22  F   UNL     1       2.943 -10.371  -0.100  0.00  0.00    -0.205 F 
ATOM     23  F   UNL     1      -0.326  -6.944  -0.062  0.00  0.00    -0.203 F 
ENDBRANCH  14  15
ENDBRANCH   1  14
TORSDOF 4
