REMARK  Name = ZINC32092622
REMARK  3 active torsions:
REMARK  status: ('A' for Active; 'I' for Inactive)
REMARK    1  A    between atoms: C_9  and  O_26
REMARK    2  A    between atoms: C_14  and  C_23
REMARK    3  A    between atoms: C_15  and  C_16
REMARK                            x       y       z     vdW  Elec       q    Type
REMARK                         _______ _______ _______ _____ _____    ______ ____
ROOT
ATOM      1  C   UNL     1      -0.017   1.386   0.010  0.00  0.00    +0.000 A 
ATOM      2  C   UNL     1       1.151   2.121   0.003  0.00  0.00    +0.002 A 
ATOM      3  C   UNL     1       2.398   1.516  -0.013  0.00  0.00    +0.023 A 
ATOM      4  C   UNL     1       2.431   0.121  -0.021  0.00  0.00    +0.038 A 
ATOM      5  C   UNL     1       1.238  -0.613  -0.013  0.00  0.00    -0.006 A 
ATOM      6  C   UNL     1       0.002  -0.004   0.002  0.00  0.00    +0.007 A 
ATOM      7  C   UNL     1       1.636  -2.054  -0.024  0.00  0.00    +0.115 C 
ATOM      8  C   UNL     1       1.139  -2.773   1.232  0.00  0.00    +0.121 C 
ATOM      9  C   UNL     1      -0.285  -3.219   1.067  0.00  0.00    +0.189 C 
ATOM     10  N   UNL     1      -0.820  -3.563  -0.056  0.00  0.00    -0.216 NA
ATOM     11  C   UNL     1      -0.074  -3.502  -1.230  0.00  0.00    +0.087 A 
ATOM     12  C   UNL     1       1.106  -2.769  -1.224  0.00  0.00    +0.036 A 
ATOM     13  S   UNL     1       1.724  -2.884  -2.764  0.00  0.00    -0.082 S 
ATOM     14  C   UNL     1       0.474  -3.923  -3.499  0.00  0.00    +0.110 A 
ATOM     15  C   UNL     1      -0.412  -4.123  -2.435  0.00  0.00    +0.029 A 
ATOM     16  C   UNL     1       3.149  -2.029  -0.040  0.00  0.00    +0.233 C 
ATOM     17  O   UNL     1       3.887  -2.991  -0.054  0.00  0.00    -0.274 OA
ATOM     18  N   UNL     1       3.521  -0.731  -0.037  0.00  0.00    -0.284 N 
ATOM     19  H   UNL     1       4.444  -0.432  -0.044  0.00  0.00    +0.155 HD
ENDROOT
BRANCH  15  20
ATOM     20  C   UNL     1      -1.634  -4.945  -2.578  0.00  0.00    -0.014 A 
ATOM     21  C   UNL     1      -1.771  -6.129  -1.852  0.00  0.00    +0.010 A 
ATOM     22  C   UNL     1      -2.913  -6.891  -1.989  0.00  0.00    +0.020 A 
ATOM     23  C   UNL     1      -3.922  -6.482  -2.845  0.00  0.00    +0.041 A 
ATOM     24  C   UNL     1      -3.792  -5.308  -3.567  0.00  0.00    +0.020 A 
ATOM     25  C   UNL     1      -2.658  -4.535  -3.434  0.00  0.00    +0.010 A 
ATOM     26 CL   UNL     1      -5.356  -7.447  -3.012  0.00  0.00    -0.084 Cl
ENDBRANCH  15  20
BRANCH  14  27
ATOM     27  C   UNL     1       0.397  -4.417  -4.821  0.00  0.00    +0.394 C 
ATOM     28  O   UNL     1       1.273  -4.137  -5.632  0.00  0.00    -0.240 OA
ATOM     29  O   UNL     1      -0.544  -5.126  -5.157  0.00  0.00    -0.240 OA
ENDBRANCH  14  27
BRANCH   9  30
ATOM     30  O   UNL     1      -1.060  -3.265   2.172  0.00  0.00    -0.495 OA
ATOM     31  H   UNL     1      -1.966  -3.559   2.005  0.00  0.00    +0.293 HD
ENDBRANCH   9  30
TORSDOF 3
