REMARK  Name = ZINC39522942
REMARK  7 active torsions:
REMARK  status: ('A' for Active; 'I' for Inactive)
REMARK    1  A    between atoms: C_1  and  C_2
REMARK    2  A    between atoms: C_2  and  C_3
REMARK    3  A    between atoms: C_2  and  S_4
REMARK    4  A    between atoms: S_4  and  C_7
REMARK    5  A    between atoms: C_17  and  C_21
REMARK    6  A    between atoms: N_19  and  O_20
REMARK    7  A    between atoms: C_26  and  O_27
REMARK                            x       y       z     vdW  Elec       q    Type
REMARK                         _______ _______ _______ _____ _____    ______ ____
ROOT
ATOM      1  C   UNL     1      -0.293  -0.141   2.818  0.00  0.00    +0.133 C 
ATOM      2  C   UNL     1      -0.506   1.368   2.688  0.00  0.00    +0.026 C 
ATOM      3  C   UNL     1      -1.412   1.855   3.820  0.00  0.00    +0.004 C 
ATOM      4  C   UNL     1      -0.755   1.547   5.167  0.00  0.00    +0.025 C 
ATOM      5  C   UNL     1      -0.544   0.037   5.297  0.00  0.00    +0.049 C 
ATOM      6  C   UNL     1       0.363  -0.450   4.165  0.00  0.00    +0.050 C 
ATOM      7  C   UNL     1      -1.896  -0.675   5.208  0.00  0.00    +0.025 C 
ATOM      8  C   UNL     1      -1.683  -2.184   5.360  0.00  0.00    +0.004 C 
ATOM      9  C   UNL     1      -0.986  -2.462   6.694  0.00  0.00    +0.026 C 
ATOM     10  C   UNL     1       0.340  -1.698   6.739  0.00  0.00    +0.118 C 
ATOM     11  N   UNL     1       0.083  -0.260   6.591  0.00  0.00    -0.177 NA
ENDROOT
BRANCH  10  12
ATOM     12  C   UNL     1       1.021  -1.953   8.059  0.00  0.00    +0.013 A 
ATOM     13  C   UNL     1       0.850  -1.070   9.108  0.00  0.00    +0.009 A 
ATOM     14  C   UNL     1       1.475  -1.303  10.318  0.00  0.00    +0.001 A 
ATOM     15  C   UNL     1       2.273  -2.420  10.484  0.00  0.00    +0.004 A 
ATOM     16  C   UNL     1       2.447  -3.307   9.439  0.00  0.00    +0.046 A 
ATOM     17  C   UNL     1       1.816  -3.078   8.224  0.00  0.00    +0.122 A 
BRANCH  17  18
ATOM     18  O   UNL     1       1.981  -3.951   7.196  0.00  0.00    -0.506 OA
ATOM     19  H   UNL     1       2.733  -3.747   6.623  0.00  0.00    +0.292 HD
ENDBRANCH  17  18
ENDBRANCH  10  12
BRANCH   1  20
ATOM     20  S   UNL     1       0.782  -0.718   1.476  0.00  0.00    -0.026 S 
ATOM     21  O   UNL     1       0.883  -2.133   1.557  0.00  0.00    -0.174 OA
ATOM     22  O   UNL     1       1.971   0.061   1.486  0.00  0.00    -0.174 OA
BRANCH  20  24
ATOM     23  C   UNL     1       0.629  -0.687  -1.255  0.00  0.00    +0.031 C 
ATOM     24  C   UNL     1      -0.169  -0.295  -0.010  0.00  0.00    +0.125 C 
ATOM     25  C   UNL     1      -1.499  -1.051   0.003  0.00  0.00    +0.031 C 
ENDBRANCH  20  24
ENDBRANCH   1  20
BRANCH  11  26
ATOM     26  O   UNL     1       1.313   0.512   6.767  0.00  0.00    -0.311 OA
ATOM     27  H   UNL     1       1.763   0.350   7.608  0.00  0.00    +0.237 HD
ENDBRANCH  11  26
TORSDOF 5
