REMARK  Name = ZINC65403422
REMARK  4 active torsions:
REMARK  status: ('A' for Active; 'I' for Inactive)
REMARK    1  A    between atoms: C_1  and  C_2
REMARK    2  A    between atoms: C_2  and  N_3
REMARK    3  A    between atoms: C_11  and  C_12
REMARK    4  A    between atoms: C_23  and  C_28
REMARK                            x       y       z     vdW  Elec       q    Type
REMARK                         _______ _______ _______ _____ _____    ______ ____
ROOT
ATOM      1  C   UNL     1       1.944  -1.940   5.537  0.00  0.00    +0.077 C 
ATOM      2  C   UNL     1       2.129  -0.951   6.672  0.00  0.00    +0.110 C 
ATOM      3  C   UNL     1       3.274  -1.335   7.553  0.00  0.00    +0.214 C 
ATOM      4  O   UNL     1       4.283  -0.662   7.520  0.00  0.00    -0.276 OA
ATOM      5  N   UNL     1       3.234  -2.381   8.371  0.00  0.00    -0.310 N 
ATOM      6  C   UNL     1       1.995  -3.129   8.561  0.00  0.00    +0.161 C 
ATOM      7  C   UNL     1       1.565  -3.802   7.286  0.00  0.00    +0.081 A 
ATOM      8  C   UNL     1       1.561  -3.308   6.040  0.00  0.00    +0.056 A 
ATOM      9  N   UNL     1       1.114  -4.311   5.210  0.00  0.00    -0.302 N 
ATOM     10  C   UNL     1       0.933  -4.369   3.859  0.00  0.00    +0.096 A 
ATOM     11  C   UNL     1       0.467  -5.495   3.278  0.00  0.00    -0.034 A 
ATOM     12  C   UNL     1       0.163  -6.622   4.060  0.00  0.00    +0.008 A 
ATOM     13  C   UNL     1       0.342  -6.576   5.408  0.00  0.00    +0.047 A 
ATOM     14  C   UNL     1       0.832  -5.393   5.998  0.00  0.00    +0.138 A 
ATOM     15  N   UNL     1       1.108  -5.066   7.246  0.00  0.00    -0.231 NA
ATOM     16  C   UNL     1       0.271  -5.543   1.785  0.00  0.00    +0.045 C 
ATOM     17  H   UNL     1       4.035  -2.650   8.847  0.00  0.00    +0.149 HD
ENDROOT
BRANCH   1  26
ATOM     18  N   UNL     1       0.711  -0.489   1.189  0.00  0.00    -0.347 N 
ATOM     19  C   UNL     1       2.038  -0.820   1.232  0.00  0.00    +0.087 A 
ATOM     20  C   UNL     1       2.368  -1.227   2.467  0.00  0.00    +0.028 A 
ATOM     21  C   UNL     1       1.154  -1.151   3.283  0.00  0.00    +0.004 A 
ATOM     22  C   UNL     1       0.142  -0.675   2.429  0.00  0.00    +0.049 A 
ATOM     23  C   UNL     1      -1.143  -0.492   2.931  0.00  0.00    +0.026 A 
ATOM     24  C   UNL     1      -1.407  -0.774   4.253  0.00  0.00    +0.002 A 
ATOM     25  C   UNL     1      -0.405  -1.240   5.092  0.00  0.00    +0.005 A 
ATOM     26  C   UNL     1       0.862  -1.436   4.618  0.00  0.00    -0.029 A 
BRANCH  18  28
ATOM     27  C   UNL     1      -0.019   1.526   0.010  0.00  0.00    +0.027 C 
ATOM     28  C   UNL     1       0.002  -0.004   0.002  0.00  0.00    +0.118 C 
ENDBRANCH  18  28
ENDBRANCH   1  26
TORSDOF 2
