REMARK  Name = ZINC02753924
REMARK  5 active torsions:
REMARK  status: ('A' for Active; 'I' for Inactive)
REMARK    1  A    between atoms: C_1  and  C_2
REMARK    2  A    between atoms: C_9  and  N_14
REMARK    3  A    between atoms: C_10  and  C_11
REMARK    4  A    between atoms: C_15  and  C_17
REMARK    5  A    between atoms: C_19  and  C_27
REMARK                            x       y       z     vdW  Elec       q    Type
REMARK                         _______ _______ _______ _____ _____    ______ ____
ROOT
ATOM      1  N   UNL     1      -2.544   5.690   0.275  0.00  0.00    -0.275 N 
ATOM      2  C   UNL     1      -1.374   6.359   0.266  0.00  0.00    +0.249 C 
ATOM      3  O   UNL     1      -1.366   7.571   0.361  0.00  0.00    -0.270 OA
ATOM      4  H   UNL     1      -2.551   4.593   0.189  0.00  0.00    +0.156 HD
ENDROOT
BRANCH   1  12
ATOM      5  C   UNL     1      -9.057   9.980   0.860  0.00  0.00    +0.008 C 
ATOM      6  C   UNL     1      -8.078   8.883   0.438  0.00  0.00    -0.009 C 
ATOM      7  C   UNL     1      -8.395   7.589   1.194  0.00  0.00    +0.008 C 
ATOM      8  C   UNL     1      -7.590   6.431   0.601  0.00  0.00    +0.037 C 
ATOM      9  C   UNL     1      -6.120   6.828   0.554  0.00  0.00    -0.023 A 
ATOM     10  C   UNL     1      -5.747   8.124   0.636  0.00  0.00    -0.004 A 
ATOM     11  S   UNL     1      -3.979   8.093   0.540  0.00  0.00    -0.077 S 
ATOM     12  C   UNL     1      -3.737   6.383   0.393  0.00  0.00    +0.085 A 
ATOM     13  C   UNL     1      -5.030   5.878   0.415  0.00  0.00    +0.068 A 
ATOM     14  C   UNL     1      -6.644   9.315   0.776  0.00  0.00    +0.046 C 
BRANCH  13  15
ATOM     15  C   UNL     1      -5.285   4.438   0.308  0.00  0.00    +0.244 C 
ATOM     16  O   UNL     1      -5.339   3.753   1.313  0.00  0.00    -0.270 OA
ATOM     17  N   UNL     1      -5.461   3.873  -0.903  0.00  0.00    -0.325 N 
ATOM     18  H   UNL     1      -5.652   2.793  -0.984  0.00  0.00    +0.145 HD
ATOM     19  H   UNL     1      -5.412   4.492  -1.811  0.00  0.00    +0.145 HD
ENDBRANCH  13  15
ENDBRANCH   1  12
BRANCH   2  20
ATOM     20  C   UNL     1      -0.100   5.619   0.140  0.00  0.00    +0.048 A 
ATOM     21  C   UNL     1      -0.068   4.232   0.148  0.00  0.00    +0.042 A 
ATOM     22  C   UNL     1       1.164   3.571   0.030  0.00  0.00    +0.073 A 
ATOM     23  N   UNL     1       2.302   4.222  -0.098  0.00  0.00    -0.247 NA
ATOM     24  C   UNL     1       2.363   5.554  -0.120  0.00  0.00    +0.072 A 
ATOM     25  C   UNL     1       1.176   6.320  -0.004  0.00  0.00    +0.013 A 
ATOM     26  C   UNL     1       1.244   7.717  -0.029  0.00  0.00    +0.011 A 
ATOM     27  C   UNL     1       2.454   8.330  -0.166  0.00  0.00    +0.001 A 
ATOM     28  C   UNL     1       3.624   7.583  -0.281  0.00  0.00    +0.002 A 
ATOM     29  C   UNL     1       3.594   6.222  -0.260  0.00  0.00    +0.028 A 
BRANCH  22  30
ATOM     30  C   UNL     1       1.186   2.089   0.046  0.00  0.00    +0.004 A 
ATOM     31  C   UNL     1      -0.011   1.373   0.075  0.00  0.00    +0.014 A 
ATOM     32  C   UNL     1       0.010  -0.005   0.089  0.00  0.00    +0.050 A 
ATOM     33  C   UNL     1       1.219  -0.685   0.073  0.00  0.00    +0.166 A 
ATOM     34  C   UNL     1       2.419   0.025   0.043  0.00  0.00    +0.167 A 
ATOM     35  C   UNL     1       2.402   1.408   0.030  0.00  0.00    +0.059 A 
ATOM     36  O   UNL     1       3.453  -0.866   0.033  0.00  0.00    -0.453 OA
ATOM     37  C   UNL     1       2.872  -2.124  -0.356  0.00  0.00    +0.466 C 
ATOM     38  O   UNL     1       1.504  -2.020   0.082  0.00  0.00    -0.453 OA
ENDBRANCH  22  30
ENDBRANCH   2  20
TORSDOF 4
