REMARK  Name = ZINC63229078
REMARK  8 active torsions:
REMARK  status: ('A' for Active; 'I' for Inactive)
REMARK    1  A    between atoms: C_1  and  C_2
REMARK    2  A    between atoms: N_4  and  C_5
REMARK    3  A    between atoms: C_5  and  C_7
REMARK    4  A    between atoms: C_5  and  C_17
REMARK    5  A    between atoms: C_7  and  C_8
REMARK    6  A    between atoms: N_19  and  C_20
REMARK    7  A    between atoms: C_24  and  S_26
REMARK    8  A    between atoms: S_26  and  N_29
REMARK                            x       y       z     vdW  Elec       q    Type
REMARK                         _______ _______ _______ _____ _____    ______ ____
ROOT
ATOM      1  C   UNL     1      -0.298  -2.706  -1.155  0.00  0.00    +0.238 C 
ATOM      2  O   UNL     1       0.564  -2.033  -1.679  0.00  0.00    -0.273 OA
ATOM      3  N   UNL     1      -0.628  -3.904  -1.677  0.00  0.00    -0.284 N 
ATOM      4  H   UNL     1      -1.262  -4.475  -1.216  0.00  0.00    +0.155 HD
ENDROOT
BRANCH   3   5
ATOM      5  C   UNL     1      -0.057  -4.322  -2.884  0.00  0.00    +0.035 A 
ATOM      6  C   UNL     1       0.196  -5.670  -3.103  0.00  0.00    +0.023 A 
ATOM      7  C   UNL     1       0.759  -6.080  -4.295  0.00  0.00    +0.004 A 
ATOM      8  C   UNL     1       1.072  -5.150  -5.270  0.00  0.00    +0.029 A 
ATOM      9  C   UNL     1       0.822  -3.808  -5.054  0.00  0.00    +0.114 A 
ATOM     10  C   UNL     1       0.252  -3.392  -3.866  0.00  0.00    +0.052 A 
BRANCH   9  11
ATOM     11  S   UNL     1       1.224  -2.627  -6.299  0.00  0.00    +0.100 S 
ATOM     12  O   UNL     1       1.395  -1.381  -5.636  0.00  0.00    -0.146 OA
ATOM     13  O   UNL     1       2.242  -3.211  -7.099  0.00  0.00    -0.146 OA
BRANCH  11  14
ATOM     14  N   UNL     1      -0.108  -2.467  -7.270  0.00  0.00    -0.118 NA
ATOM     15  C   UNL     1      -0.083  -1.653  -8.274  0.00  0.00    +0.117 C 
ATOM     16  N   UNL     1       0.987  -0.877  -8.635  0.00  0.00    -0.331 N 
ATOM     17  C   UNL     1       0.840  -0.475 -10.043  0.00  0.00    +0.103 C 
ATOM     18  C   UNL     1      -0.686  -0.404 -10.268  0.00  0.00    +0.026 C 
ATOM     19  C   UNL     1      -1.227  -1.415  -9.234  0.00  0.00    +0.074 C 
ATOM     20  H   UNL     1       1.724  -0.631  -8.054  0.00  0.00    +0.147 HD
ENDBRANCH  11  14
ENDBRANCH   9  11
ENDBRANCH   3   5
BRANCH   1  21
ATOM     21  C   UNL     1      -1.000  -2.203   0.081  0.00  0.00    +0.163 C 
BRANCH  21  25
ATOM     22  C   UNL     1       0.564   1.280   0.361  0.00  0.00    +0.109 C 
ATOM     23  C   UNL     1       0.396  -0.214   0.262  0.00  0.00    +0.211 C 
ATOM     24  O   UNL     1       1.372  -0.935   0.259  0.00  0.00    -0.276 OA
ATOM     25  N   UNL     1      -0.837  -0.750   0.177  0.00  0.00    -0.304 N 
ATOM     26  H   UNL     1      -1.618  -0.174   0.179  0.00  0.00    +0.149 HD
ENDBRANCH  21  25
BRANCH  21  27
ATOM     27  C   UNL     1      -0.393  -2.867   1.318  0.00  0.00    +0.065 C 
BRANCH  27  28
ATOM     28  C   UNL     1      -1.174  -2.459   2.541  0.00  0.00    -0.039 C 
ATOM     29  C   UNL     1      -2.187  -3.140   3.124  0.00  0.00    -0.001 A 
ATOM     30  C   UNL     1      -2.841  -4.414   2.805  0.00  0.00    +0.010 A 
ATOM     31  C   UNL     1      -3.853  -4.847   3.591  0.00  0.00    +0.001 A 
ATOM     32  C   UNL     1      -4.292  -4.110   4.700  0.00  0.00    +0.002 A 
ATOM     33  C   UNL     1      -3.740  -2.930   5.056  0.00  0.00    +0.026 A 
ATOM     34  C   UNL     1      -2.668  -2.381   4.300  0.00  0.00    +0.043 A 
ATOM     35  N   UNL     1      -1.980  -1.274   4.439  0.00  0.00    -0.380 N 
ATOM     36  C   UNL     1      -0.978  -1.208   3.369  0.00  0.00    +0.144 C 
ATOM     37  H   UNL     1      -2.108  -0.611   5.135  0.00  0.00    +0.160 HD
ENDBRANCH  27  28
ENDBRANCH  21  27
ENDBRANCH   1  21
TORSDOF 7
