REMARK  Name = ZINC17320962
REMARK  6 active torsions:
REMARK  status: ('A' for Active; 'I' for Inactive)
REMARK    1  A    between atoms: C_3  and  N_20
REMARK    2  A    between atoms: C_6  and  C_7
REMARK    3  A    between atoms: N_9  and  C_10
REMARK    4  A    between atoms: C_10  and  C_11
REMARK    5  A    between atoms: N_20  and  S_21
REMARK    6  A    between atoms: S_21  and  C_24
REMARK                            x       y       z     vdW  Elec       q    Type
REMARK                         _______ _______ _______ _____ _____    ______ ____
ROOT
ATOM      1  C   UNL     1       1.033   4.733   4.315  0.00  0.00    +0.015 A 
ATOM      2  C   UNL     1       1.076   5.299   5.569  0.00  0.00    +0.025 A 
ATOM      3  C   UNL     1       1.119   6.683   5.708  0.00  0.00    +0.048 A 
ATOM      4  C   UNL     1       1.125   7.500   4.581  0.00  0.00    +0.025 A 
ATOM      5  C   UNL     1       1.088   6.940   3.324  0.00  0.00    +0.015 A 
ATOM      6  C   UNL     1       1.044   5.550   3.180  0.00  0.00    +0.037 A 
ENDROOT
BRANCH   6   7
ATOM      7  C   UNL     1       1.004   4.947   1.835  0.00  0.00    +0.244 C 
ATOM      8  O   UNL     1       1.009   5.659   0.849  0.00  0.00    -0.270 OA
ATOM      9  N   UNL     1       0.961   3.607   1.698  0.00  0.00    -0.307 N 
ATOM     10  H   UNL     1       0.957   3.039   2.484  0.00  0.00    +0.149 HD
BRANCH   9  11
ATOM     11  C   UNL     1       0.921   3.008   0.361  0.00  0.00    +0.140 C 
BRANCH  11  12
ATOM     12  C   UNL     1       0.878   1.507   0.485  0.00  0.00    -0.027 A 
ATOM     13  C   UNL     1       2.056   0.784   0.523  0.00  0.00    +0.009 A 
ATOM     14  C   UNL     1       2.022  -0.593   0.634  0.00  0.00    +0.050 A 
ATOM     15  C   UNL     1       0.806  -1.253   0.710  0.00  0.00    +0.166 A 
ATOM     16  C   UNL     1      -0.381  -0.524   0.674  0.00  0.00    +0.167 A 
ATOM     17  C   UNL     1      -0.339   0.856   0.561  0.00  0.00    +0.054 A 
ATOM     18  O   UNL     1      -1.429  -1.393   0.764  0.00  0.00    -0.453 OA
ATOM     19  C   UNL     1      -0.884  -2.688   0.445  0.00  0.00    +0.466 C 
ATOM     20  O   UNL     1       0.500  -2.578   0.824  0.00  0.00    -0.453 OA
ENDBRANCH  11  12
ENDBRANCH   9  11
ENDBRANCH   6   7
BRANCH   3  21
ATOM     21  N   UNL     1       1.157   7.252   6.977  0.00  0.00    -0.216 N 
ATOM     22  H   UNL     1       1.978   7.229   7.494  0.00  0.00    +0.174 HD
BRANCH  21  23
ATOM     23  S   UNL     1      -0.198   7.967   7.604  0.00  0.00    +0.079 S 
ATOM     24  O   UNL     1       0.143   8.405   8.912  0.00  0.00    -0.149 OA
ATOM     25  O   UNL     1      -0.687   8.854   6.608  0.00  0.00    -0.149 OA
BRANCH  23  26
ATOM     26  C   UNL     1      -1.412   6.705   7.796  0.00  0.00    +0.147 A 
ATOM     27  C   UNL     1      -1.707   5.964   8.892  0.00  0.00    +0.038 A 
ATOM     28  C   UNL     1      -2.712   5.018   8.811  0.00  0.00    +0.025 A 
ATOM     29  C   UNL     1      -3.373   4.861   7.637  0.00  0.00    +0.057 A 
ATOM     30  S   UNL     1      -2.579   6.077   6.600  0.00  0.00    -0.061 S 
ATOM     31 BR   UNL     1      -4.779   3.668   7.213  0.00  0.00    -0.043 Br
ENDBRANCH  23  26
ENDBRANCH  21  23
ENDBRANCH   3  21
TORSDOF 6
