REMARK  Name = ZINC35682712
REMARK  3 active torsions:
REMARK  status: ('A' for Active; 'I' for Inactive)
REMARK    1  A    between atoms: C_6  and  O_11
REMARK    2  A    between atoms: O_11  and  C_12
REMARK    3  A    between atoms: N_22  and  C_25
REMARK                            x       y       z     vdW  Elec       q    Type
REMARK                         _______ _______ _______ _____ _____    ______ ____
ROOT
ATOM      1  C   UNL     1       4.837  -4.058   0.046  0.00  0.00    +0.220 C 
ATOM      2  C   UNL     1       6.117  -4.677  -0.557  0.00  0.00    +0.056 C 
ATOM      3  C   UNL     1       6.356  -5.885   0.374  0.00  0.00    +0.046 C 
ATOM      4  C   UNL     1       5.699  -5.507   1.683  0.00  0.00    +0.040 A 
ATOM      5  C   UNL     1       4.842  -4.479   1.499  0.00  0.00    +0.069 A 
ATOM      6  N   UNL     1       4.140  -3.985   2.569  0.00  0.00    -0.308 N 
ATOM      7  H   UNL     1       3.525  -3.246   2.438  0.00  0.00    +0.170 HD
ATOM      8  C   UNL     1       4.293  -4.511   3.796  0.00  0.00    +0.330 A 
ATOM      9  O   UNL     1       3.659  -4.055   4.728  0.00  0.00    -0.246 OA
ATOM     10  N   UNL     1       5.139  -5.536   4.008  0.00  0.00    -0.258 N 
ATOM     11  C   UNL     1       5.853  -6.052   2.982  0.00  0.00    +0.260 A 
ATOM     12  O   UNL     1       6.619  -6.980   3.171  0.00  0.00    -0.267 OA
ENDROOT
BRANCH  10  13
ATOM     13  C   UNL     1       5.289  -6.093   5.355  0.00  0.00    +0.095 C 
ATOM     14  C   UNL     1       3.938  -6.620   5.843  0.00  0.00    +0.025 C 
ATOM     15  C   UNL     1       4.095  -7.201   7.249  0.00  0.00    +0.002 C 
ATOM     16  C   UNL     1       4.590  -6.110   8.200  0.00  0.00    +0.000 C 
ATOM     17  C   UNL     1       5.941  -5.582   7.712  0.00  0.00    +0.002 C 
ATOM     18  C   UNL     1       5.784  -5.001   6.305  0.00  0.00    +0.025 C 
ENDBRANCH  10  13
BRANCH   1  19
ATOM     19  O   UNL     1       4.878  -2.633  -0.059  0.00  0.00    -0.483 OA
BRANCH  19  25
ATOM     20  C   UNL     1      -0.025   1.345  -0.140  0.00  0.00    +0.001 A 
ATOM     21  C   UNL     1       1.145   2.061  -0.384  0.00  0.00    +0.001 A 
ATOM     22  C   UNL     1       2.354   1.437  -0.421  0.00  0.00    +0.008 A 
ATOM     23  C   UNL     1       2.426   0.049  -0.209  0.00  0.00    -0.014 A 
ATOM     24  C   UNL     1       3.655  -0.629  -0.239  0.00  0.00    +0.054 A 
ATOM     25  C   UNL     1       3.688  -1.978  -0.029  0.00  0.00    +0.122 A 
ATOM     26  C   UNL     1       2.512  -2.695   0.215  0.00  0.00    +0.046 A 
ATOM     27  C   UNL     1       1.306  -2.067   0.250  0.00  0.00    +0.012 A 
ATOM     28  C   UNL     1       1.235  -0.679   0.039  0.00  0.00    -0.018 A 
ATOM     29  C   UNL     1       0.006   0.001   0.069  0.00  0.00    +0.008 A 
ENDBRANCH  19  25
ENDBRANCH   1  19
TORSDOF 3
