REMARK  Name = ZINC63591112
REMARK  8 active torsions:
REMARK  status: ('A' for Active; 'I' for Inactive)
REMARK    1  A    between atoms: C_6  and  S_10
REMARK    2  A    between atoms: S_10  and  C_11
REMARK    3  A    between atoms: C_11  and  C_12
REMARK    4  A    between atoms: C_15  and  C_18
REMARK    5  A    between atoms: C_18  and  O_20
REMARK    6  A    between atoms: O_20  and  C_21
REMARK    7  A    between atoms: C_24  and  C_30
REMARK    8  A    between atoms: C_26  and  N_27
REMARK                            x       y       z     vdW  Elec       q    Type
REMARK                         _______ _______ _______ _____ _____    ______ ____
ROOT
ATOM      1  C   UNL     1       3.365  -2.602  -4.181  0.00  0.00    -0.037 A 
ATOM      2  C   UNL     1       4.565  -2.256  -4.778  0.00  0.00    +0.005 A 
ATOM      3  C   UNL     1       4.924  -2.817  -5.987  0.00  0.00    +0.015 A 
ATOM      4  C   UNL     1       4.074  -3.734  -6.607  0.00  0.00    +0.059 A 
ATOM      5  C   UNL     1       2.865  -4.079  -5.999  0.00  0.00    +0.015 A 
ATOM      6  C   UNL     1       2.521  -3.515  -4.788  0.00  0.00    +0.005 A 
ENDROOT
BRANCH   4   7
ATOM      7  C   UNL     1       4.452  -4.338  -7.901  0.00  0.00    +0.345 C 
ATOM      8  O   UNL     1       5.504  -4.036  -8.428  0.00  0.00    -0.245 OA
BRANCH   7   9
ATOM      9  O   UNL     1       3.630  -5.223  -8.497  0.00  0.00    -0.420 OA
BRANCH   9  10
ATOM     10  C   UNL     1       3.966  -5.674  -9.734  0.00  0.00    +0.162 A 
ATOM     11  C   UNL     1       3.470  -5.039 -10.864  0.00  0.00    +0.049 A 
ATOM     12  C   UNL     1       3.813  -5.499 -12.120  0.00  0.00    +0.016 A 
ATOM     13  C   UNL     1       4.651  -6.592 -12.253  0.00  0.00    +0.057 A 
ATOM     14  C   UNL     1       5.146  -7.227 -11.129  0.00  0.00    +0.048 A 
ATOM     15  C   UNL     1       4.810  -6.766  -9.870  0.00  0.00    +0.169 A 
BRANCH  13  16
ATOM     16  C   UNL     1       5.023  -7.092 -13.625  0.00  0.00    +0.417 C 
ATOM     17  F   UNL     1       4.405  -6.296 -14.595  0.00  0.00    -0.166 F 
ATOM     18  F   UNL     1       6.412  -7.027 -13.783  0.00  0.00    -0.166 F 
ATOM     19  F   UNL     1       4.599  -8.417 -13.769  0.00  0.00    -0.166 F 
ENDBRANCH  13  16
BRANCH  15  20
ATOM     20  N   UNL     1       5.346  -7.442  -8.667  0.00  0.00    +0.060 N 
ATOM     21  O   UNL     1       6.082  -8.394  -8.786  0.00  0.00    -0.126 OA
ATOM     22  O   UNL     1       5.048  -7.043  -7.566  0.00  0.00    -0.126 OA
ENDBRANCH  15  20
ENDBRANCH   9  10
ENDBRANCH   7   9
ENDBRANCH   4   7
BRANCH   1  23
ATOM     23  C   UNL     1       2.980  -1.985  -2.861  0.00  0.00    +0.108 C 
BRANCH  23  24
ATOM     24  S   UNL     1       3.611  -3.013  -1.506  0.00  0.00    -0.110 S 
BRANCH  24  30
ATOM     25  C   UNL     1       0.158   1.413   0.029  0.00  0.00    +0.002 A 
ATOM     26  C   UNL     1       1.370   2.126   0.054  0.00  0.00    +0.002 A 
ATOM     27  C   UNL     1       2.572   1.516   0.055  0.00  0.00    +0.027 A 
ATOM     28  C   UNL     1       2.641   0.049   0.028  0.00  0.00    +0.061 A 
ATOM     29  N   UNL     1       3.636  -0.791   0.022  0.00  0.00    -0.355 N 
ATOM     30  C   UNL     1       3.069  -2.145  -0.008  0.00  0.00    +0.236 C 
ATOM     31  N   UNL     1       1.610  -1.983  -0.020  0.00  0.00    -0.355 N 
ATOM     32  C   UNL     1       1.358  -0.706   0.002  0.00  0.00    +0.061 A 
ATOM     33  C   UNL     1       0.108   0.066   0.004  0.00  0.00    +0.027 A 
ATOM     34  H   UNL     1       4.579  -0.563   0.035  0.00  0.00    +0.162 HD
ATOM     35  H   UNL     1       0.954  -2.697  -0.040  0.00  0.00    +0.162 HD
ENDBRANCH  24  30
ENDBRANCH  23  24
ENDBRANCH   1  23
TORSDOF 8
