REMARK  Name = ZINC57439248
REMARK  7 active torsions:
REMARK  status: ('A' for Active; 'I' for Inactive)
REMARK    1  A    between atoms: C_1  and  C_2
REMARK    2  A    between atoms: C_2  and  C_3
REMARK    3  A    between atoms: N_9  and  C_10
REMARK    4  A    between atoms: C_10  and  C_11
REMARK    5  A    between atoms: N_13  and  C_14
REMARK    6  A    between atoms: C_18  and  S_20
REMARK    7  A    between atoms: S_20  and  N_23
REMARK                            x       y       z     vdW  Elec       q    Type
REMARK                         _______ _______ _______ _____ _____    ______ ____
ROOT
ATOM      1  C   UNL     1      -2.718   3.617   4.291  0.00  0.00    +0.035 A 
ATOM      2  C   UNL     1      -3.177   2.703   5.232  0.00  0.00    +0.023 A 
ATOM      3  C   UNL     1      -3.648   3.147   6.451  0.00  0.00    +0.004 A 
ATOM      4  C   UNL     1      -3.665   4.500   6.737  0.00  0.00    +0.029 A 
ATOM      5  C   UNL     1      -3.209   5.412   5.803  0.00  0.00    +0.114 A 
ATOM      6  C   UNL     1      -2.731   4.974   4.584  0.00  0.00    +0.052 A 
ENDROOT
BRANCH   1   9
ATOM      7  C   UNL     1      -2.808   2.103   2.458  0.00  0.00    +0.201 C 
ATOM      8  O   UNL     1      -3.675   1.478   3.031  0.00  0.00    -0.278 OA
ATOM      9  N   UNL     1      -2.240   3.170   3.055  0.00  0.00    -0.287 N 
ATOM     10  H   UNL     1      -1.500   3.628   2.627  0.00  0.00    +0.155 HD
BRANCH   7  11
ATOM     11  C   UNL     1      -2.365   1.687   1.079  0.00  0.00    +0.019 C 
BRANCH  11  17
ATOM     12  C   UNL     1      -2.587   0.004  -0.613  0.00  0.00    -0.068 C 
ATOM     13  C   UNL     1      -3.327  -1.273  -1.018  0.00  0.00    -0.015 C 
ATOM     14  C   UNL     1      -4.817  -0.961  -1.186  0.00  0.00    -0.003 C 
ATOM     15  C   UNL     1      -5.355  -0.367   0.118  0.00  0.00    -0.019 C 
ATOM     16  C   UNL     1      -4.540   0.876   0.481  0.00  0.00    -0.078 C 
ATOM     17  N   UNL     1      -3.130   0.507   0.655  0.00  0.00    +0.387 N 
ATOM     18  H   UNL     1      -3.055  -0.211   1.360  0.00  0.00    -0.081 HD
BRANCH  12  20
ATOM     19  C   UNL     1      -0.507  -0.723  -1.791  0.00  0.00    +0.002 C 
ATOM     20  C   UNL     1      -1.098  -0.303  -0.444  0.00  0.00    -0.019 C 
ENDBRANCH  12  20
ENDBRANCH  11  17
ENDBRANCH   7  11
ENDBRANCH   1   9
BRANCH   5  21
ATOM     21  S   UNL     1      -3.233   7.135   6.172  0.00  0.00    +0.100 S 
ATOM     22  O   UNL     1      -3.264   7.817   4.925  0.00  0.00    -0.146 OA
ATOM     23  O   UNL     1      -4.229   7.324   7.168  0.00  0.00    -0.146 OA
BRANCH  21  24
ATOM     24  N   UNL     1      -1.782   7.505   6.878  0.00  0.00    -0.118 NA
ATOM     25  C   UNL     1      -1.534   8.718   7.251  0.00  0.00    +0.117 C 
ATOM     26  C   UNL     1      -0.194   9.062   7.897  0.00  0.00    +0.073 C 
ATOM     27  C   UNL     1       0.573   9.917   6.911  0.00  0.00    +0.008 C 
ATOM     28  C   UNL     1       0.284  11.413   7.047  0.00  0.00    +0.002 C 
ATOM     29  C   UNL     1      -1.201  11.720   7.244  0.00  0.00    +0.019 C 
ATOM     30  C   UNL     1      -2.104  10.905   6.344  0.00  0.00    +0.102 C 
ATOM     31  N   UNL     1      -2.437   9.662   7.070  0.00  0.00    -0.331 N 
ATOM     32  H   UNL     1      -3.334   9.541   7.420  0.00  0.00    +0.147 HD
ENDBRANCH  21  24
ENDBRANCH   5  21
TORSDOF 6
