REMARK  Name = ZINC55089504
REMARK  5 active torsions:
REMARK  status: ('A' for Active; 'I' for Inactive)
REMARK    1  A    between atoms: C_6  and  C_7
REMARK    2  A    between atoms: C_7  and  N_8
REMARK    3  A    between atoms: C_12  and  C_15
REMARK    4  A    between atoms: N_19  and  C_23
REMARK    5  A    between atoms: C_23  and  C_24
REMARK                            x       y       z     vdW  Elec       q    Type
REMARK                         _______ _______ _______ _____ _____    ______ ____
ROOT
ATOM      1  C   UNL     1      -0.017   1.378   0.010  0.00  0.00    +0.005 A 
ATOM      2  C   UNL     1       1.168   2.090   0.002  0.00  0.00    +0.046 A 
ATOM      3  C   UNL     1       2.378   1.410  -0.007  0.00  0.00    +0.125 A 
ATOM      4  C   UNL     1       2.391   0.028   0.002  0.00  0.00    +0.008 A 
ATOM      5  C   UNL     1       1.209  -0.682  -0.003  0.00  0.00    +0.010 A 
ATOM      6  C   UNL     1       0.002  -0.004   0.002  0.00  0.00    -0.063 A 
ATOM      7  C   UNL     1       3.719  -0.703   0.048  0.00  0.00    +0.123 C 
ATOM      8  N   UNL     1       4.418  -0.494  -1.225  0.00  0.00    -0.291 NA
ATOM      9  C   UNL     1       5.168   0.758  -1.253  0.00  0.00    +0.126 C 
ATOM     10  C   UNL     1       4.290   1.991  -1.265  0.00  0.00    +0.244 C 
ATOM     11  O   UNL     1       3.551   2.100  -0.042  0.00  0.00    -0.490 OA
ENDROOT
BRANCH   6  12
ATOM     12  C   UNL     1      -1.294  -0.774  -0.000  0.00  0.00    -0.043 C 
BRANCH  12  13
ATOM     13  N   UNL     1      -1.717  -1.016  -1.386  0.00  0.00    +0.383 N 
ATOM     14  C   UNL     1      -2.016   0.265  -2.036  0.00  0.00    -0.078 C 
ATOM     15  C   UNL     1      -2.379   0.025  -3.503  0.00  0.00    -0.018 C 
ATOM     16  C   UNL     1      -3.608  -0.886  -3.576  0.00  0.00    +0.009 C 
ATOM     17  C   UNL     1      -3.310  -2.190  -2.831  0.00  0.00    +0.058 C 
ATOM     18  C   UNL     1      -2.913  -1.867  -1.389  0.00  0.00    -0.066 C 
ATOM     19  H   UNL     1      -0.974  -1.480  -1.887  0.00  0.00    -0.081 HD
BRANCH  17  20
ATOM     20  C   UNL     1      -4.539  -3.062  -2.832  0.00  0.00    +0.212 C 
ATOM     21  O   UNL     1      -5.046  -3.397  -1.782  0.00  0.00    -0.276 OA
ATOM     22  N   UNL     1      -5.075  -3.470  -3.999  0.00  0.00    -0.329 N 
ATOM     23  H   UNL     1      -4.670  -3.202  -4.839  0.00  0.00    +0.145 HD
ATOM     24  H   UNL     1      -5.866  -4.031  -4.000  0.00  0.00    +0.145 HD
ENDBRANCH  17  20
ENDBRANCH  12  13
ENDBRANCH   6  12
BRANCH   8  25
ATOM     25  C   UNL     1       5.286  -1.635  -1.542  0.00  0.00    +0.121 C 
BRANCH  25  26
ATOM     26  C   UNL     1       5.793  -1.504  -2.955  0.00  0.00    -0.011 A 
ATOM     27  C   UNL     1       7.102  -1.122  -3.186  0.00  0.00    +0.056 A 
ATOM     28  C   UNL     1       7.571  -1.000  -4.483  0.00  0.00    +0.167 A 
ATOM     29  C   UNL     1       6.720  -1.263  -5.555  0.00  0.00    +0.168 A 
ATOM     30  C   UNL     1       5.411  -1.646  -5.318  0.00  0.00    +0.069 A 
ATOM     31  C   UNL     1       4.950  -1.770  -4.019  0.00  0.00    +0.049 A 
ATOM     32 CL   UNL     1       3.310  -2.255  -3.724  0.00  0.00    -0.083 Cl
ATOM     33  O   UNL     1       7.412  -1.074  -6.717  0.00  0.00    -0.453 OA
ATOM     34  C   UNL     1       8.570  -0.300  -6.354  0.00  0.00    +0.466 C 
ATOM     35  O   UNL     1       8.795  -0.647  -4.974  0.00  0.00    -0.453 OA
ENDBRANCH  25  26
ENDBRANCH   8  25
TORSDOF 5
