REMARK  Name = ZINC26896285
REMARK  16 active torsions:
REMARK  status: ('A' for Active; 'I' for Inactive)
REMARK    1  A    between atoms: C_1  and  C_2
REMARK    2  A    between atoms: C_6  and  C_27
REMARK    3  A    between atoms: C_12  and  C_13
REMARK    4  A    between atoms: C_13  and  C_14
REMARK    5  A    between atoms: C_13  and  C_15
REMARK    6  A    between atoms: C_13  and  O_26
REMARK    7  A    between atoms: C_15  and  C_16
REMARK    8  A    between atoms: C_15  and  C_17
REMARK    9  A    between atoms: C_15  and  O_25
REMARK   10  A    between atoms: C_17  and  C_18
REMARK   11  A    between atoms: C_17  and  C_19
REMARK   12  A    between atoms: C_17  and  O_24
REMARK   13  A    between atoms: C_19  and  C_20
REMARK   14  A    between atoms: C_19  and  C_21
REMARK   15  A    between atoms: C_19  and  O_23
REMARK   16  A    between atoms: C_21  and  O_22
REMARK                            x       y       z     vdW  Elec       q    Type
REMARK                         _______ _______ _______ _____ _____    ______ ____
ROOT
ATOM      1  C   UNL     1       2.504   5.482   5.486  0.00  0.00    +0.018 C 
ATOM      2  C   UNL     1       1.445   4.559   6.091  0.00  0.00    +0.025 C 
ATOM      3  C   UNL     1       0.317   4.259   5.089  0.00  0.00    -0.061 C 
ATOM      4  N   UNL     1      -0.675   3.382   5.725  0.00  0.00    +0.393 N 
ATOM      5  C   UNL     1      -1.328   4.029   6.871  0.00  0.00    -0.056 C 
ATOM      6  C   UNL     1      -0.282   4.313   7.962  0.00  0.00    +0.052 C 
ATOM      7  C   UNL     1       0.788   5.185   7.316  0.00  0.00    +0.148 C 
ATOM      8  O   UNL     1       1.084   6.279   7.733  0.00  0.00    -0.296 OA
ATOM      9  C   UNL     1       0.395   2.985   8.335  0.00  0.00    +0.100 C 
ATOM     10  N   UNL     1       0.981   2.382   7.130  0.00  0.00    -0.311 NA
ATOM     11  C   UNL     1       2.046   3.216   6.558  0.00  0.00    +0.095 C 
ATOM     12  C   UNL     1      -0.060   2.108   6.128  0.00  0.00    +0.037 C 
ATOM     13  H   UNL     1      -1.456   3.178   4.977  0.00  0.00    -0.079 HD
ENDROOT
BRANCH   6  14
ATOM     14  C   UNL     1      -0.902   4.976   9.165  0.00  0.00    -0.035 A 
ATOM     15  C   UNL     1      -0.819   4.373  10.406  0.00  0.00    +0.004 A 
ATOM     16  C   UNL     1      -1.383   4.983  11.510  0.00  0.00    +0.000 A 
ATOM     17  C   UNL     1      -2.039   6.192  11.372  0.00  0.00    +0.000 A 
ATOM     18  C   UNL     1      -2.128   6.792  10.130  0.00  0.00    +0.000 A 
ATOM     19  C   UNL     1      -1.559   6.184   9.026  0.00  0.00    +0.004 A 
ENDBRANCH   6  14
BRANCH  12  20
ATOM     20  C   UNL     1       0.567   1.432   4.907  0.00  0.00    +0.095 C 
ATOM     21  C   UNL     1       0.902  -0.022   5.245  0.00  0.00    +0.044 C 
BRANCH  20  22
ATOM     22  C   UNL     1      -0.420   1.470   3.739  0.00  0.00    +0.122 C 
ATOM     23  C   UNL     1      -0.527   2.901   3.208  0.00  0.00    +0.047 C 
BRANCH  22  24
ATOM     24  C   UNL     1       0.073   0.547   2.623  0.00  0.00    +0.124 C 
ATOM     25  C   UNL     1      -0.283  -0.901   2.964  0.00  0.00    +0.047 C 
BRANCH  24  26
ATOM     26  C   UNL     1      -0.594   0.939   1.304  0.00  0.00    +0.117 C 
ATOM     27  C   UNL     1       0.184   2.089   0.661  0.00  0.00    +0.047 C 
BRANCH  26  28
ATOM     28  O   UNL     1      -1.938   1.355   1.555  0.00  0.00    -0.384 OA
ATOM     29  H   UNL     1      -2.579   1.677   0.721  0.00  0.00    +0.210 HD
ENDBRANCH  26  28
BRANCH  26  30
ATOM     30  C   UNL     1      -0.601  -0.264   0.358  0.00  0.00    +0.193 C 
BRANCH  30  31
ATOM     31  O   UNL     1      -1.118   0.133  -0.914  0.00  0.00    -0.392 OA
ATOM     32  H   UNL     1      -1.200  -0.602  -1.728  0.00  0.00    +0.210 HD
ENDBRANCH  30  31
ENDBRANCH  26  30
ENDBRANCH  24  26
BRANCH  24  33
ATOM     33  O   UNL     1       1.491   0.671   2.495  0.00  0.00    -0.383 OA
ATOM     34  H   UNL     1       2.029   0.080   1.739  0.00  0.00    +0.210 HD
ENDBRANCH  24  33
ENDBRANCH  22  24
BRANCH  22  35
ATOM     35  O   UNL     1      -1.705   1.031   4.187  0.00  0.00    -0.383 OA
ATOM     36  H   UNL     1      -2.549   0.990   3.482  0.00  0.00    +0.210 HD
ENDBRANCH  22  35
ENDBRANCH  20  22
BRANCH  20  37
ATOM     37  O   UNL     1       1.763   2.124   4.542  0.00  0.00    -0.386 OA
ATOM     38  H   UNL     1       2.356   1.780   3.681  0.00  0.00    +0.210 HD
ENDBRANCH  20  37
ENDBRANCH  12  20
TORSDOF 11
