REMARK  Name = ZINC48554777
REMARK  4 active torsions:
REMARK  status: ('A' for Active; 'I' for Inactive)
REMARK    1  A    between atoms: C_1  and  C_2
REMARK    2  A    between atoms: C_2  and  C_3
REMARK    3  A    between atoms: C_6  and  S_9
REMARK    4  A    between atoms: S_9  and  C_10
REMARK                            x       y       z     vdW  Elec       q    Type
REMARK                         _______ _______ _______ _____ _____    ______ ____
ROOT
ATOM      1  S   UNL     1      -4.641  -1.702  -1.782  0.00  0.00    +0.008 S 
ENDROOT
BRANCH   1   2
ATOM      2  C   UNL     1      -3.979  -1.443  -3.394  0.00  0.00    +0.266 A 
ATOM      3  N   UNL     1      -2.773  -1.002  -3.648  0.00  0.00    -0.203 NA
ATOM      4  C   UNL     1      -2.610  -0.929  -4.997  0.00  0.00    +0.110 A 
ATOM      5  C   UNL     1      -1.554  -0.535  -5.820  0.00  0.00    +0.031 A 
ATOM      6  C   UNL     1      -1.703  -0.575  -7.189  0.00  0.00    +0.002 A 
ATOM      7  C   UNL     1      -2.895  -1.002  -7.753  0.00  0.00    +0.004 A 
ATOM      8  C   UNL     1      -3.948  -1.394  -6.950  0.00  0.00    +0.048 A 
ATOM      9  C   UNL     1      -3.815  -1.361  -5.572  0.00  0.00    +0.156 A 
ATOM     10  O   UNL     1      -4.637  -1.676  -4.544  0.00  0.00    -0.430 OA
ENDBRANCH   1   2
BRANCH   1  14
ATOM     11  C   UNL     1      -1.412  -0.526   0.013  0.00  0.00    +0.152 A 
ATOM     12  N   UNL     1      -2.147  -0.787  -1.068  0.00  0.00    -0.205 NA
ATOM     13  H   UNL     1      -4.108  -1.532   1.206  0.00  0.00    +0.191 HD
ATOM     14  C   UNL     1      -3.332  -1.228  -0.702  0.00  0.00    +0.193 A 
ATOM     15  N   UNL     1      -3.366  -1.254   0.647  0.00  0.00    -0.253 N 
ATOM     16  N   UNL     1      -2.110  -0.799   1.082  0.00  0.00    -0.157 NA
BRANCH  11  18
ATOM     17  C   UNL     1      -0.019   1.526   0.010  0.00  0.00    +0.012 C 
ATOM     18  C   UNL     1       0.002  -0.004   0.002  0.00  0.00    +0.075 C 
ENDBRANCH  11  18
ENDBRANCH   1  14
TORSDOF 3
