REMARK  Name = ZINC39673365
REMARK  6 active torsions:
REMARK  status: ('A' for Active; 'I' for Inactive)
REMARK    1  A    between atoms: C_3  and  O_32
REMARK    2  A    between atoms: C_6  and  C_7
REMARK    3  A    between atoms: C_7  and  N_8
REMARK    4  A    between atoms: C_9  and  C_11
REMARK    5  A    between atoms: C_22  and  C_24
REMARK    6  A    between atoms: O_32  and  C_33
REMARK                            x       y       z     vdW  Elec       q    Type
REMARK                         _______ _______ _______ _____ _____    ______ ____
ROOT
ATOM      1  C   UNL     1      -3.378  -2.111  -2.450  0.00  0.00    +0.100 C 
ATOM      2  C   UNL     1      -2.293  -2.712  -3.371  0.00  0.00    +0.121 C 
ATOM      3  N   UNL     1      -2.655  -4.144  -3.491  0.00  0.00    -0.296 N 
ATOM      4  C   UNL     1      -4.134  -4.143  -3.586  0.00  0.00    +0.115 C 
ATOM      5  C   UNL     1      -4.586  -3.051  -2.597  0.00  0.00    -0.004 C 
ATOM      6  C   UNL     1      -5.782  -2.289  -3.160  0.00  0.00    -0.010 C 
ATOM      7  C   UNL     1      -6.987  -3.230  -3.243  0.00  0.00    -0.082 C 
ATOM      8  N   UNL     1      -7.298  -3.749  -1.905  0.00  0.00    +0.379 N 
ATOM      9  C   UNL     1      -6.178  -4.558  -1.409  0.00  0.00    -0.082 C 
ATOM     10  C   UNL     1      -4.938  -3.673  -1.249  0.00  0.00    -0.010 C 
ATOM     11  C   UNL     1      -1.826  -5.207  -3.509  0.00  0.00    +0.249 C 
ATOM     12  O   UNL     1      -2.271  -6.320  -3.709  0.00  0.00    -0.270 OA
ATOM     13  H   UNL     1      -7.458  -2.977  -1.275  0.00  0.00    -0.086 HD
ATOM     14  H   UNL     1      -8.129  -4.320  -1.952  0.00  0.00    -0.086 HD
ENDROOT
BRANCH  11  15
ATOM     15  C   UNL     1      -0.378  -5.018  -3.287  0.00  0.00    +0.073 A 
ATOM     16  C   UNL     1       0.261  -3.870  -3.761  0.00  0.00    +0.036 A 
ATOM     17  C   UNL     1       1.613  -3.700  -3.550  0.00  0.00    +0.042 A 
ATOM     18  C   UNL     1       2.339  -4.665  -2.870  0.00  0.00    +0.023 A 
ATOM     19  C   UNL     1       1.715  -5.804  -2.398  0.00  0.00    +0.040 A 
ATOM     20  C   UNL     1       0.358  -5.986  -2.598  0.00  0.00    +0.136 A 
ATOM     21  F   UNL     1      -0.252  -7.097  -2.131  0.00  0.00    -0.205 F 
ATOM     22 CL   UNL     1       2.409  -2.274  -4.138  0.00  0.00    -0.084 Cl
ENDBRANCH  11  15
BRANCH   1  24
ATOM     23  N   UNL     1      -3.378  -1.166  -0.164  0.00  0.00    -0.311 N 
ATOM     24  C   UNL     1      -2.900  -2.090  -1.020  0.00  0.00    +0.218 C 
ATOM     25  O   UNL     1      -2.086  -2.905  -0.641  0.00  0.00    -0.275 OA
ATOM     26  H   UNL     1      -4.029  -0.514  -0.467  0.00  0.00    +0.149 HD
BRANCH  23  27
ATOM     27  C   UNL     1      -2.914  -1.145   1.226  0.00  0.00    +0.139 C 
BRANCH  27  33
ATOM     28  C   UNL     1      -4.796  -0.256   2.614  0.00  0.00    +0.009 A 
ATOM     29  C   UNL     1      -5.423   0.770   3.295  0.00  0.00    +0.046 A 
ATOM     30  C   UNL     1      -4.848   2.032   3.329  0.00  0.00    +0.127 A 
ATOM     31  C   UNL     1      -3.644   2.261   2.679  0.00  0.00    +0.046 A 
ATOM     32  C   UNL     1      -3.021   1.232   2.000  0.00  0.00    +0.009 A 
ATOM     33  C   UNL     1      -3.596  -0.025   1.967  0.00  0.00    -0.030 A 
BRANCH  30  34
ATOM     34  O   UNL     1      -5.463   3.042   3.998  0.00  0.00    -0.434 OA
BRANCH  34  35
ATOM     35  C   UNL     1      -4.814   4.315   3.990  0.00  0.00    +0.541 C 
ATOM     36  F   UNL     1      -3.547   4.196   4.573  0.00  0.00    -0.166 F 
ATOM     37  F   UNL     1      -4.680   4.763   2.672  0.00  0.00    -0.166 F 
ENDBRANCH  34  35
ENDBRANCH  30  34
ENDBRANCH  27  33
ENDBRANCH  23  27
ENDBRANCH   1  24
TORSDOF 6
