REMARK  Name = ZINC08685140
REMARK  12 active torsions:
REMARK  status: ('A' for Active; 'I' for Inactive)
REMARK    1  A    between atoms: C_1  and  C_2
REMARK    2  A    between atoms: C_2  and  C_3
REMARK    3  A    between atoms: C_3  and  C_5
REMARK    4  A    between atoms: C_3  and  N_30
REMARK    5  A    between atoms: C_8  and  S_16
REMARK    6  A    between atoms: N_9  and  C_10
REMARK    7  A    between atoms: S_16  and  C_17
REMARK    8  A    between atoms: C_17  and  C_18
REMARK    9  A    between atoms: N_20  and  C_21
REMARK   10  A    between atoms: C_26  and  C_27
REMARK   11  A    between atoms: N_30  and  C_31
REMARK   12  A    between atoms: N_30  and  C_32
REMARK                            x       y       z     vdW  Elec       q    Type
REMARK                         _______ _______ _______ _____ _____    ______ ____
ROOT
ATOM      1  C   UNL     1       0.270  -1.935   1.606  0.00  0.00    +0.121 A 
ATOM      2  N   UNL     1       1.024  -2.779   0.962  0.00  0.00    -0.135 NA
ATOM      3  N   UNL     1       0.769  -3.979   1.343  0.00  0.00    -0.123 NA
ATOM      4  C   UNL     1      -0.171  -3.965   2.260  0.00  0.00    +0.192 A 
ATOM      5  N   UNL     1      -0.515  -2.659   2.459  0.00  0.00    -0.304 N 
ENDROOT
BRANCH   5   6
ATOM      6  C   UNL     1      -1.520  -2.142   3.392  0.00  0.00    +0.091 C 
ATOM      7  C   UNL     1      -1.140  -2.537   4.821  0.00  0.00    +0.025 C 
ATOM      8  C   UNL     1      -2.189  -1.996   5.795  0.00  0.00    +0.002 C 
ATOM      9  C   UNL     1      -3.558  -2.586   5.449  0.00  0.00    +0.000 C 
ATOM     10  C   UNL     1      -3.937  -2.192   4.021  0.00  0.00    +0.002 C 
ATOM     11  C   UNL     1      -2.889  -2.732   3.047  0.00  0.00    +0.025 C 
ENDBRANCH   5   6
BRANCH   1  12
ATOM     12  C   UNL     1       0.267  -0.436   1.444  0.00  0.00    +0.000 C 
BRANCH  12  13
ATOM     13  N   UNL     1       1.651   0.055   1.405  0.00  0.00    +0.383 N 
ATOM     14  C   UNL     1       1.649   1.523   1.375  0.00  0.00    -0.096 C 
ATOM     15  C   UNL     1       2.369  -0.409   2.600  0.00  0.00    -0.096 C 
ATOM     16  H   UNL     1       2.110  -0.298   0.579  0.00  0.00    -0.082 HD
ENDBRANCH  12  13
BRANCH  12  18
ATOM     17  C   UNL     1      -1.912  -0.483   0.224  0.00  0.00    +0.002 C 
ATOM     18  C   UNL     1      -0.443  -0.065   0.141  0.00  0.00    -0.011 C 
ENDBRANCH  12  18
ENDBRANCH   1  12
BRANCH   4  19
ATOM     19  S   UNL     1      -0.855  -5.366   3.081  0.00  0.00    -0.077 S 
BRANCH  19  20
ATOM     20  C   UNL     1       0.038  -6.774   2.365  0.00  0.00    +0.173 C 
BRANCH  20  21
ATOM     21  C   UNL     1      -0.457  -8.053   2.989  0.00  0.00    +0.228 C 
ATOM     22  O   UNL     1      -1.326  -8.018   3.834  0.00  0.00    -0.275 OA
ATOM     23  N   UNL     1       0.067  -9.235   2.609  0.00  0.00    -0.284 N 
ATOM     24  H   UNL     1       0.710  -9.270   1.884  0.00  0.00    +0.155 HD
BRANCH  23  25
ATOM     25  C   UNL     1      -0.316 -10.408   3.257  0.00  0.00    +0.052 A 
ATOM     26  C   UNL     1      -1.612 -10.551   3.731  0.00  0.00    +0.044 A 
ATOM     27  C   UNL     1      -1.990 -11.715   4.373  0.00  0.00    +0.043 A 
ATOM     28  C   UNL     1      -1.080 -12.746   4.550  0.00  0.00    +0.021 A 
ATOM     29  C   UNL     1       0.212 -12.620   4.086  0.00  0.00    +0.022 A 
ATOM     30  C   UNL     1       0.606 -11.452   3.430  0.00  0.00    +0.073 A 
ATOM     31 CL   UNL     1      -3.614 -11.887   4.964  0.00  0.00    -0.083 Cl
BRANCH  30  32
ATOM     32  C   UNL     1       1.945 -11.317   2.941  0.00  0.00    +0.101 C 
ATOM     33  N   UNL     1       3.007 -11.211   2.552  0.00  0.00    -0.191 NA
ENDBRANCH  30  32
ENDBRANCH  23  25
ENDBRANCH  20  21
ENDBRANCH  19  20
ENDBRANCH   4  19
TORSDOF 9
