REMARK  Name = ZINC13110713
REMARK  3 active torsions:
REMARK  status: ('A' for Active; 'I' for Inactive)
REMARK    1  A    between atoms: C_6  and  C_7
REMARK    2  A    between atoms: C_9  and  C_13
REMARK    3  A    between atoms: C_18  and  O_19
REMARK                            x       y       z     vdW  Elec       q    Type
REMARK                         _______ _______ _______ _____ _____    ______ ____
ROOT
ATOM      1  C   UNL     1      -1.272  -0.765   0.009  0.00  0.00    +0.093 A 
ATOM      2  C   UNL     1      -2.561  -0.213  -0.082  0.00  0.00    +0.058 A 
ATOM      3  C   UNL     1      -3.458  -1.240  -0.040  0.00  0.00    +0.070 A 
ATOM      4  N   UNL     1      -2.750  -2.400   0.073  0.00  0.00    -0.276 N 
ATOM      5  H   UNL     1      -3.123  -3.294   0.124  0.00  0.00    +0.189 HD
ATOM      6  N   UNL     1      -1.388  -2.074   0.096  0.00  0.00    -0.173 NA
ENDROOT
BRANCH   1  12
ATOM      7  C   UNL     1      -0.017   1.389   0.010  0.00  0.00    +0.014 A 
ATOM      8  C   UNL     1       1.169   2.095   0.002  0.00  0.00    +0.050 A 
ATOM      9  C   UNL     1       2.383   1.422  -0.013  0.00  0.00    +0.162 A 
ATOM     10  C   UNL     1       2.407   0.031  -0.018  0.00  0.00    +0.163 A 
ATOM     11  C   UNL     1       1.220  -0.681  -0.012  0.00  0.00    +0.059 A 
ATOM     12  C   UNL     1       0.002  -0.004   0.002  0.00  0.00    +0.006 A 
ATOM     13  O   UNL     1       3.589  -0.645  -0.025  0.00  0.00    -0.485 OA
ATOM     14  C   UNL     1       4.752   0.097  -0.406  0.00  0.00    +0.270 C 
ATOM     15  C   UNL     1       4.734   1.437   0.341  0.00  0.00    +0.270 C 
ATOM     16  O   UNL     1       3.540   2.138  -0.024  0.00  0.00    -0.485 OA
ENDBRANCH   1  12
BRANCH   3  17
ATOM     17  C   UNL     1      -4.931  -1.118  -0.105  0.00  0.00    +0.044 A 
ATOM     18  C   UNL     1      -5.578  -0.082   0.567  0.00  0.00    +0.052 A 
ATOM     19  C   UNL     1      -6.954   0.028   0.502  0.00  0.00    +0.124 A 
ATOM     20  C   UNL     1      -7.692  -0.889  -0.229  0.00  0.00    +0.042 A 
ATOM     21  C   UNL     1      -7.060  -1.919  -0.899  0.00  0.00    +0.049 A 
ATOM     22  C   UNL     1      -5.681  -2.038  -0.847  0.00  0.00    +0.126 A 
ATOM     23  F   UNL     1      -7.581   1.031   1.154  0.00  0.00    -0.205 F 
BRANCH  22  24
ATOM     24  O   UNL     1      -5.058  -3.047  -1.510  0.00  0.00    -0.506 OA
ATOM     25  H   UNL     1      -4.952  -3.854  -0.988  0.00  0.00    +0.292 HD
ENDBRANCH  22  24
ENDBRANCH   3  17
TORSDOF 3
