REMARK  Name = ZINC60338345
REMARK  14 active torsions:
REMARK  status: ('A' for Active; 'I' for Inactive)
REMARK    1  A    between atoms: C_1  and  C_2
REMARK    2  A    between atoms: C_2  and  N_3
REMARK    3  A    between atoms: N_3  and  C_4
REMARK    4  A    between atoms: N_3  and  C_6
REMARK    5  A    between atoms: C_4  and  C_5
REMARK    6  A    between atoms: C_6  and  C_8
REMARK    7  A    between atoms: C_6  and  C_23
REMARK    8  A    between atoms: C_8  and  N_9
REMARK    9  A    between atoms: C_10  and  C_12
REMARK   10  A    between atoms: C_12  and  N_13
REMARK   11  A    between atoms: N_13  and  S_14
REMARK   12  A    between atoms: S_14  and  C_17
REMARK   13  A    between atoms: C_27  and  O_29
REMARK   14  A    between atoms: O_29  and  C_30
REMARK                            x       y       z     vdW  Elec       q    Type
REMARK                         _______ _______ _______ _____ _____    ______ ____
ROOT
ATOM      1  C   UNL     1       0.860  -1.010  -1.751  0.00  0.00    +0.093 C 
ENDROOT
BRANCH   1   2
ATOM      2  N   UNL     1       0.264  -2.348  -1.805  0.00  0.00    -0.315 N 
ATOM      3  C   UNL     1       0.794  -3.352  -1.079  0.00  0.00    +0.229 C 
ATOM      4  O   UNL     1       1.707  -3.129  -0.312  0.00  0.00    -0.274 OA
ATOM      5  H   UNL     1      -0.512  -2.510  -2.364  0.00  0.00    +0.149 HD
BRANCH   3   6
ATOM      6  C   UNL     1       0.253  -4.751  -1.220  0.00  0.00    +0.201 C 
BRANCH   6   7
ATOM      7  N   UNL     1       0.908  -5.628  -0.246  0.00  0.00    -0.181 NA
ATOM      8  H   UNL     1       1.717  -5.337   0.201  0.00  0.00    +0.149 HD
BRANCH   7   9
ATOM      9  S   UNL     1       0.266  -7.117   0.089  0.00  0.00    +0.065 S 
ATOM     10  O   UNL     1       1.131  -7.728   1.037  0.00  0.00    -0.153 OA
ATOM     11  O   UNL     1      -1.118  -6.916   0.340  0.00  0.00    -0.153 OA
BRANCH   9  12
ATOM     12  C   UNL     1       0.377  -8.076  -1.385  0.00  0.00    +0.144 A 
ATOM     13  C   UNL     1       1.378  -8.888  -1.801  0.00  0.00    +0.038 A 
ATOM     14  C   UNL     1       1.247  -9.550  -3.008  0.00  0.00    +0.030 A 
ATOM     15  C   UNL     1       0.119  -9.367  -3.739  0.00  0.00    +0.080 A 
ATOM     16  S   UNL     1      -0.806  -8.237  -2.713  0.00  0.00    -0.057 S 
ATOM     17 CL   UNL     1      -0.315 -10.057  -5.272  0.00  0.00    -0.076 Cl
ENDBRANCH   9  12
ENDBRANCH   7   9
ENDBRANCH   6   7
ENDBRANCH   3   6
ENDBRANCH   1   2
BRANCH   1  18
ATOM     18  C   UNL     1      -0.008  -0.033  -2.546  0.00  0.00    -0.020 C 
BRANCH  18  19
ATOM     19  C   UNL     1       0.538   1.364  -2.391  0.00  0.00    -0.056 A 
ATOM     20  C   UNL     1       1.860   1.553  -2.032  0.00  0.00    +0.002 A 
ATOM     21  C   UNL     1       2.363   2.832  -1.889  0.00  0.00    +0.004 A 
ATOM     22  C   UNL     1       1.546   3.926  -2.105  0.00  0.00    +0.045 A 
ATOM     23  C   UNL     1       0.220   3.738  -2.465  0.00  0.00    +0.120 A 
ATOM     24  C   UNL     1      -0.281   2.453  -2.614  0.00  0.00    +0.047 A 
BRANCH  23  25
ATOM     25  O   UNL     1      -0.586   4.812  -2.678  0.00  0.00    -0.495 OA
ATOM     26  C   UNL     1      -0.000   6.105  -2.512  0.00  0.00    +0.277 C 
ENDBRANCH  23  25
ENDBRANCH  18  19
BRANCH  18  27
ATOM     27  N   UNL     1      -1.386  -0.079  -2.041  0.00  0.00    +0.385 N 
ATOM     28  H   UNL     1      -1.596  -1.012  -1.720  0.00  0.00    -0.081 HD
BRANCH  27  30
ATOM     29  C   UNL     1      -0.506   0.532   0.162  0.00  0.00    -0.017 C 
ATOM     30  C   UNL     1      -1.530   0.866  -0.925  0.00  0.00    -0.081 C 
ENDBRANCH  27  30
BRANCH  27  31
ATOM     31  C   UNL     1      -2.315   0.289  -3.117  0.00  0.00    -0.081 C 
ATOM     32  C   UNL     1      -2.322  -0.809  -4.182  0.00  0.00    -0.017 C 
ENDBRANCH  27  31
ENDBRANCH  18  27
ENDBRANCH   1  18
TORSDOF 11
