REMARK  Name = ZINC36493120
REMARK  13 active torsions:
REMARK  status: ('A' for Active; 'I' for Inactive)
REMARK    1  A    between atoms: C_1  and  C_2
REMARK    2  A    between atoms: C_2  and  C_3
REMARK    3  A    between atoms: N_5  and  C_6
REMARK    4  A    between atoms: N_5  and  C_12
REMARK    5  A    between atoms: C_12  and  C_14
REMARK    6  A    between atoms: C_12  and  C_23
REMARK    7  A    between atoms: C_15  and  O_22
REMARK    8  A    between atoms: C_17  and  O_21
REMARK    9  A    between atoms: C_19  and  O_20
REMARK   10  A    between atoms: N_25  and  C_26
REMARK   11  A    between atoms: C_26  and  S_27
REMARK   12  A    between atoms: S_27  and  C_30
REMARK   13  A    between atoms: C_33  and  C_36
REMARK                            x       y       z     vdW  Elec       q    Type
REMARK                         _______ _______ _______ _____ _____    ______ ____
ROOT
ATOM      1  C   UNL     1       0.392  -2.749  -0.705  0.00  0.00    +0.199 C 
ENDROOT
BRANCH   1   2
ATOM      2  C   UNL     1       1.243  -2.055   0.327  0.00  0.00    +0.065 A 
ATOM      3  C   UNL     1       1.195  -0.674   0.451  0.00  0.00    +0.129 A 
ATOM      4  C   UNL     1       1.978  -0.036   1.401  0.00  0.00    +0.091 A 
ATOM      5  C   UNL     1       2.809  -0.778   2.227  0.00  0.00    +0.124 A 
ATOM      6  C   UNL     1       2.856  -2.158   2.104  0.00  0.00    +0.091 A 
ATOM      7  C   UNL     1       2.070  -2.797   1.157  0.00  0.00    +0.129 A 
BRANCH   7   8
ATOM      8  O   UNL     1       2.113  -4.150   1.039  0.00  0.00    -0.506 OA
ATOM      9  H   UNL     1       2.780  -4.470   0.417  0.00  0.00    +0.292 HD
ENDBRANCH   7   8
BRANCH   5  10
ATOM     10  O   UNL     1       3.577  -0.152   3.157  0.00  0.00    -0.507 OA
ATOM     11  H   UNL     1       3.146  -0.045   4.016  0.00  0.00    +0.292 HD
ENDBRANCH   5  10
BRANCH   3  12
ATOM     12  O   UNL     1       0.381   0.052  -0.359  0.00  0.00    -0.506 OA
ATOM     13  H   UNL     1      -0.480   0.257   0.030  0.00  0.00    +0.292 HD
ENDBRANCH   3  12
ENDBRANCH   1   2
BRANCH   1  14
ATOM     14  C   UNL     1      -1.059  -2.422  -0.462  0.00  0.00    +0.240 C 
ATOM     15  O   UNL     1      -1.614  -1.585  -1.141  0.00  0.00    -0.273 OA
ATOM     16  N   UNL     1      -1.739  -3.061   0.510  0.00  0.00    -0.294 N 
ATOM     17  H   UNL     1      -1.295  -3.731   1.054  0.00  0.00    +0.150 HD
BRANCH  16  18
ATOM     18  C   UNL     1      -3.150  -2.744   0.747  0.00  0.00    +0.278 C 
BRANCH  18  19
ATOM     19  S   UNL     1      -4.194  -3.919  -0.158  0.00  0.00    +0.013 S 
ATOM     20  O   UNL     1      -5.565  -3.664   0.112  0.00  0.00    -0.168 OA
ATOM     21  O   UNL     1      -3.732  -4.056  -1.494  0.00  0.00    -0.168 OA
BRANCH  19  22
ATOM     22  C   UNL     1      -3.871  -5.481   0.592  0.00  0.00    +0.090 A 
ATOM     23  C   UNL     1      -2.852  -6.282   0.111  0.00  0.00    +0.027 A 
ATOM     24  C   UNL     1      -2.599  -7.507   0.699  0.00  0.00    +0.005 A 
ATOM     25  C   UNL     1      -3.365  -7.931   1.768  0.00  0.00    -0.050 A 
ATOM     26  C   UNL     1      -4.384  -7.131   2.250  0.00  0.00    +0.005 A 
ATOM     27  C   UNL     1      -4.634  -5.904   1.665  0.00  0.00    +0.027 A 
ATOM     28  C   UNL     1      -3.090  -9.268   2.409  0.00  0.00    +0.044 C 
ENDBRANCH  19  22
ENDBRANCH  18  19
ENDBRANCH  16  18
ENDBRANCH   1  14
BRANCH   1  31
ATOM     29  C   UNL     1       0.163  -2.798  -3.131  0.00  0.00    +0.216 C 
ATOM     30  O   UNL     1       0.537  -2.482  -4.240  0.00  0.00    -0.276 OA
ATOM     31  N   UNL     1       0.778  -2.292  -2.043  0.00  0.00    -0.283 N 
BRANCH  31  32
ATOM     32  C   UNL     1       1.831  -1.286  -2.198  0.00  0.00    +0.077 C 
ATOM     33  C   UNL     1       1.269  -0.069  -2.934  0.00  0.00    +0.022 C 
ATOM     34  C   UNL     1       2.369   0.982  -3.096  0.00  0.00    +0.002 C 
ATOM     35  C   UNL     1       3.526   0.389  -3.902  0.00  0.00    +0.000 C 
ATOM     36  C   UNL     1       4.089  -0.829  -3.167  0.00  0.00    +0.002 C 
ATOM     37  C   UNL     1       2.988  -1.880  -3.005  0.00  0.00    +0.022 C 
ENDBRANCH  31  32
BRANCH  29  39
ATOM     38  C   UNL     1      -1.503  -4.173  -4.347  0.00  0.00    +0.013 C 
ATOM     39  C   UNL     1      -0.989  -3.756  -2.968  0.00  0.00    +0.092 C 
ENDBRANCH  29  39
ENDBRANCH   1  31
TORSDOF 11
