REMARK  Name = ZINC16009732
REMARK  5 active torsions:
REMARK  status: ('A' for Active; 'I' for Inactive)
REMARK    1  A    between atoms: C_1  and  C_2
REMARK    2  A    between atoms: C_17  and  C_20
REMARK    3  A    between atoms: C_20  and  C_21
REMARK    4  A    between atoms: N_26  and  C_29
REMARK    5  A    between atoms: C_29  and  C_30
REMARK                            x       y       z     vdW  Elec       q    Type
REMARK                         _______ _______ _______ _____ _____    ______ ____
ROOT
ATOM      1  C   UNL     1      -0.018   1.503   0.010  0.00  0.00    +0.044 C 
ATOM      2  C   UNL     1       0.002  -0.004   0.002  0.00  0.00    -0.049 A 
ATOM      3  C   UNL     1       0.006  -0.691  -1.199  0.00  0.00    +0.011 A 
ATOM      4  C   UNL     1       0.025  -2.068  -1.206  0.00  0.00    +0.005 A 
ATOM      5  C   UNL     1       0.040  -2.783  -0.013  0.00  0.00    +0.057 A 
ATOM      6  C   UNL     1       0.036  -2.084   1.193  0.00  0.00    +0.063 A 
ATOM      7  C   UNL     1       0.023  -0.703   1.195  0.00  0.00    +0.025 A 
ATOM      8 CL   UNL     1       0.055  -2.951   2.697  0.00  0.00    -0.082 Cl
ATOM      9  N   UNL     1       0.057  -4.156  -0.273  0.00  0.00    -0.282 N 
ATOM     10  C   UNL     1       0.055  -4.423  -1.593  0.00  0.00    +0.243 C 
ATOM     11  O   UNL     1       0.067  -5.520  -2.110  0.00  0.00    -0.273 OA
ATOM     12  C   UNL     1       0.034  -3.096  -2.301  0.00  0.00    +0.136 C 
ATOM     13  C   UNL     1      -1.195  -2.963  -3.209  0.00  0.00    +0.122 C 
ATOM     14  C   UNL     1      -0.688  -2.154  -4.436  0.00  0.00    +0.107 C 
ATOM     15  C   UNL     1       0.795  -1.858  -4.130  0.00  0.00    +0.076 C 
ATOM     16  N   UNL     1       1.206  -2.936  -3.182  0.00  0.00    -0.295 NA
ATOM     17  C   UNL     1      -0.791  -3.143  -5.574  0.00  0.00    +0.227 C 
ATOM     18  O   UNL     1      -0.484  -2.921  -6.725  0.00  0.00    -0.275 OA
ATOM     19  N   UNL     1      -1.274  -4.303  -5.112  0.00  0.00    -0.237 N 
ATOM     20  C   UNL     1      -1.548  -4.315  -3.787  0.00  0.00    +0.229 C 
ATOM     21  O   UNL     1      -1.998  -5.249  -3.159  0.00  0.00    -0.275 OA
ATOM     22  H   UNL     1       0.069  -4.837   0.418  0.00  0.00    +0.155 HD
ATOM     23  H   UNL     1       2.020  -2.657  -2.654  0.00  0.00    +0.124 HD
ENDROOT
BRANCH  15  24
ATOM     24  C   UNL     1       1.630  -1.946  -5.409  0.00  0.00    +0.115 C 
BRANCH  24  25
ATOM     25  C   UNL     1       3.049  -1.535  -5.113  0.00  0.00    +0.212 C 
ATOM     26  O   UNL     1       3.362  -1.204  -3.989  0.00  0.00    -0.276 OA
ATOM     27  N   UNL     1       3.970  -1.535  -6.096  0.00  0.00    -0.329 N 
ATOM     28  H   UNL     1       3.720  -1.799  -6.995  0.00  0.00    +0.145 HD
ATOM     29  H   UNL     1       4.884  -1.270  -5.905  0.00  0.00    +0.145 HD
ENDBRANCH  24  25
ENDBRANCH  15  24
BRANCH  19  30
ATOM     30  C   UNL     1      -1.496  -5.467  -5.973  0.00  0.00    +0.151 C 
BRANCH  30  31
ATOM     31  C   UNL     1      -0.249  -6.313  -6.005  0.00  0.00    -0.029 A 
ATOM     32  C   UNL     1       0.723  -6.075  -6.960  0.00  0.00    +0.008 A 
ATOM     33  C   UNL     1       1.867  -6.850  -6.990  0.00  0.00    +0.038 A 
ATOM     34  C   UNL     1       2.040  -7.864  -6.064  0.00  0.00    +0.123 A 
ATOM     35  C   UNL     1       1.066  -8.101  -5.108  0.00  0.00    +0.038 A 
ATOM     36  C   UNL     1      -0.075  -7.322  -5.077  0.00  0.00    +0.008 A 
ATOM     37  F   UNL     1       3.158  -8.623  -6.092  0.00  0.00    -0.205 F 
ENDBRANCH  30  31
ENDBRANCH  19  30
TORSDOF 4
