REMARK  Name = ZINC17899155
REMARK  12 active torsions:
REMARK  status: ('A' for Active; 'I' for Inactive)
REMARK    1  A    between atoms: C_1  and  C_2
REMARK    2  A    between atoms: C_3  and  N_9
REMARK    3  A    between atoms: C_4  and  C_8
REMARK    4  A    between atoms: N_5  and  C_7
REMARK    5  A    between atoms: C_10  and  C_12
REMARK    6  A    between atoms: C_12  and  S_13
REMARK    7  A    between atoms: S_13  and  C_14
REMARK    8  A    between atoms: C_17  and  C_28
REMARK    9  A    between atoms: N_18  and  C_19
REMARK   10  A    between atoms: C_24  and  C_25
REMARK   11  A    between atoms: C_25  and  C_26
REMARK   12  A    between atoms: C_25  and  C_27
REMARK                            x       y       z     vdW  Elec       q    Type
REMARK                         _______ _______ _______ _____ _____    ______ ____
ROOT
ATOM      1  C   UNL     1       4.938  -5.611  -1.078  0.00  0.00    +0.197 A 
ATOM      2  N   UNL     1       3.996  -6.460  -0.735  0.00  0.00    -0.122 NA
ATOM      3  N   UNL     1       4.420  -7.667  -0.860  0.00  0.00    -0.128 NA
ATOM      4  C   UNL     1       5.660  -7.664  -1.292  0.00  0.00    +0.169 A 
ATOM      5  N   UNL     1       6.030  -6.346  -1.450  0.00  0.00    -0.270 N 
ENDROOT
BRANCH   4   6
ATOM      6  C   UNL     1       6.500  -8.850  -1.562  0.00  0.00    +0.020 A 
ATOM      7  C   UNL     1       7.880  -8.711  -1.720  0.00  0.00    +0.013 A 
ATOM      8  C   UNL     1       8.658  -9.823  -1.966  0.00  0.00    +0.021 A 
ATOM      9  C   UNL     1       8.072 -11.073  -2.068  0.00  0.00    +0.041 A 
ATOM     10  C   UNL     1       6.703 -11.217  -1.917  0.00  0.00    +0.021 A 
ATOM     11  C   UNL     1       5.915 -10.114  -1.665  0.00  0.00    +0.013 A 
ATOM     12 CL   UNL     1       9.057 -12.467  -2.386  0.00  0.00    -0.084 Cl
ENDBRANCH   4   6
BRANCH   5  13
ATOM     13  C   UNL     1       7.267  -5.860  -1.896  0.00  0.00    +0.054 A 
ATOM     14  C   UNL     1       8.281  -5.598  -0.985  0.00  0.00    +0.026 A 
ATOM     15  C   UNL     1       9.499  -5.120  -1.427  0.00  0.00    +0.002 A 
ATOM     16  C   UNL     1       9.709  -4.903  -2.777  0.00  0.00    +0.000 A 
ATOM     17  C   UNL     1       8.701  -5.163  -3.687  0.00  0.00    +0.006 A 
ATOM     18  C   UNL     1       7.482  -5.646  -3.251  0.00  0.00    -0.021 A 
BRANCH  18  19
ATOM     19  C   UNL     1       6.386  -5.935  -4.244  0.00  0.00    +0.015 C 
ATOM     20  C   UNL     1       6.031  -4.652  -4.999  0.00  0.00    +0.012 C 
ATOM     21  C   UNL     1       6.864  -6.996  -5.237  0.00  0.00    +0.012 C 
ENDBRANCH  18  19
ENDBRANCH   5  13
BRANCH   1  22
ATOM     22  S   UNL     1       4.814  -3.853  -1.069  0.00  0.00    -0.076 S 
BRANCH  22  23
ATOM     23  C   UNL     1       3.114  -3.660  -0.481  0.00  0.00    +0.173 C 
BRANCH  23  25
ATOM     24  N   UNL     1       1.554  -1.808   0.026  0.00  0.00    -0.282 N 
ATOM     25  C   UNL     1       2.776  -2.194  -0.391  0.00  0.00    +0.228 C 
ATOM     26  O   UNL     1       3.604  -1.362  -0.695  0.00  0.00    -0.275 OA
ATOM     27  H   UNL     1       0.918  -2.470   0.341  0.00  0.00    +0.155 HD
BRANCH  24  30
ATOM     28  C   UNL     1       2.559   0.306   2.080  0.00  0.00    +0.069 C 
ATOM     29  C   UNL     1       1.633   0.533   0.913  0.00  0.00    +0.081 A 
ATOM     30  C   UNL     1       1.201  -0.446   0.006  0.00  0.00    +0.077 A 
ATOM     31  C   UNL     1       0.382   0.154  -0.895  0.00  0.00    +0.057 A 
ATOM     32  N   UNL     1       0.302   1.469  -0.564  0.00  0.00    -0.270 N 
ATOM     33  N   UNL     1       1.095   1.676   0.572  0.00  0.00    -0.175 NA
ATOM     34  C   UNL     1      -0.472   2.491  -1.272  0.00  0.00    +0.172 C 
ATOM     35  C   UNL     1      -0.312  -0.516  -2.052  0.00  0.00    +0.067 C 
ENDBRANCH  24  30
ENDBRANCH  23  25
ENDBRANCH  22  23
ENDBRANCH   1  22
TORSDOF 7
