REMARK  Name = ZINC20438240
REMARK  5 active torsions:
REMARK  status: ('A' for Active; 'I' for Inactive)
REMARK    1  A    between atoms: C_3  and  C_8
REMARK    2  A    between atoms: C_5  and  O_7
REMARK    3  A    between atoms: C_15  and  C_16
REMARK    4  A    between atoms: C_20  and  C_21
REMARK    5  A    between atoms: C_20  and  O_28
REMARK                            x       y       z     vdW  Elec       q    Type
REMARK                         _______ _______ _______ _____ _____    ______ ____
ROOT
ATOM      1  C   UNL     1      -0.013   1.086   0.008  0.00  0.00    +0.071 C 
ATOM      2  C   UNL     1      -0.765   1.588  -1.221  0.00  0.00    +0.110 C 
ATOM      3  C   UNL     1       0.042   1.397  -2.476  0.00  0.00    +0.224 C 
ATOM      4  O   UNL     1      -0.492   1.042  -3.505  0.00  0.00    -0.275 OA
ATOM      5  N   UNL     1       1.391   1.630  -2.436  0.00  0.00    -0.231 N 
ATOM      6  C   UNL     1       2.005   1.802  -1.204  0.00  0.00    +0.087 C 
ATOM      7  C   UNL     1       1.407   1.607  -0.003  0.00  0.00    +0.065 C 
ATOM      8  S   UNL     1       3.669   2.309  -1.530  0.00  0.00    -0.104 S 
ATOM      9  C   UNL     1       3.658   2.203  -3.360  0.00  0.00    +0.136 C 
ATOM     10  C   UNL     1       2.216   1.738  -3.627  0.00  0.00    +0.175 C 
ENDROOT
BRANCH  10  11
ATOM     11  C   UNL     1       2.264   0.390  -4.300  0.00  0.00    +0.004 A 
ATOM     12  C   UNL     1       2.064  -0.759  -3.558  0.00  0.00    +0.011 A 
ATOM     13  C   UNL     1       2.103  -1.995  -4.175  0.00  0.00    +0.039 A 
ATOM     14  C   UNL     1       2.354  -2.083  -5.534  0.00  0.00    +0.123 A 
ATOM     15  C   UNL     1       2.561  -0.931  -6.274  0.00  0.00    +0.039 A 
ATOM     16  C   UNL     1       2.516   0.304  -5.656  0.00  0.00    +0.011 A 
ATOM     17  F   UNL     1       2.399  -3.291  -6.136  0.00  0.00    -0.205 F 
ENDBRANCH  10  11
BRANCH   1  20
ATOM     18  C   UNL     1      -1.497   3.372   2.622  0.00  0.00    +0.004 A 
ATOM     19  C   UNL     1      -0.850   2.925   1.484  0.00  0.00    +0.004 A 
ATOM     20  C   UNL     1      -0.713   1.569   1.252  0.00  0.00    -0.035 A 
ATOM     21  C   UNL     1      -1.212   0.657   2.162  0.00  0.00    +0.049 A 
ATOM     22  C   UNL     1      -1.856   1.103   3.307  0.00  0.00    +0.117 A 
ATOM     23  C   UNL     1      -1.998   2.464   3.535  0.00  0.00    +0.045 A 
BRANCH  22  24
ATOM     24  O   UNL     1      -2.348   0.207   4.203  0.00  0.00    -0.507 OA
ATOM     25  H   UNL     1      -2.859   0.561   5.110  0.00  0.00    +0.292 HD
ENDBRANCH  22  24
ENDBRANCH   1  20
BRANCH   7  26
ATOM     26  C   UNL     1       2.100   1.884   1.219  0.00  0.00    +0.098 C 
ATOM     27  N   UNL     1       2.649   2.104   2.189  0.00  0.00    -0.191 NA
ENDBRANCH   7  26
BRANCH  10  28
ATOM     28  O   UNL     1       1.601   2.667  -4.522  0.00  0.00    -0.366 OA
ATOM     29  H   UNL     1       2.072   2.893  -5.490  0.00  0.00    +0.212 HD
ENDBRANCH  10  28
TORSDOF 5
