REMARK  Name = ZINC39531057
REMARK  12 active torsions:
REMARK  status: ('A' for Active; 'I' for Inactive)
REMARK    1  A    between atoms: C_1  and  C_2
REMARK    2  A    between atoms: C_2  and  C_3
REMARK    3  A    between atoms: C_2  and  S_4
REMARK    4  A    between atoms: S_4  and  N_7
REMARK    5  A    between atoms: N_7  and  C_8
REMARK    6  A    between atoms: C_8  and  C_9
REMARK    7  A    between atoms: C_9  and  C_11
REMARK    8  A    between atoms: C_9  and  N_24
REMARK    9  A    between atoms: C_14  and  C_17
REMARK   10  A    between atoms: C_17  and  C_18
REMARK   11  A    between atoms: C_28  and  C_31
REMARK   12  A    between atoms: C_36  and  O_37
REMARK                            x       y       z     vdW  Elec       q    Type
REMARK                         _______ _______ _______ _____ _____    ______ ____
ROOT
ATOM      1  C   UNL     1       4.727   0.055  -0.518  0.00  0.00    +0.102 C 
ENDROOT
BRANCH   1   2
ATOM      2  N   UNL     1       4.785   1.516  -0.657  0.00  0.00    -0.297 NA
ATOM      3  C   UNL     1       3.831   1.987  -1.671  0.00  0.00    +0.066 C 
ATOM      4  C   UNL     1       3.881   3.515  -1.743  0.00  0.00    -0.066 C 
ATOM      5  N   UNL     1       5.242   3.945  -2.089  0.00  0.00    +0.385 N 
ATOM      6  C   UNL     1       6.179   3.489  -1.054  0.00  0.00    -0.023 C 
ATOM      7  C   UNL     1       6.149   1.961  -0.977  0.00  0.00    +0.074 C 
ATOM      8  H   UNL     1       5.504   3.549  -2.979  0.00  0.00    -0.085 HD
ATOM      9  H   UNL     1       5.271   4.952  -2.148  0.00  0.00    -0.085 HD
BRANCH   6  10
ATOM     10  C   UNL     1       7.572   3.947  -1.401  0.00  0.00    -0.019 A 
ATOM     11  C   UNL     1       7.878   4.307  -2.700  0.00  0.00    +0.005 A 
ATOM     12  C   UNL     1       9.156   4.727  -3.019  0.00  0.00    +0.000 A 
ATOM     13  C   UNL     1      10.131   4.788  -2.040  0.00  0.00    +0.004 A 
ATOM     14  C   UNL     1       9.830   4.429  -0.741  0.00  0.00    +0.045 A 
ATOM     15  C   UNL     1       8.547   4.012  -0.417  0.00  0.00    +0.118 A 
BRANCH  15  16
ATOM     16  O   UNL     1       8.247   3.664   0.862  0.00  0.00    -0.507 OA
ATOM     17  H   UNL     1       8.391   2.728   1.059  0.00  0.00    +0.292 HD
ENDBRANCH  15  16
ENDBRANCH   6  10
ENDBRANCH   1   2
BRANCH   1  18
ATOM     18  C   UNL     1       5.616  -0.377   0.620  0.00  0.00    -0.029 A 
ATOM     19  C   UNL     1       5.659   0.366   1.784  0.00  0.00    +0.005 A 
ATOM     20  C   UNL     1       6.475  -0.030   2.828  0.00  0.00    +0.004 A 
ATOM     21  C   UNL     1       7.247  -1.170   2.707  0.00  0.00    -0.043 A 
ATOM     22  C   UNL     1       7.204  -1.914   1.542  0.00  0.00    +0.004 A 
ATOM     23  C   UNL     1       6.385  -1.520   0.500  0.00  0.00    +0.005 A 
BRANCH  21  24
ATOM     24  C   UNL     1       8.137  -1.602   3.844  0.00  0.00    +0.070 C 
BRANCH  24  25
ATOM     25  C   UNL     1       7.372  -2.522   4.759  0.00  0.00    -0.043 A 
ATOM     26  C   UNL     1       6.652  -2.002   5.818  0.00  0.00    +0.004 A 
ATOM     27  C   UNL     1       5.950  -2.846   6.658  0.00  0.00    +0.000 A 
ATOM     28  C   UNL     1       5.967  -4.211   6.438  0.00  0.00    +0.000 A 
ATOM     29  C   UNL     1       6.686  -4.731   5.378  0.00  0.00    +0.000 A 
ATOM     30  C   UNL     1       7.385  -3.886   4.536  0.00  0.00    +0.004 A 
ENDBRANCH  24  25
ENDBRANCH  21  24
ENDBRANCH   1  18
BRANCH   1  31
ATOM     31  C   UNL     1       3.287  -0.373  -0.230  0.00  0.00    +0.129 C 
BRANCH  31  32
ATOM     32  N   UNL     1       3.218  -1.834  -0.149  0.00  0.00    -0.192 NA
ATOM     33  H   UNL     1       3.954  -2.373  -0.480  0.00  0.00    +0.148 HD
BRANCH  32  34
ATOM     34  S   UNL     1       1.886  -2.566   0.509  0.00  0.00    +0.032 S 
ATOM     35  O   UNL     1       1.698  -1.919   1.760  0.00  0.00    -0.158 OA
ATOM     36  O   UNL     1       2.169  -3.957   0.448  0.00  0.00    -0.158 OA
BRANCH  34  38
ATOM     37  C   UNL     1       0.837  -2.698  -2.014  0.00  0.00    +0.033 C 
ATOM     38  C   UNL     1       0.525  -2.155  -0.618  0.00  0.00    +0.142 C 
ATOM     39  C   UNL     1      -0.771  -2.786  -0.103  0.00  0.00    +0.033 C 
ENDBRANCH  34  38
ENDBRANCH  32  34
ENDBRANCH  31  32
ENDBRANCH   1  31
TORSDOF 10
