REMARK  Name = ZINC27365252
REMARK  10 active torsions:
REMARK  status: ('A' for Active; 'I' for Inactive)
REMARK    1  A    between atoms: C_1  and  C_2
REMARK    2  A    between atoms: C_7  and  S_31
REMARK    3  A    between atoms: C_12  and  C_14
REMARK    4  A    between atoms: C_14  and  N_15
REMARK    5  A    between atoms: N_15  and  C_16
REMARK    6  A    between atoms: N_15  and  C_17
REMARK    7  A    between atoms: C_17  and  C_19
REMARK    8  A    between atoms: C_17  and  C_20
REMARK    9  A    between atoms: C_23  and  N_26
REMARK   10  A    between atoms: S_31  and  N_34
REMARK                            x       y       z     vdW  Elec       q    Type
REMARK                         _______ _______ _______ _____ _____    ______ ____
ROOT
ATOM      1  C   UNL     1      -7.939   2.179   3.707  0.00  0.00    +0.029 C 
ATOM      2  C   UNL     1      -7.291   0.818   3.971  0.00  0.00    +0.083 C 
ATOM      3  C   UNL     1      -8.367  -0.277   4.043  0.00  0.00    +0.059 C 
ATOM      4  C   UNL     1      -8.016  -1.230   2.922  0.00  0.00    -0.022 A 
ATOM      5  C   UNL     1      -8.621  -2.401   2.506  0.00  0.00    +0.034 A 
ATOM      6  C   UNL     1      -8.102  -3.107   1.437  0.00  0.00    +0.105 A 
ATOM      7  C   UNL     1      -6.976  -2.640   0.784  0.00  0.00    +0.030 A 
ATOM      8  C   UNL     1      -6.370  -1.472   1.196  0.00  0.00    +0.026 A 
ATOM      9  C   UNL     1      -6.888  -0.753   2.276  0.00  0.00    +0.040 A 
ATOM     10  N   UNL     1      -6.431   0.438   2.847  0.00  0.00    -0.270 N 
ATOM     11  C   UNL     1      -5.354   1.133   2.430  0.00  0.00    +0.203 C 
ATOM     12  O   UNL     1      -5.037   2.159   2.994  0.00  0.00    -0.277 OA
ENDROOT
BRANCH   6  13
ATOM     13  S   UNL     1      -8.874  -4.600   0.907  0.00  0.00    +0.056 S 
ATOM     14  O   UNL     1     -10.227  -4.532   1.336  0.00  0.00    -0.153 OA
ATOM     15  O   UNL     1      -8.516  -4.781  -0.456  0.00  0.00    -0.153 OA
BRANCH  13  16
ATOM     16  N   UNL     1      -8.172  -5.840   1.750  0.00  0.00    -0.204 NA
ATOM     17  H   UNL     1      -8.629  -6.794   1.447  0.00  0.00    +0.144 HD
ATOM     18  H   UNL     1      -8.328  -5.686   2.828  0.00  0.00    +0.144 HD
ENDBRANCH  13  16
ENDBRANCH   6  13
BRANCH  11  19
ATOM     19  C   UNL     1      -4.543   0.634   1.262  0.00  0.00    +0.020 C 
BRANCH  19  20
ATOM     20  N   UNL     1      -3.431   1.561   1.006  0.00  0.00    +0.388 N 
ATOM     21  C   UNL     1      -3.928   2.867   0.554  0.00  0.00    -0.095 C 
ATOM     22  H   UNL     1      -2.893   1.713   1.954  0.00  0.00    -0.081 HD
BRANCH  20  23
ATOM     23  C   UNL     1      -2.485   0.993   0.036  0.00  0.00    -0.041 C 
ATOM     24  C   UNL     1      -3.118   0.999  -1.357  0.00  0.00    -0.008 C 
BRANCH  23  25
ATOM     25  C   UNL     1      -1.226   1.821   0.019  0.00  0.00    -0.061 A 
ATOM     26  C   UNL     1      -0.488   1.931  -1.145  0.00  0.00    +0.004 A 
ATOM     27  C   UNL     1       0.663   2.694  -1.166  0.00  0.00    +0.028 A 
ATOM     28  C   UNL     1       1.082   3.346  -0.014  0.00  0.00    +0.067 A 
ATOM     29  C   UNL     1       0.342   3.230   1.155  0.00  0.00    +0.028 A 
ATOM     30  C   UNL     1      -0.808   2.466   1.169  0.00  0.00    +0.004 A 
BRANCH  28  31
ATOM     31  N   UNL     1       2.250   4.121  -0.032  0.00  0.00    -0.220 N 
ATOM     32  C   UNL     1       2.779   4.808   0.999  0.00  0.00    +0.225 A 
ATOM     33  N   UNL     1       3.868   5.398   0.577  0.00  0.00    -0.222 NA
ATOM     34  C   UNL     1       4.066   5.114  -0.710  0.00  0.00    +0.245 A 
ATOM     35  N   UNL     1       3.106   4.331  -1.126  0.00  0.00    -0.154 NA
ENDBRANCH  28  31
ENDBRANCH  23  25
ENDBRANCH  20  23
ENDBRANCH  19  20
ENDBRANCH  11  19
TORSDOF 7
