REMARK  Name = ZINC39322074
REMARK  11 active torsions:
REMARK  status: ('A' for Active; 'I' for Inactive)
REMARK    1  A    between atoms: C_1  and  C_2
REMARK    2  A    between atoms: C_2  and  O_3
REMARK    3  A    between atoms: O_3  and  C_4
REMARK    4  A    between atoms: C_4  and  C_6
REMARK    5  A    between atoms: C_7  and  C_38
REMARK    6  A    between atoms: C_14  and  C_15
REMARK    7  A    between atoms: C_26  and  C_28
REMARK    8  A    between atoms: C_31  and  O_34
REMARK    9  A    between atoms: O_34  and  C_35
REMARK   10  A    between atoms: C_35  and  C_36
REMARK   11  A    between atoms: C_35  and  C_37
REMARK                            x       y       z     vdW  Elec       q    Type
REMARK                         _______ _______ _______ _____ _____    ______ ____
ROOT
ATOM      1  C   UNL     1      -2.380  -2.317   0.345  0.00  0.00    +0.085 C 
ATOM      2  C   UNL     1      -2.413  -3.647   0.034  0.00  0.00    +0.053 C 
ATOM      3  N   UNL     1      -3.566  -4.249  -0.234  0.00  0.00    -0.228 NA
ATOM      4  C   UNL     1      -4.735  -3.661  -0.228  0.00  0.00    +0.178 A 
ATOM      5  N   UNL     1      -4.925  -2.328   0.060  0.00  0.00    -0.275 N 
ATOM      6  C   UNL     1      -6.170  -1.836   0.035  0.00  0.00    +0.268 A 
ATOM      7  O   UNL     1      -6.388  -0.665   0.282  0.00  0.00    -0.266 OA
ATOM      8  C   UNL     1      -7.271  -2.762  -0.302  0.00  0.00    +0.078 A 
ATOM      9  C   UNL     1      -8.585  -2.524  -0.393  0.00  0.00    +0.022 C 
ATOM     10  S   UNL     1      -6.372  -4.284  -0.554  0.00  0.00    -0.046 S 
ATOM     11  C   UNL     1      -3.688  -1.562   0.380  0.00  0.00    +0.162 C 
ATOM     12  C   UNL     1      -1.131  -4.437  -0.007  0.00  0.00    +0.066 C 
ENDROOT
BRANCH   9  13
ATOM     13  C   UNL     1      -9.121  -1.140  -0.131  0.00  0.00    +0.127 C 
ATOM     14  C   UNL     1      -9.986  -0.689  -1.287  0.00  0.00    +0.011 C 
ATOM     15  C   UNL     1     -11.218  -0.476  -0.772  0.00  0.00    -0.004 A 
ATOM     16  C   UNL     1     -12.483  -0.033  -1.371  0.00  0.00    +0.010 A 
ATOM     17  C   UNL     1     -13.575   0.090  -0.582  0.00  0.00    +0.001 A 
ATOM     18  C   UNL     1     -13.528  -0.195   0.790  0.00  0.00    +0.002 A 
ATOM     19  C   UNL     1     -12.403  -0.607   1.412  0.00  0.00    +0.026 A 
ATOM     20  C   UNL     1     -11.196  -0.771   0.679  0.00  0.00    +0.043 A 
ATOM     21  N   UNL     1      -9.995  -1.150   1.047  0.00  0.00    -0.374 N 
ATOM     22  H   UNL     1      -9.729  -1.397   1.947  0.00  0.00    +0.161 HD
ENDBRANCH   9  13
BRANCH  11  23
ATOM     23  C   UNL     1      -3.590  -0.419  -0.597  0.00  0.00    -0.020 A 
ATOM     24  C   UNL     1      -3.781  -0.647  -1.947  0.00  0.00    +0.009 A 
ATOM     25  C   UNL     1      -3.692   0.399  -2.845  0.00  0.00    +0.046 A 
ATOM     26  C   UNL     1      -3.410   1.679  -2.391  0.00  0.00    +0.121 A 
ATOM     27  C   UNL     1      -3.219   1.906  -1.036  0.00  0.00    +0.046 A 
ATOM     28  C   UNL     1      -3.315   0.857  -0.141  0.00  0.00    +0.009 A 
BRANCH  26  29
ATOM     29  O   UNL     1      -3.321   2.709  -3.273  0.00  0.00    -0.489 OA
BRANCH  29  30
ATOM     30  C   UNL     1      -3.667   2.433  -4.631  0.00  0.00    +0.167 C 
ATOM     31  C   UNL     1      -4.256   3.690  -5.274  0.00  0.00    +0.051 C 
ATOM     32  C   UNL     1      -2.414   2.006  -5.400  0.00  0.00    +0.051 C 
ENDBRANCH  29  30
ENDBRANCH  26  29
ENDBRANCH  11  23
BRANCH   1  33
ATOM     33  C   UNL     1      -1.165  -1.672   0.630  0.00  0.00    +0.339 C 
ATOM     34  O   UNL     1      -0.139  -2.321   0.727  0.00  0.00    -0.245 OA
BRANCH  33  35
ATOM     35  O   UNL     1      -1.134  -0.332   0.796  0.00  0.00    -0.462 OA
BRANCH  35  37
ATOM     36  C   UNL     1      -0.028   1.771   1.237  0.00  0.00    +0.048 C 
ATOM     37  C   UNL     1       0.135   0.258   1.083  0.00  0.00    +0.229 C 
ENDBRANCH  35  37
ENDBRANCH  33  35
ENDBRANCH   1  33
TORSDOF 7
