REMARK  Name = ZINC09402787
REMARK  5 active torsions:
REMARK  status: ('A' for Active; 'I' for Inactive)
REMARK    1  A    between atoms: C_1  and  O_2
REMARK    2  A    between atoms: O_2  and  C_3
REMARK    3  A    between atoms: C_6  and  C_9
REMARK    4  A    between atoms: C_11  and  C_24
REMARK    5  A    between atoms: C_12  and  C_17
REMARK                            x       y       z     vdW  Elec       q    Type
REMARK                         _______ _______ _______ _____ _____    ______ ____
ROOT
ATOM      1  C   UNL     1      -4.828  -2.648   0.091  0.00  0.00    +0.138 C 
ATOM      2  C   UNL     1      -5.242  -3.017   1.501  0.00  0.00    +0.041 C 
ATOM      3  C   UNL     1      -5.601  -4.306   1.737  0.00  0.00    +0.049 C 
ATOM      4  N   UNL     1      -5.586  -5.242   0.720  0.00  0.00    -0.296 N 
ATOM      5  C   UNL     1      -5.227  -4.957  -0.538  0.00  0.00    +0.135 C 
ATOM      6  S   UNL     1      -5.251  -6.208  -1.707  0.00  0.00    -0.019 S 
ATOM      7  N   UNL     1      -4.847  -3.722  -0.916  0.00  0.00    -0.315 N 
ATOM      8  H   UNL     1      -5.848  -6.152   0.929  0.00  0.00    +0.154 HD
ATOM      9  H   UNL     1      -4.592  -3.544  -1.834  0.00  0.00    +0.149 HD
ENDROOT
BRANCH   2  10
ATOM     10  C   UNL     1      -5.254  -2.020   2.570  0.00  0.00    +0.139 A 
ATOM     11  N   UNL     1      -4.523  -2.095   3.730  0.00  0.00    -0.338 N 
ATOM     12  H   UNL     1      -3.915  -2.807   3.983  0.00  0.00    +0.167 HD
ATOM     13  C   UNL     1      -4.816  -0.963   4.470  0.00  0.00    +0.066 A 
ATOM     14  C   UNL     1      -4.397  -0.488   5.704  0.00  0.00    +0.028 A 
ATOM     15  C   UNL     1      -4.887   0.709   6.182  0.00  0.00    +0.002 A 
ATOM     16  C   UNL     1      -5.799   1.444   5.438  0.00  0.00    +0.002 A 
ATOM     17  C   UNL     1      -6.228   0.989   4.212  0.00  0.00    +0.030 A 
ATOM     18  C   UNL     1      -5.740  -0.223   3.711  0.00  0.00    +0.089 A 
ATOM     19  N   UNL     1      -5.964  -0.911   2.565  0.00  0.00    -0.228 NA
ENDBRANCH   2  10
BRANCH   3  20
ATOM     20  C   UNL     1      -6.011  -4.712   3.097  0.00  0.00    -0.002 A 
ATOM     21  C   UNL     1      -6.955  -3.959   3.799  0.00  0.00    +0.010 A 
ATOM     22  C   UNL     1      -7.335  -4.343   5.067  0.00  0.00    +0.002 A 
ATOM     23  C   UNL     1      -6.784  -5.473   5.646  0.00  0.00    +0.020 A 
ATOM     24  C   UNL     1      -5.847  -6.225   4.957  0.00  0.00    +0.042 A 
ATOM     25  C   UNL     1      -5.462  -5.854   3.684  0.00  0.00    +0.029 A 
ATOM     26 CL   UNL     1      -5.161  -7.639   5.692  0.00  0.00    -0.084 Cl
ENDBRANCH   3  20
BRANCH   1  30
ATOM     27  C   UNL     1      -0.860  -1.071   0.255  0.00  0.00    +0.120 A 
ATOM     28  C   UNL     1      -1.949  -0.212   0.255  0.00  0.00    +0.046 A 
ATOM     29  C   UNL     1      -3.231  -0.725   0.201  0.00  0.00    +0.009 A 
ATOM     30  C   UNL     1      -3.429  -2.092   0.148  0.00  0.00    -0.022 A 
ATOM     31  C   UNL     1      -2.344  -2.950   0.149  0.00  0.00    +0.009 A 
ATOM     32  C   UNL     1      -1.060  -2.443   0.196  0.00  0.00    +0.046 A 
BRANCH  27  34
ATOM     33  C   UNL     1       0.533   0.852   0.366  0.00  0.00    +0.277 C 
ATOM     34  O   UNL     1       0.402  -0.570   0.307  0.00  0.00    -0.495 OA
ENDBRANCH  27  34
ENDBRANCH   1  30
TORSDOF 4
