REMARK  Name = ZINC19520775
REMARK  10 active torsions:
REMARK  status: ('A' for Active; 'I' for Inactive)
REMARK    1  A    between atoms: C_1  and  C_2
REMARK    2  A    between atoms: C_2  and  C_3
REMARK    3  A    between atoms: C_6  and  C_31
REMARK    4  A    between atoms: C_11  and  C_13
REMARK    5  A    between atoms: N_18  and  C_19
REMARK    6  A    between atoms: C_19  and  C_20
REMARK    7  A    between atoms: C_23  and  O_28
REMARK    8  A    between atoms: C_24  and  O_26
REMARK    9  A    between atoms: O_26  and  C_27
REMARK   10  A    between atoms: O_28  and  C_29
REMARK                            x       y       z     vdW  Elec       q    Type
REMARK                         _______ _______ _______ _____ _____    ______ ____
ROOT
ATOM      1  C   UNL     1      -0.799   1.616  -1.205  0.00  0.00    -0.016 C 
ATOM      2  C   UNL     1      -0.013   1.086   0.008  0.00  0.00    -0.011 C 
ATOM      3  C   UNL     1      -0.778   1.605   1.246  0.00  0.00    -0.020 C 
ATOM      4  C   UNL     1      -1.565   2.817   0.682  0.00  0.00    -0.077 C 
ATOM      5  N   UNL     1      -1.960   2.365  -0.676  0.00  0.00    +0.388 N 
ATOM      6  H   UNL     1      -2.865   1.740  -0.653  0.00  0.00    -0.080 HD
ENDROOT
BRANCH   1  13
ATOM      7  C   UNL     1      -1.968  -3.179  -4.755  0.00  0.00    +0.074 C 
ATOM      8  C   UNL     1      -3.400  -2.652  -4.605  0.00  0.00    +0.058 C 
ATOM      9  C   UNL     1      -3.595  -2.065  -3.202  0.00  0.00    +0.214 C 
ATOM     10  N   UNL     1      -2.496  -1.138  -2.918  0.00  0.00    -0.239 N 
ATOM     11  C   UNL     1      -1.313  -1.141  -3.587  0.00  0.00    +0.118 A 
ATOM     12  C   UNL     1      -0.543  -0.156  -3.075  0.00  0.00    +0.066 A 
ATOM     13  C   UNL     1      -1.273   0.464  -2.053  0.00  0.00    +0.052 A 
ATOM     14  N   UNL     1      -2.442  -0.123  -1.964  0.00  0.00    -0.176 NA
ATOM     15  N   UNL     1      -1.034  -2.044  -4.615  0.00  0.00    -0.326 N 
ATOM     16  H   UNL     1      -0.179  -1.949  -5.301  0.00  0.00    +0.148 HD
BRANCH   9  17
ATOM     17  C   UNL     1      -4.927  -1.315  -3.141  0.00  0.00    +0.412 C 
ATOM     18  F   UNL     1      -4.928  -0.288  -4.091  0.00  0.00    -0.168 F 
ATOM     19  F   UNL     1      -5.974  -2.202  -3.412  0.00  0.00    -0.168 F 
ATOM     20  F   UNL     1      -5.096  -0.769  -1.864  0.00  0.00    -0.168 F 
ENDBRANCH   9  17
BRANCH   7  22
ATOM     21  C   UNL     1      -0.409  -4.453  -6.234  0.00  0.00    +0.006 C 
ATOM     22  C   UNL     1      -1.798  -3.818  -6.134  0.00  0.00    +0.019 C 
ENDBRANCH   7  22
ENDBRANCH   1  13
BRANCH   5  23
ATOM     23  C   UNL     1      -2.285   3.509  -1.538  0.00  0.00    -0.042 C 
BRANCH  23  24
ATOM     24  C   UNL     1      -3.302   4.383  -0.850  0.00  0.00    -0.060 A 
ATOM     25  C   UNL     1      -2.883   5.414  -0.030  0.00  0.00    +0.005 A 
ATOM     26  C   UNL     1      -3.812   6.219   0.603  0.00  0.00    +0.049 A 
ATOM     27  C   UNL     1      -5.167   5.992   0.417  0.00  0.00    +0.161 A 
ATOM     28  C   UNL     1      -5.588   4.954  -0.408  0.00  0.00    +0.162 A 
ATOM     29  C   UNL     1      -4.652   4.154  -1.044  0.00  0.00    +0.051 A 
BRANCH  28  30
ATOM     30  O   UNL     1      -6.916   4.728  -0.594  0.00  0.00    -0.491 OA
ATOM     31  C   UNL     1      -7.276   3.645  -1.455  0.00  0.00    +0.277 C 
ENDBRANCH  28  30
BRANCH  27  32
ATOM     32  O   UNL     1      -6.082   6.783   1.039  0.00  0.00    -0.491 OA
ATOM     33  C   UNL     1      -5.576   7.829   1.871  0.00  0.00    +0.277 C 
ENDBRANCH  27  32
ENDBRANCH  23  24
ENDBRANCH   5  23
TORSDOF 7
