REMARK  Name = ZINC00077649
REMARK  10 active torsions:
REMARK  status: ('A' for Active; 'I' for Inactive)
REMARK    1  A    between atoms: C_1  and  C_2
REMARK    2  A    between atoms: C_3  and  C_18
REMARK    3  A    between atoms: C_4  and  C_12
REMARK    4  A    between atoms: C_6  and  C_10
REMARK    5  A    between atoms: C_7  and  N_9
REMARK    6  A    between atoms: C_18  and  O_20
REMARK    7  A    between atoms: O_20  and  C_21
REMARK    8  A    between atoms: C_21  and  C_22
REMARK    9  A    between atoms: C_21  and  C_23
REMARK   10  A    between atoms: C_21  and  C_24
REMARK                            x       y       z     vdW  Elec       q    Type
REMARK                         _______ _______ _______ _____ _____    ______ ____
ROOT
ATOM      1  C   UNL     1      -2.318   3.043  -2.389  0.00  0.00    +0.087 C 
ATOM      2  C   UNL     1      -1.621   2.585  -1.133  0.00  0.00    +0.115 C 
ATOM      3  C   UNL     1      -0.738   1.583  -1.213  0.00  0.00    +0.087 C 
ATOM      4  C   UNL     1      -0.013   1.086   0.008  0.00  0.00    +0.106 C 
ATOM      5  C   UNL     1      -0.715   1.570   1.248  0.00  0.00    +0.098 C 
ATOM      6  C   UNL     1      -1.611   2.584   1.185  0.00  0.00    +0.198 C 
ATOM      7  O   UNL     1      -1.908   3.196   0.025  0.00  0.00    -0.445 OA
ENDROOT
BRANCH   4   8
ATOM      8  C   UNL     1       1.402   1.606  -0.003  0.00  0.00    -0.016 A 
ATOM      9  C   UNL     1       2.473   0.726  -0.012  0.00  0.00    +0.007 A 
ATOM     10  C   UNL     1       3.757   1.250  -0.026  0.00  0.00    +0.020 A 
ATOM     11  C   UNL     1       3.924   2.622  -0.021  0.00  0.00    +0.111 A 
ATOM     12  N   UNL     1       2.882   3.429  -0.007  0.00  0.00    -0.263 NA
ATOM     13  C   UNL     1       1.647   2.966   0.002  0.00  0.00    +0.115 A 
ENDBRANCH   4   8
BRANCH   6  14
ATOM     14  N   UNL     1      -2.234   2.997   2.337  0.00  0.00    -0.328 N 
ATOM     15  H   UNL     1      -2.029   2.565   3.180  0.00  0.00    +0.145 HD
ATOM     16  H   UNL     1      -2.878   3.722   2.306  0.00  0.00    +0.145 HD
ENDBRANCH   6  14
BRANCH   5  17
ATOM     17  C   UNL     1      -0.431   0.953   2.509  0.00  0.00    +0.101 C 
ATOM     18  N   UNL     1      -0.207   0.463   3.509  0.00  0.00    -0.191 NA
ENDBRANCH   5  17
BRANCH   3  19
ATOM     19  C   UNL     1      -0.481   0.981  -2.469  0.00  0.00    +0.340 C 
ATOM     20  O   UNL     1      -1.062   1.375  -3.463  0.00  0.00    -0.245 OA
BRANCH  19  21
ATOM     21  O   UNL     1       0.408  -0.029  -2.563  0.00  0.00    -0.456 OA
BRANCH  21  22
ATOM     22  C   UNL     1       0.619  -0.589  -3.861  0.00  0.00    +0.106 C 
ATOM     23  C   UNL     1       1.129   0.498  -4.809  0.00  0.00    +0.055 C 
ATOM     24  C   UNL     1       1.652  -1.713  -3.770  0.00  0.00    +0.055 C 
ATOM     25  C   UNL     1      -0.701  -1.152  -4.394  0.00  0.00    +0.055 C 
ENDBRANCH  21  22
ENDBRANCH  19  21
ENDBRANCH   3  19
TORSDOF 6
