REMARK  Name = ZINC40316721
REMARK  7 active torsions:
REMARK  status: ('A' for Active; 'I' for Inactive)
REMARK    1  A    between atoms: C_1  and  C_2
REMARK    2  A    between atoms: C_5  and  S_9
REMARK    3  A    between atoms: C_7  and  N_8
REMARK    4  A    between atoms: S_9  and  N_12
REMARK    5  A    between atoms: N_12  and  C_13
REMARK    6  A    between atoms: C_13  and  C_15
REMARK    7  A    between atoms: C_13  and  C_16
REMARK                            x       y       z     vdW  Elec       q    Type
REMARK                         _______ _______ _______ _____ _____    ______ ____
ROOT
ATOM      1  S   UNL     1       0.121  -4.005   0.051  0.00  0.00    +0.059 S 
ATOM      2  O   UNL     1      -0.478  -4.487   1.246  0.00  0.00    -0.153 OA
ATOM      3  O   UNL     1      -0.491  -4.155  -1.222  0.00  0.00    -0.153 OA
ENDROOT
BRANCH   1   8
ATOM      4  C   UNL     1       1.022   1.916   0.828  0.00  0.00    +0.045 C 
ATOM      5  C   UNL     1       0.797   0.438   0.636  0.00  0.00    -0.030 A 
ATOM      6  C   UNL     1       0.688  -0.085  -0.637  0.00  0.00    +0.007 A 
ATOM      7  C   UNL     1       0.482  -1.441  -0.814  0.00  0.00    +0.029 A 
ATOM      8  C   UNL     1       0.384  -2.278   0.282  0.00  0.00    +0.107 A 
ATOM      9  C   UNL     1       0.493  -1.761   1.558  0.00  0.00    +0.051 A 
ATOM     10  C   UNL     1       0.706  -0.401   1.740  0.00  0.00    +0.029 A 
BRANCH  10  11
ATOM     11  N   UNL     1       0.822   0.124   3.029  0.00  0.00    -0.358 N 
ATOM     12  H   UNL     1       0.966   1.075   3.154  0.00  0.00    +0.142 HD
ATOM     13  H   UNL     1       0.757  -0.462   3.799  0.00  0.00    +0.142 HD
ENDBRANCH  10  11
ENDBRANCH   1   8
BRANCH   1  14
ATOM     14  N   UNL     1       1.611  -4.718  -0.052  0.00  0.00    -0.183 NA
ATOM     15  H   UNL     1       1.890  -5.142  -0.879  0.00  0.00    +0.149 HD
BRANCH  14  16
ATOM     16  C   UNL     1       2.510  -4.708   1.105  0.00  0.00    +0.104 C 
ATOM     17  C   UNL     1       2.383  -6.032   1.860  0.00  0.00    +0.031 C 
BRANCH  16  18
ATOM     18  C   UNL     1       3.931  -4.533   0.635  0.00  0.00    -0.015 A 
ATOM     19  C   UNL     1       4.299  -4.955  -0.628  0.00  0.00    +0.006 A 
ATOM     20  C   UNL     1       5.603  -4.794  -1.059  0.00  0.00    +0.000 A 
ATOM     21  C   UNL     1       6.539  -4.210  -0.226  0.00  0.00    +0.001 A 
ATOM     22  C   UNL     1       6.172  -3.787   1.037  0.00  0.00    +0.015 A 
ATOM     23  C   UNL     1       4.867  -3.943   1.467  0.00  0.00    +0.023 A 
ATOM     24 BR   UNL     1       4.362  -3.359   3.193  0.00  0.00    -0.050 Br
ENDBRANCH  16  18
ENDBRANCH  14  16
ENDBRANCH   1  14
TORSDOF 5
