REMARK  Name = ZINC39685364
REMARK  7 active torsions:
REMARK  status: ('A' for Active; 'I' for Inactive)
REMARK    1  A    between atoms: C_3  and  O_8
REMARK    2  A    between atoms: O_8  and  C_9
REMARK    3  A    between atoms: C_9  and  C_10
REMARK    4  A    between atoms: C_10  and  N_11
REMARK    5  A    between atoms: C_12  and  C_14
REMARK    6  A    between atoms: C_25  and  C_27
REMARK    7  A    between atoms: C_27  and  C_28
REMARK                            x       y       z     vdW  Elec       q    Type
REMARK                         _______ _______ _______ _____ _____    ______ ____
ROOT
ATOM      1  C   UNL     1       7.002   4.728   2.721  0.00  0.00    +0.100 C 
ATOM      2  C   UNL     1       7.076   3.764   3.927  0.00  0.00    +0.121 C 
ATOM      3  N   UNL     1       8.521   3.665   4.238  0.00  0.00    -0.300 N 
ATOM      4  C   UNL     1       9.035   5.043   4.049  0.00  0.00    +0.115 C 
ATOM      5  C   UNL     1       8.287   5.568   2.808  0.00  0.00    -0.004 C 
ATOM      6  C   UNL     1       7.943   7.044   2.983  0.00  0.00    -0.010 C 
ATOM      7  C   UNL     1       9.235   7.865   3.008  0.00  0.00    -0.082 C 
ATOM      8  N   UNL     1       9.972   7.659   1.755  0.00  0.00    +0.379 N 
ATOM      9  C   UNL     1      10.380   6.254   1.639  0.00  0.00    -0.082 C 
ATOM     10  C   UNL     1       9.136   5.365   1.556  0.00  0.00    -0.010 C 
ATOM     11  C   UNL     1       9.213   2.569   4.609  0.00  0.00    +0.220 C 
ATOM     12  O   UNL     1      10.402   2.649   4.832  0.00  0.00    -0.275 OA
ATOM     13  H   UNL     1       9.380   7.902   0.974  0.00  0.00    -0.086 HD
ATOM     14  H   UNL     1      10.791   8.248   1.747  0.00  0.00    -0.086 HD
ENDROOT
BRANCH   1  16
ATOM     15  N   UNL     1       6.357   4.472   0.347  0.00  0.00    -0.312 N 
ATOM     16  C   UNL     1       6.968   3.952   1.430  0.00  0.00    +0.218 C 
ATOM     17  O   UNL     1       7.490   2.859   1.365  0.00  0.00    -0.275 OA
ATOM     18  H   UNL     1       5.939   5.346   0.399  0.00  0.00    +0.149 HD
BRANCH  15  19
ATOM     19  C   UNL     1       6.324   3.718  -0.908  0.00  0.00    +0.145 C 
BRANCH  19  20
ATOM     20  C   UNL     1       5.576   4.527  -1.970  0.00  0.00    +0.247 C 
BRANCH  20  21
ATOM     21  O   UNL     1       6.309   5.718  -2.264  0.00  0.00    -0.490 OA
BRANCH  21  24
ATOM     22  C   UNL     1       5.897   8.579  -4.474  0.00  0.00    +0.006 A 
ATOM     23  C   UNL     1       6.437   7.729  -3.528  0.00  0.00    +0.046 A 
ATOM     24  C   UNL     1       5.778   6.555  -3.194  0.00  0.00    +0.123 A 
ATOM     25  C   UNL     1       4.578   6.236  -3.811  0.00  0.00    +0.084 A 
ATOM     26  C   UNL     1       4.040   7.089  -4.758  0.00  0.00    +0.127 A 
ATOM     27  C   UNL     1       4.700   8.261  -5.089  0.00  0.00    +0.038 A 
ATOM     28  F   UNL     1       2.871   6.780  -5.360  0.00  0.00    -0.205 F 
ENDBRANCH  21  24
ENDBRANCH  20  21
ENDBRANCH  19  20
ENDBRANCH  15  19
ENDBRANCH   1  16
BRANCH  11  29
ATOM     29  C   UNL     1       8.508   1.244   4.748  0.00  0.00    +0.131 C 
BRANCH  29  30
ATOM     30  C   UNL     1       9.499   0.190   5.171  0.00  0.00    -0.039 A 
ATOM     31  C   UNL     1      10.188  -0.533   4.215  0.00  0.00    +0.005 A 
ATOM     32  C   UNL     1      11.097  -1.500   4.603  0.00  0.00    +0.020 A 
ATOM     33  C   UNL     1      11.316  -1.744   5.947  0.00  0.00    +0.041 A 
ATOM     34  C   UNL     1      10.626  -1.020   6.902  0.00  0.00    +0.020 A 
ATOM     35  C   UNL     1       9.722  -0.050   6.514  0.00  0.00    +0.005 A 
ATOM     36 CL   UNL     1      12.457  -2.958   6.433  0.00  0.00    -0.084 Cl
ENDBRANCH  29  30
ENDBRANCH  11  29
TORSDOF 7
