REMARK  Name = ZINC13108923
REMARK  10 active torsions:
REMARK  status: ('A' for Active; 'I' for Inactive)
REMARK    1  A    between atoms: C_1  and  C_2
REMARK    2  A    between atoms: C_3  and  C_16
REMARK    3  A    between atoms: N_5  and  C_7
REMARK    4  A    between atoms: C_7  and  C_8
REMARK    5  A    between atoms: C_17  and  C_18
REMARK    6  A    between atoms: N_20  and  C_21
REMARK    7  A    between atoms: C_21  and  C_23
REMARK    8  A    between atoms: C_21  and  C_34
REMARK    9  A    between atoms: C_34  and  C_35
REMARK   10  A    between atoms: C_34  and  C_36
REMARK                            x       y       z     vdW  Elec       q    Type
REMARK                         _______ _______ _______ _____ _____    ______ ____
ROOT
ATOM      1  C   UNL     1       0.006  -0.608  -2.358  0.00  0.00    +0.237 C 
ATOM      2  O   UNL     1      -1.179  -0.334  -2.400  0.00  0.00    -0.271 OA
ATOM      3  N   UNL     1       0.688  -0.476  -1.203  0.00  0.00    -0.305 N 
ATOM      4  H   UNL     1       1.632  -0.695  -1.170  0.00  0.00    +0.150 HD
ENDROOT
BRANCH   1   6
ATOM      5  C   UNL     1      -0.014  -1.197  -4.683  0.00  0.00    +0.018 C 
ATOM      6  C   UNL     1       0.670  -1.065  -3.525  0.00  0.00    +0.068 C 
BRANCH   5   9
ATOM      7  C   UNL     1      -0.999  -3.543  -6.578  0.00  0.00    +0.068 C 
ATOM      8  C   UNL     1       0.248  -2.715  -6.746  0.00  0.00    +0.069 A 
ATOM      9  C   UNL     1       0.673  -1.671  -5.891  0.00  0.00    +0.034 A 
ATOM     10  C   UNL     1       1.864  -1.184  -6.405  0.00  0.00    +0.135 A 
ATOM     11  N   UNL     1       2.140  -1.892  -7.515  0.00  0.00    -0.248 N 
ATOM     12  N   UNL     1       1.122  -2.832  -7.707  0.00  0.00    -0.174 NA
ATOM     13 CL   UNL     1       2.822   0.103  -5.741  0.00  0.00    -0.062 Cl
BRANCH  11  14
ATOM     14  C   UNL     1       3.310  -1.709  -8.377  0.00  0.00    +0.180 C 
BRANCH  14  15
ATOM     15  C   UNL     1       4.434  -2.588  -7.892  0.00  0.00    -0.026 A 
ATOM     16  C   UNL     1       5.338  -2.104  -6.965  0.00  0.00    +0.007 A 
ATOM     17  C   UNL     1       6.366  -2.912  -6.515  0.00  0.00    +0.020 A 
ATOM     18  C   UNL     1       6.497  -4.200  -7.002  0.00  0.00    +0.041 A 
ATOM     19  C   UNL     1       5.595  -4.681  -7.935  0.00  0.00    +0.020 A 
ATOM     20  C   UNL     1       4.564  -3.875  -8.379  0.00  0.00    +0.007 A 
ATOM     21 CL   UNL     1       7.791  -5.213  -6.443  0.00  0.00    -0.084 Cl
ENDBRANCH  14  15
ENDBRANCH  11  14
ENDBRANCH   5   9
ENDBRANCH   1   6
BRANCH   3  22
ATOM     22  C   UNL     1       0.002  -0.004   0.002  0.00  0.00    +0.106 C 
BRANCH  22  23
ATOM     23  C   UNL     1       0.731  -0.503   1.223  0.00  0.00    -0.023 A 
ATOM     24  C   UNL     1       2.113  -0.518   1.242  0.00  0.00    +0.009 A 
ATOM     25  C   UNL     1       2.789  -0.975   2.359  0.00  0.00    +0.050 A 
ATOM     26  C   UNL     1       2.075  -1.418   3.460  0.00  0.00    +0.162 A 
ATOM     27  C   UNL     1       0.688  -1.403   3.441  0.00  0.00    +0.162 A 
ATOM     28  C   UNL     1       0.015  -0.940   2.323  0.00  0.00    +0.055 A 
ATOM     29  O   UNL     1      -0.006  -1.842   4.530  0.00  0.00    -0.488 OA
ATOM     30  C   UNL     1       0.091  -1.029   5.702  0.00  0.00    +0.232 C 
ATOM     31  C   UNL     1       1.339  -1.377   6.497  0.00  0.00    +0.082 C 
ATOM     32  C   UNL     1       2.617  -1.057   5.737  0.00  0.00    +0.232 C 
ATOM     33  O   UNL     1       2.730  -1.872   4.569  0.00  0.00    -0.488 OA
ENDBRANCH  22  23
BRANCH  22  34
ATOM     34  C   UNL     1      -0.019   1.526   0.010  0.00  0.00    +0.008 C 
ATOM     35  C   UNL     1      -0.759   2.033  -1.229  0.00  0.00    +0.009 C 
ATOM     36  C   UNL     1      -0.735   2.019   1.269  0.00  0.00    +0.009 C 
ENDBRANCH  22  34
ENDBRANCH   3  22
TORSDOF 7
