REMARK  Name = ZINC21222143
REMARK  8 active torsions:
REMARK  status: ('A' for Active; 'I' for Inactive)
REMARK    1  A    between atoms: C_1  and  C_2
REMARK    2  A    between atoms: C_2  and  O_3
REMARK    3  A    between atoms: O_3  and  C_4
REMARK    4  A    between atoms: C_6  and  C_14
REMARK    5  A    between atoms: C_9  and  O_10
REMARK    6  A    between atoms: O_10  and  C_11
REMARK    7  A    between atoms: C_11  and  C_13
REMARK    8  A    between atoms: C_19  and  C_24
REMARK                            x       y       z     vdW  Elec       q    Type
REMARK                         _______ _______ _______ _____ _____    ______ ____
ROOT
ATOM      1  C   UNL     1       2.018  -0.557  -1.340  0.00  0.00    +0.136 C 
ATOM      2  C   UNL     1       2.525   0.836  -1.637  0.00  0.00    +0.036 C 
ATOM      3  C   UNL     1       2.135   1.963  -1.022  0.00  0.00    +0.017 C 
ATOM      4  C   UNL     1       2.695   3.308  -1.460  0.00  0.00    +0.059 C 
ATOM      5  C   UNL     1       4.141   3.141  -1.925  0.00  0.00    +0.032 C 
ATOM      6  C   UNL     1       4.142   2.161  -3.104  0.00  0.00    +0.088 C 
ATOM      7  C   UNL     1       3.497   0.881  -2.664  0.00  0.00    +0.163 C 
ATOM      8  O   UNL     1       3.822  -0.155  -3.209  0.00  0.00    -0.292 OA
ATOM      9  N   UNL     1       1.236   2.031  -0.007  0.00  0.00    -0.316 N 
ATOM     10  C   UNL     1       0.003   1.387   0.003  0.00  0.00    +0.052 A 
ATOM     11  C   UNL     1      -1.194   2.080   0.044  0.00  0.00    +0.025 A 
ATOM     12  C   UNL     1      -2.384   1.376   0.115  0.00  0.00    +0.002 A 
ATOM     13  C   UNL     1      -2.374  -0.007   0.146  0.00  0.00    +0.002 A 
ATOM     14  C   UNL     1      -1.178  -0.701   0.088  0.00  0.00    +0.025 A 
ATOM     15  C   UNL     1       0.015   0.000  -0.002  0.00  0.00    +0.049 A 
ATOM     16  N   UNL     1       1.235  -0.659  -0.127  0.00  0.00    -0.331 N 
ATOM     17  H   UNL     1       1.462   2.628   0.889  0.00  0.00    +0.152 HD
ATOM     18  H   UNL     1       1.601  -1.265   0.715  0.00  0.00    +0.147 HD
ENDROOT
BRANCH   5  19
ATOM     19  C   UNL     1       4.692   4.472  -2.366  0.00  0.00    -0.043 A 
ATOM     20  C   UNL     1       4.093   5.157  -3.407  0.00  0.00    +0.005 A 
ATOM     21  C   UNL     1       4.595   6.381  -3.809  0.00  0.00    +0.020 A 
ATOM     22  C   UNL     1       5.703   6.915  -3.176  0.00  0.00    +0.041 A 
ATOM     23  C   UNL     1       6.306   6.226  -2.138  0.00  0.00    +0.020 A 
ATOM     24  C   UNL     1       5.800   5.005  -1.734  0.00  0.00    +0.005 A 
ATOM     25 CL   UNL     1       6.339   8.448  -3.685  0.00  0.00    -0.084 Cl
ENDBRANCH   5  19
BRANCH   1  28
ATOM     26  C   UNL     1       0.798  -2.509  -4.336  0.00  0.00    +0.163 A 
ATOM     27  C   UNL     1       1.577  -2.087  -3.270  0.00  0.00    +0.055 A 
ATOM     28  C   UNL     1       1.170  -1.015  -2.498  0.00  0.00    -0.019 A 
ATOM     29  C   UNL     1      -0.018  -0.366  -2.783  0.00  0.00    +0.009 A 
ATOM     30  C   UNL     1      -0.797  -0.778  -3.847  0.00  0.00    +0.050 A 
ATOM     31  C   UNL     1      -0.394  -1.852  -4.625  0.00  0.00    +0.173 A 
BRANCH  26  32
ATOM     32  O   UNL     1       1.197  -3.563  -5.096  0.00  0.00    -0.489 OA
BRANCH  32  34
ATOM     33  C   UNL     1       2.712  -5.346  -5.701  0.00  0.00    +0.048 C 
ATOM     34  C   UNL     1       2.431  -4.189  -4.740  0.00  0.00    +0.226 C 
ENDBRANCH  32  34
ENDBRANCH  26  32
BRANCH  31  35
ATOM     35  O   UNL     1      -1.162  -2.263  -5.670  0.00  0.00    -0.422 OA
BRANCH  35  36
ATOM     36  C   UNL     1      -2.022  -3.267  -5.436  0.00  0.00    +0.309 C 
ATOM     37  O   UNL     1      -2.154  -3.701  -4.316  0.00  0.00    -0.251 OA
ATOM     38  C   UNL     1      -2.822  -3.854  -6.570  0.00  0.00    +0.136 C 
ENDBRANCH  35  36
ENDBRANCH  31  35
ENDBRANCH   1  28
TORSDOF 6
