REMARK  Name = ZINC11786378
REMARK  8 active torsions:
REMARK  status: ('A' for Active; 'I' for Inactive)
REMARK    1  A    between atoms: C_1  and  C_2
REMARK    2  A    between atoms: C_3  and  C_4
REMARK    3  A    between atoms: C_4  and  N_5
REMARK    4  A    between atoms: C_8  and  C_12
REMARK    5  A    between atoms: C_8  and  C_20
REMARK    6  A    between atoms: C_12  and  C_13
REMARK    7  A    between atoms: C_25  and  C_26
REMARK    8  A    between atoms: C_25  and  N_66
REMARK                            x       y       z     vdW  Elec       q    Type
REMARK                         _______ _______ _______ _____ _____    ______ ____
ROOT
ATOM      1  N   UNL     1       5.942  -3.112  -6.047  0.00  0.00    -0.212 N 
ATOM      2  C   UNL     1       5.093  -2.116  -5.724  0.00  0.00    +0.248 C 
ATOM      3  O   UNL     1       3.882  -2.143  -5.769  0.00  0.00    -0.273 OA
ATOM      4  C   UNL     1       5.968  -0.956  -5.292  0.00  0.00    +0.119 C 
ATOM      5  N   UNL     1       7.337  -1.482  -5.436  0.00  0.00    -0.284 N 
ATOM      6  C   UNL     1       7.218  -2.746  -5.881  0.00  0.00    +0.310 C 
ATOM      7  O   UNL     1       8.165  -3.474  -6.108  0.00  0.00    -0.252 OA
ATOM      8  H   UNL     1       8.162  -1.010  -5.246  0.00  0.00    +0.151 HD
ENDROOT
BRANCH   4   9
ATOM      9  C   UNL     1       5.686  -0.582  -3.836  0.00  0.00    +0.018 C 
ATOM     10  C   UNL     1       5.838  -1.821  -2.950  0.00  0.00    -0.013 C 
ATOM     11  C   UNL     1       5.496  -1.454  -1.504  0.00  0.00    -0.078 C 
ATOM     12  C   UNL     1       3.960   0.268  -2.244  0.00  0.00    -0.078 C 
ATOM     13  C   UNL     1       4.256  -0.048  -3.712  0.00  0.00    -0.013 C 
ATOM     14  N   UNL     1       4.101  -0.971  -1.449  0.00  0.00    +0.382 N 
ATOM     15  H   UNL     1       3.483  -1.690  -1.842  0.00  0.00    -0.081 HD
BRANCH  14  16
ATOM     16  C   UNL     1       3.709  -0.717  -0.047  0.00  0.00    -0.043 C 
BRANCH  16  17
ATOM     17  C   UNL     1       2.397   0.024  -0.026  0.00  0.00    -0.060 A 
ATOM     18  C   UNL     1       1.207  -0.680  -0.016  0.00  0.00    +0.005 A 
ATOM     19  C   UNL     1       0.002  -0.004   0.002  0.00  0.00    +0.049 A 
ATOM     20  C   UNL     1      -0.017   1.383   0.010  0.00  0.00    +0.162 A 
ATOM     21  C   UNL     1       1.179   2.090   0.002  0.00  0.00    +0.162 A 
ATOM     22  C   UNL     1       2.386   1.406  -0.017  0.00  0.00    +0.051 A 
ATOM     23  O   UNL     1       1.184   3.451   0.018  0.00  0.00    -0.485 OA
ATOM     24  C   UNL     1      -0.040   4.103  -0.340  0.00  0.00    +0.270 C 
ATOM     25  C   UNL     1      -1.189   3.413   0.408  0.00  0.00    +0.270 C 
ATOM     26  O   UNL     1      -1.212   2.035   0.019  0.00  0.00    -0.485 OA
ENDBRANCH  16  17
ENDBRANCH  14  16
ENDBRANCH   4   9
BRANCH   1  27
ATOM     27  C   UNL     1       5.519  -4.431  -6.522  0.00  0.00    +0.206 C 
BRANCH  27  30
ATOM     28  C   UNL     1       5.234  -4.385 -10.630  0.00  0.00    +0.106 C 
ATOM     29  C   UNL     1       5.336  -4.401  -9.162  0.00  0.00    -0.104 C 
ATOM     30  C   UNL     1       5.417  -4.415  -7.991  0.00  0.00    -0.083 C 
ENDBRANCH  27  30
ENDBRANCH   1  27
BRANCH   4  31
ATOM     31  C   UNL     1       5.754   0.251  -6.208  0.00  0.00    +0.070 C 
BRANCH  31  32
ATOM     32  C   UNL     1       6.038  -0.144  -7.634  0.00  0.00    -0.042 A 
ATOM     33  C   UNL     1       5.021  -0.638  -8.430  0.00  0.00    +0.004 A 
ATOM     34  C   UNL     1       5.281  -1.000  -9.739  0.00  0.00    +0.003 A 
ATOM     35  C   UNL     1       6.557  -0.870 -10.252  0.00  0.00    +0.038 A 
ATOM     36  C   UNL     1       7.576  -0.376  -9.456  0.00  0.00    +0.124 A 
ATOM     37  C   UNL     1       7.314  -0.008  -8.147  0.00  0.00    +0.042 A 
ATOM     38  F   UNL     1       8.824  -0.247  -9.957  0.00  0.00    -0.205 F 
ENDBRANCH  31  32
ENDBRANCH   4  31
TORSDOF 7
