REMARK  Name = ZINC16862715
REMARK  8 active torsions:
REMARK  status: ('A' for Active; 'I' for Inactive)
REMARK    1  A    between atoms: C_2  and  C_3
REMARK    2  A    between atoms: C_3  and  N_4
REMARK    3  A    between atoms: C_5  and  C_25
REMARK    4  A    between atoms: C_8  and  S_9
REMARK    5  A    between atoms: S_9  and  C_10
REMARK    6  A    between atoms: C_10  and  C_11
REMARK    7  A    between atoms: N_13  and  C_14
REMARK    8  A    between atoms: C_15  and  C_22
REMARK                            x       y       z     vdW  Elec       q    Type
REMARK                         _______ _______ _______ _____ _____    ______ ____
ROOT
ATOM      1  C   UNL     1       0.357   5.312   2.624  0.00  0.00    +0.173 C 
ENDROOT
BRANCH   1   2
ATOM      2  C   UNL     1       1.301   6.475   2.458  0.00  0.00    +0.228 C 
ATOM      3  O   UNL     1       2.123   6.467   1.566  0.00  0.00    -0.275 OA
ATOM      4  N   UNL     1       1.232   7.524   3.302  0.00  0.00    -0.279 N 
ATOM      5  H   UNL     1       0.575   7.530   4.016  0.00  0.00    +0.155 HD
BRANCH   4   6
ATOM      6  C   UNL     1       2.101   8.594   3.150  0.00  0.00    +0.084 A 
ATOM      7  C   UNL     1       2.180   9.752   3.905  0.00  0.00    +0.068 A 
ATOM      8  C   UNL     1       3.199  10.733   3.534  0.00  0.00    -0.023 A 
ATOM      9  C   UNL     1       3.955  10.399   2.474  0.00  0.00    -0.004 A 
ATOM     10  S   UNL     1       3.345   8.810   1.966  0.00  0.00    -0.077 S 
ATOM     11  C   UNL     1       4.976  11.457   2.153  0.00  0.00    +0.043 C 
ATOM     12  C   UNL     1       5.052  12.324   3.428  0.00  0.00    +0.010 C 
ATOM     13  C   UNL     1       3.656  12.101   4.043  0.00  0.00    +0.037 C 
BRANCH   7  14
ATOM     14  C   UNL     1       1.278   9.984   5.037  0.00  0.00    +0.244 C 
ATOM     15  O   UNL     1       1.593   9.613   6.152  0.00  0.00    -0.270 OA
ATOM     16  N   UNL     1       0.100  10.608   4.843  0.00  0.00    -0.325 N 
ATOM     17  H   UNL     1      -0.152  10.904   3.954  0.00  0.00    +0.145 HD
ATOM     18  H   UNL     1      -0.497  10.762   5.592  0.00  0.00    +0.145 HD
ENDBRANCH   7  14
ENDBRANCH   4   6
ENDBRANCH   1   2
BRANCH   1  19
ATOM     19  S   UNL     1       0.697   4.074   1.348  0.00  0.00    -0.077 S 
BRANCH  19  24
ATOM     20  N   UNL     1      -0.728   1.677   1.127  0.00  0.00    -0.298 N 
ATOM     21  C   UNL     1      -1.760   1.070   1.805  0.00  0.00    +0.165 A 
ATOM     22  N   UNL     1      -2.112   1.880   2.776  0.00  0.00    -0.128 NA
ATOM     23  N   UNL     1      -1.381   2.937   2.752  0.00  0.00    -0.122 NA
ATOM     24  C   UNL     1      -0.514   2.864   1.767  0.00  0.00    +0.193 A 
BRANCH  21  25
ATOM     25  C   UNL     1      -2.359  -0.247   1.498  0.00  0.00    +0.019 A 
ATOM     26  C   UNL     1      -2.195  -0.814   0.233  0.00  0.00    +0.013 A 
ATOM     27  C   UNL     1      -2.752  -2.044  -0.045  0.00  0.00    +0.021 A 
ATOM     28  C   UNL     1      -3.482  -2.712   0.923  0.00  0.00    +0.041 A 
ATOM     29  C   UNL     1      -3.653  -2.152   2.178  0.00  0.00    +0.021 A 
ATOM     30  C   UNL     1      -3.096  -0.925   2.470  0.00  0.00    +0.013 A 
ATOM     31 CL   UNL     1      -4.185  -4.258   0.563  0.00  0.00    -0.084 Cl
ENDBRANCH  21  25
BRANCH  20  32
ATOM     32  C   UNL     1      -0.005   1.155  -0.036  0.00  0.00    +0.152 C 
BRANCH  32  34
ATOM     33  C   UNL     1      -0.984   0.916  -2.260  0.00  0.00    +0.005 C 
ATOM     34  C   UNL     1      -0.607   1.720  -1.297  0.00  0.00    -0.013 C 
ENDBRANCH  32  34
ENDBRANCH  20  32
ENDBRANCH  19  24
ENDBRANCH   1  19
TORSDOF 8
