REMARK  Name = ZINC37004717
REMARK  10 active torsions:
REMARK  status: ('A' for Active; 'I' for Inactive)
REMARK    1  A    between atoms: C_1  and  C_2
REMARK    2  A    between atoms: C_2  and  C_3
REMARK    3  A    between atoms: C_2  and  C_4
REMARK    4  A    between atoms: C_2  and  N_11
REMARK    5  A    between atoms: C_12  and  C_14
REMARK    6  A    between atoms: C_14  and  C_16
REMARK    7  A    between atoms: C_14  and  N_22
REMARK    8  A    between atoms: C_16  and  C_17
REMARK    9  A    between atoms: C_17  and  S_18
REMARK   10  A    between atoms: S_18  and  C_21
REMARK                            x       y       z     vdW  Elec       q    Type
REMARK                         _______ _______ _______ _____ _____    ______ ____
ROOT
ATOM      1  N   UNL     1       0.556  -0.272  -1.328  0.00  0.00    -0.308 N 
ATOM      2  C   UNL     1       1.849   0.006  -1.588  0.00  0.00    +0.199 C 
ATOM      3  O   UNL     1       2.554   0.478  -0.721  0.00  0.00    -0.278 OA
ATOM      4  H   UNL     1      -0.008  -0.650  -2.021  0.00  0.00    +0.149 HD
ENDROOT
BRANCH   1   6
ATOM      5  C   UNL     1       0.156   1.483   0.328  0.00  0.00    +0.036 C 
ATOM      6  C   UNL     1       0.002  -0.004   0.002  0.00  0.00    +0.054 C 
ATOM      7  C   UNL     1       0.753  -0.835   1.044  0.00  0.00    +0.036 C 
BRANCH   6   8
ATOM      8  C   UNL     1      -1.459  -0.374   0.022  0.00  0.00    -0.025 A 
ATOM      9  C   UNL     1      -2.073  -0.699   1.217  0.00  0.00    +0.007 A 
ATOM     10  C   UNL     1      -3.413  -1.039   1.236  0.00  0.00    +0.015 A 
ATOM     11  C   UNL     1      -4.139  -1.053   0.059  0.00  0.00    +0.018 A 
ATOM     12  C   UNL     1      -3.524  -0.728  -1.137  0.00  0.00    +0.015 A 
ATOM     13  C   UNL     1      -2.185  -0.384  -1.154  0.00  0.00    +0.007 A 
ATOM     14 BR   UNL     1      -5.971  -1.518   0.084  0.00  0.00    -0.050 Br
ENDBRANCH   6   8
ENDBRANCH   1   6
BRANCH   2  15
ATOM     15  C   UNL     1       2.418  -0.270  -2.955  0.00  0.00    +0.014 C 
BRANCH  15  16
ATOM     16  N   UNL     1       3.882  -0.349  -2.869  0.00  0.00    +0.386 N 
ATOM     17  H   UNL     1       4.143  -1.093  -2.240  0.00  0.00    -0.089 HD
ATOM     18  H   UNL     1       4.264  -0.534  -3.785  0.00  0.00    -0.089 HD
ATOM     19  H   UNL     1       4.247   0.526  -2.524  0.00  0.00    -0.089 HD
ENDBRANCH  15  16
BRANCH  15  20
ATOM     20  C   UNL     1       2.023   0.859  -3.910  0.00  0.00    +0.015 C 
BRANCH  20  21
ATOM     21  C   UNL     1       2.494   0.518  -5.325  0.00  0.00    +0.164 C 
BRANCH  21  22
ATOM     22  S   UNL     1       2.026   1.857  -6.456  0.00  0.00    -0.034 S 
ATOM     23  O   UNL     1       0.608   1.909  -6.529  0.00  0.00    -0.175 OA
ATOM     24  O   UNL     1       2.742   3.028  -6.088  0.00  0.00    -0.175 OA
ATOM     25  C   UNL     1       2.662   1.274  -8.052  0.00  0.00    +0.194 C 
ENDBRANCH  21  22
ENDBRANCH  20  21
ENDBRANCH  15  20
ENDBRANCH   2  15
TORSDOF 7
