REMARK  Name = ZINC26123941
REMARK  14 active torsions:
REMARK  status: ('A' for Active; 'I' for Inactive)
REMARK    1  A    between atoms: C_1  and  C_2
REMARK    2  A    between atoms: C_2  and  C_4
REMARK    3  A    between atoms: C_2  and  S_15
REMARK    4  A    between atoms: N_6  and  C_7
REMARK    5  A    between atoms: C_7  and  C_13
REMARK    6  A    between atoms: S_15  and  C_16
REMARK    7  A    between atoms: C_19  and  C_22
REMARK    8  A    between atoms: N_20  and  N_21
REMARK    9  A    between atoms: C_22  and  O_23
REMARK   10  A    between atoms: O_23  and  C_24
REMARK   11  A    between atoms: C_27  and  C_30
REMARK   12  A    between atoms: C_30  and  C_31
REMARK   13  A    between atoms: C_30  and  C_32
REMARK   14  A    between atoms: C_30  and  C_33
REMARK                            x       y       z     vdW  Elec       q    Type
REMARK                         _______ _______ _______ _____ _____    ______ ____
ROOT
ATOM      1  C   UNL     1       2.533  -0.042   1.241  0.00  0.00    +0.209 A 
ATOM      2  N   UNL     1       2.985   0.657   0.225  0.00  0.00    -0.121 NA
ATOM      3  N   UNL     1       4.239   0.893   0.382  0.00  0.00    -0.128 NA
ATOM      4  C   UNL     1       4.658   0.365   1.497  0.00  0.00    +0.189 A 
ATOM      5  N   UNL     1       3.585  -0.245   2.087  0.00  0.00    -0.225 N 
ENDROOT
BRANCH   5   6
ATOM      6  N   UNL     1       3.571  -0.920   3.274  0.00  0.00    -0.295 N 
ATOM      7  H   UNL     1       3.776  -1.898   3.137  0.00  0.00    +0.163 HD
ATOM      8  H   UNL     1       4.211  -0.505   3.934  0.00  0.00    +0.163 HD
ENDBRANCH   5   6
BRANCH   1   9
ATOM      9  S   UNL     1       0.879  -0.605   1.472  0.00  0.00    -0.072 S 
BRANCH   9  11
ATOM     10  C   UNL     1      -0.019   1.526   0.010  0.00  0.00    +0.029 C 
ATOM     11  C   UNL     1       0.002  -0.004   0.002  0.00  0.00    +0.137 C 
BRANCH  11  12
ATOM     12  C   UNL     1      -1.412  -0.526   0.013  0.00  0.00    +0.227 C 
ATOM     13  O   UNL     1      -1.939  -0.827   1.062  0.00  0.00    -0.275 OA
ATOM     14  N   UNL     1      -2.090  -0.657  -1.144  0.00  0.00    -0.296 N 
ATOM     15  H   UNL     1      -1.669  -0.416  -1.984  0.00  0.00    +0.150 HD
BRANCH  14  16
ATOM     16  C   UNL     1      -3.465  -1.164  -1.134  0.00  0.00    +0.121 C 
ATOM     17  C   UNL     1      -4.344  -0.237  -0.293  0.00  0.00    +0.041 C 
ATOM     18  C   UNL     1      -5.779  -0.766  -0.282  0.00  0.00    +0.003 C 
ATOM     19  C   UNL     1      -6.315  -0.817  -1.714  0.00  0.00    +0.000 C 
ATOM     20  C   UNL     1      -5.436  -1.745  -2.555  0.00  0.00    +0.003 C 
ATOM     21  C   UNL     1      -4.000  -1.215  -2.566  0.00  0.00    +0.041 C 
BRANCH  16  22
ATOM     22  C   UNL     1      -3.484  -2.517  -0.554  0.00  0.00    +0.088 C 
ATOM     23  N   UNL     1      -3.499  -3.562  -0.107  0.00  0.00    -0.194 NA
ENDBRANCH  16  22
ENDBRANCH  14  16
ENDBRANCH  11  12
ENDBRANCH   9  11
ENDBRANCH   1   9
BRANCH   4  24
ATOM     24  C   UNL     1       6.063   0.421   2.039  0.00  0.00    +0.306 C 
BRANCH  24  25
ATOM     25  O   UNL     1       6.210   1.579   2.863  0.00  0.00    -0.484 OA
BRANCH  25  26
ATOM     26  C   UNL     1       7.427   1.780   3.434  0.00  0.00    +0.121 A 
ATOM     27  C   UNL     1       8.460   0.883   3.201  0.00  0.00    +0.046 A 
ATOM     28  C   UNL     1       9.696   1.090   3.782  0.00  0.00    +0.008 A 
ATOM     29  C   UNL     1       9.904   2.188   4.596  0.00  0.00    -0.042 A 
ATOM     30  C   UNL     1       8.876   3.083   4.830  0.00  0.00    +0.008 A 
ATOM     31  C   UNL     1       7.639   2.884   4.246  0.00  0.00    +0.046 A 
BRANCH  29  32
ATOM     32  C   UNL     1      11.253   2.411   5.229  0.00  0.00    -0.013 C 
ATOM     33  C   UNL     1      12.312   2.555   4.134  0.00  0.00    +0.015 C 
ATOM     34  C   UNL     1      11.216   3.686   6.074  0.00  0.00    +0.015 C 
ATOM     35  C   UNL     1      11.601   1.218   6.121  0.00  0.00    +0.015 C 
ENDBRANCH  29  32
ENDBRANCH  25  26
ENDBRANCH  24  25
ENDBRANCH   4  24
TORSDOF 10
