REMARK  Name = ZINC15236604
REMARK  10 active torsions:
REMARK  status: ('A' for Active; 'I' for Inactive)
REMARK    1  A    between atoms: C_1  and  C_2
REMARK    2  A    between atoms: C_2  and  C_27
REMARK    3  A    between atoms: N_5  and  C_9
REMARK    4  A    between atoms: C_9  and  C_10
REMARK    5  A    between atoms: C_10  and  C_12
REMARK    6  A    between atoms: C_10  and  O_26
REMARK    7  A    between atoms: C_12  and  O_13
REMARK    8  A    between atoms: O_13  and  C_14
REMARK    9  A    between atoms: C_17  and  C_20
REMARK   10  A    between atoms: C_30  and  N_33
REMARK                            x       y       z     vdW  Elec       q    Type
REMARK                         _______ _______ _______ _____ _____    ______ ____
ROOT
ATOM      1  C   UNL     1      -0.698   2.034   1.278  0.00  0.00    +0.047 C 
ATOM      2  C   UNL     1      -0.018   1.512   0.010  0.00  0.00    +0.135 C 
ATOM      3  C   UNL     1       0.002  -0.004   0.002  0.00  0.00    +0.251 C 
ATOM      4  O   UNL     1      -0.954  -0.749   0.008  0.00  0.00    -0.272 OA
ATOM      5  N   UNL     1       1.304  -0.351  -0.012  0.00  0.00    -0.221 N 
ATOM      6  C   UNL     1       2.101   0.724  -0.014  0.00  0.00    +0.310 C 
ATOM      7  O   UNL     1       3.315   0.665  -0.026  0.00  0.00    -0.252 OA
ATOM      8  N   UNL     1       1.409   1.877  -0.001  0.00  0.00    -0.281 N 
ATOM      9  H   UNL     1       1.777   2.775  -0.000  0.00  0.00    +0.152 HD
ENDROOT
BRANCH   2  10
ATOM     10  C   UNL     1      -0.711   2.039  -1.220  0.00  0.00    -0.015 A 
ATOM     11  C   UNL     1      -1.712   1.299  -1.820  0.00  0.00    +0.008 A 
ATOM     12  C   UNL     1      -2.351   1.785  -2.946  0.00  0.00    +0.033 A 
ATOM     13  C   UNL     1      -1.981   3.007  -3.477  0.00  0.00    +0.126 A 
ATOM     14  C   UNL     1      -0.977   3.745  -2.879  0.00  0.00    +0.033 A 
ATOM     15  C   UNL     1      -0.342   3.261  -1.750  0.00  0.00    +0.008 A 
BRANCH  13  16
ATOM     16  N   UNL     1      -2.661   3.525  -4.685  0.00  0.00    +0.056 N 
ATOM     17  O   UNL     1      -2.335   4.601  -5.153  0.00  0.00    -0.126 OA
ATOM     18  O   UNL     1      -3.546   2.874  -5.212  0.00  0.00    -0.126 OA
ENDBRANCH  13  16
ENDBRANCH   2  10
BRANCH   5  19
ATOM     19  C   UNL     1       1.788  -1.734  -0.025  0.00  0.00    +0.152 C 
BRANCH  19  20
ATOM     20  C   UNL     1       1.942  -2.206  -1.472  0.00  0.00    +0.170 C 
BRANCH  20  21
ATOM     21  O   UNL     1       2.964  -1.443  -2.116  0.00  0.00    -0.387 OA
ATOM     22  H   UNL     1       3.833  -1.516  -1.697  0.00  0.00    +0.210 HD
ENDBRANCH  20  21
BRANCH  20  23
ATOM     23  C   UNL     1       2.327  -3.687  -1.486  0.00  0.00    +0.261 C 
BRANCH  23  24
ATOM     24  O   UNL     1       2.358  -4.158  -2.835  0.00  0.00    -0.489 OA
BRANCH  24  25
ATOM     25  C   UNL     1       2.685  -5.463  -3.025  0.00  0.00    +0.121 A 
ATOM     26  C   UNL     1       2.975  -6.271  -1.934  0.00  0.00    +0.046 A 
ATOM     27  C   UNL     1       3.301  -7.597  -2.123  0.00  0.00    +0.012 A 
ATOM     28  C   UNL     1       3.351  -8.124  -3.413  0.00  0.00    -0.018 A 
ATOM     29  C   UNL     1       3.064  -7.309  -4.507  0.00  0.00    +0.012 A 
ATOM     30  C   UNL     1       2.733  -5.985  -4.311  0.00  0.00    +0.046 A 
BRANCH  28  31
ATOM     31  C   UNL     1       3.708  -9.549  -3.621  0.00  0.00    -0.018 A 
ATOM     32  C   UNL     1       3.752 -10.078  -4.909  0.00  0.00    +0.008 A 
ATOM     33  C   UNL     1       4.090 -11.403  -5.097  0.00  0.00    +0.001 A 
ATOM     34  C   UNL     1       4.373 -12.208  -4.008  0.00  0.00    +0.000 A 
ATOM     35  C   UNL     1       4.326 -11.690  -2.727  0.00  0.00    +0.001 A 
ATOM     36  C   UNL     1       3.995 -10.365  -2.528  0.00  0.00    +0.008 A 
ENDBRANCH  28  31
ENDBRANCH  24  25
ENDBRANCH  23  24
ENDBRANCH  20  23
ENDBRANCH  19  20
ENDBRANCH   5  19
TORSDOF 9
