REMARK  Name = ZINC40168289
REMARK  13 active torsions:
REMARK  status: ('A' for Active; 'I' for Inactive)
REMARK    1  A    between atoms: C_1  and  C_2
REMARK    2  A    between atoms: C_3  and  C_38
REMARK    3  A    between atoms: C_5  and  N_10
REMARK    4  A    between atoms: C_6  and  C_7
REMARK    5  A    between atoms: C_11  and  C_13
REMARK    6  A    between atoms: C_13  and  C_15
REMARK    7  A    between atoms: C_13  and  O_16
REMARK    8  A    between atoms: O_16  and  C_17
REMARK    9  A    between atoms: C_27  and  C_28
REMARK   10  A    between atoms: C_31  and  C_34
REMARK   11  A    between atoms: C_34  and  C_35
REMARK   12  A    between atoms: C_34  and  C_36
REMARK   13  A    between atoms: C_34  and  C_37
REMARK                            x       y       z     vdW  Elec       q    Type
REMARK                         _______ _______ _______ _____ _____    ______ ____
ROOT
ATOM      1  C   UNL     1       1.019  -7.116   3.222  0.00  0.00    +0.212 A 
ATOM      2  C   UNL     1       1.336  -8.461   2.901  0.00  0.00    +0.235 A 
ATOM      3  O   UNL     1       1.042  -8.941   1.818  0.00  0.00    -0.283 OA
ATOM      4  C   UNL     1       2.037  -9.256   3.927  0.00  0.00    +0.068 A 
ATOM      5  C   UNL     1       2.389 -10.586   3.699  0.00  0.00    +0.015 A 
ATOM      6  C   UNL     1       3.042 -11.294   4.682  0.00  0.00    +0.001 A 
ATOM      7  C   UNL     1       3.349 -10.691   5.893  0.00  0.00    +0.004 A 
ATOM      8  C   UNL     1       3.007  -9.377   6.131  0.00  0.00    +0.047 A 
ATOM      9  C   UNL     1       2.347  -8.644   5.152  0.00  0.00    +0.140 A 
ATOM     10  O   UNL     1       2.005  -7.357   5.366  0.00  0.00    -0.451 OA
ATOM     11  C   UNL     1       1.371  -6.618   4.440  0.00  0.00    +0.181 A 
ENDROOT
BRANCH  11  12
ATOM     12  C   UNL     1       1.040  -5.215   4.757  0.00  0.00    +0.021 A 
ATOM     13  C   UNL     1      -0.244  -4.723   4.505  0.00  0.00    +0.012 A 
ATOM     14  C   UNL     1      -0.547  -3.411   4.803  0.00  0.00    +0.005 A 
ATOM     15  C   UNL     1       0.417  -2.582   5.350  0.00  0.00    -0.042 A 
ATOM     16  C   UNL     1       1.690  -3.062   5.602  0.00  0.00    +0.005 A 
ATOM     17  C   UNL     1       2.006  -4.374   5.315  0.00  0.00    +0.012 A 
BRANCH  15  18
ATOM     18  C   UNL     1       0.078  -1.149   5.672  0.00  0.00    -0.013 C 
ATOM     19  C   UNL     1      -0.978  -1.111   6.778  0.00  0.00    +0.015 C 
ATOM     20  C   UNL     1       1.338  -0.422   6.145  0.00  0.00    +0.015 C 
ATOM     21  C   UNL     1      -0.469  -0.461   4.420  0.00  0.00    +0.015 C 
ENDBRANCH  15  18
ENDBRANCH  11  12
BRANCH   1  22
ATOM     22  O   UNL     1       0.373  -6.329   2.319  0.00  0.00    -0.473 OA
BRANCH  22  23
ATOM     23  C   UNL     1       1.079  -6.004   1.120  0.00  0.00    +0.256 C 
ATOM     24  C   UNL     1       1.960  -4.777   1.364  0.00  0.00    +0.062 C 
BRANCH  23  26
ATOM     25  N   UNL     1       0.530  -5.444  -1.226  0.00  0.00    -0.276 N 
ATOM     26  C   UNL     1       0.092  -5.703   0.022  0.00  0.00    +0.258 C 
ATOM     27  O   UNL     1      -1.097  -5.693   0.261  0.00  0.00    -0.271 OA
ATOM     28  H   UNL     1       1.476  -5.516  -1.433  0.00  0.00    +0.155 HD
BRANCH  25  33
ATOM     29  C   UNL     1      -1.070  -3.896  -5.774  0.00  0.00    +0.045 C 
ATOM     30  C   UNL     1      -1.228  -4.343  -4.344  0.00  0.00    -0.027 A 
ATOM     31  C   UNL     1      -2.435  -4.457  -3.759  0.00  0.00    -0.008 A 
ATOM     32  S   UNL     1      -2.042  -5.006  -2.113  0.00  0.00    -0.078 S 
ATOM     33  C   UNL     1      -0.369  -5.074  -2.214  0.00  0.00    +0.084 A 
ATOM     34  C   UNL     1      -0.093  -4.682  -3.516  0.00  0.00    +0.068 A 
ATOM     35  C   UNL     1      -3.792  -4.185  -4.356  0.00  0.00    +0.052 C 
BRANCH  34  36
ATOM     36  C   UNL     1       1.281  -4.610  -4.024  0.00  0.00    +0.244 C 
ATOM     37  O   UNL     1       1.947  -3.609  -3.835  0.00  0.00    -0.270 OA
ATOM     38  N   UNL     1       1.805  -5.651  -4.700  0.00  0.00    -0.325 N 
ATOM     39  H   UNL     1       1.274  -6.449  -4.850  0.00  0.00    +0.145 HD
ATOM     40  H   UNL     1       2.714  -5.603  -5.036  0.00  0.00    +0.145 HD
ENDBRANCH  34  36
ENDBRANCH  25  33
ENDBRANCH  23  26
ENDBRANCH  22  23
ENDBRANCH   1  22
TORSDOF 7
