REMARK  Name = ZINC09464191
REMARK  12 active torsions:
REMARK  status: ('A' for Active; 'I' for Inactive)
REMARK    1  A    between atoms: C_1  and  C_2
REMARK    2  A    between atoms: C_2  and  C_3
REMARK    3  A    between atoms: C_2  and  C_4
REMARK    4  A    between atoms: C_4  and  C_6
REMARK    5  A    between atoms: C_4  and  N_16
REMARK    6  A    between atoms: C_17  and  C_19
REMARK    7  A    between atoms: C_19  and  C_21
REMARK    8  A    between atoms: C_19  and  N_24
REMARK    9  A    between atoms: C_21  and  C_22
REMARK   10  A    between atoms: C_21  and  C_23
REMARK   11  A    between atoms: N_24  and  S_25
REMARK   12  A    between atoms: S_25  and  C_28
REMARK                            x       y       z     vdW  Elec       q    Type
REMARK                         _______ _______ _______ _____ _____    ______ ____
ROOT
ATOM      1  N   UNL     1       0.656   0.941   1.787  0.00  0.00    -0.304 N 
ATOM      2  C   UNL     1       1.308   1.883   2.497  0.00  0.00    +0.232 C 
ATOM      3  O   UNL     1       1.611   2.935   1.975  0.00  0.00    -0.274 OA
ATOM      4  H   UNL     1       0.468   0.077   2.185  0.00  0.00    +0.149 HD
ENDROOT
BRANCH   1   5
ATOM      5  C   UNL     1       0.234   1.222   0.412  0.00  0.00    +0.141 C 
BRANCH   5   6
ATOM      6  C   UNL     1      -0.940   0.345   0.059  0.00  0.00    +0.129 A 
ATOM      7  N   UNL     1      -1.574  -0.494   0.922  0.00  0.00    -0.340 N 
ATOM      8  H   UNL     1      -1.347  -0.636   1.885  0.00  0.00    +0.167 HD
ATOM      9  C   UNL     1      -2.589  -1.114   0.221  0.00  0.00    +0.066 A 
ATOM     10  C   UNL     1      -3.558  -2.052   0.550  0.00  0.00    +0.028 A 
ATOM     11  C   UNL     1      -4.451  -2.477  -0.411  0.00  0.00    +0.002 A 
ATOM     12  C   UNL     1      -4.386  -1.974  -1.703  0.00  0.00    +0.002 A 
ATOM     13  C   UNL     1      -3.440  -1.050  -2.044  0.00  0.00    +0.030 A 
ATOM     14  C   UNL     1      -2.525  -0.604  -1.087  0.00  0.00    +0.089 A 
ATOM     15  N   UNL     1      -1.498   0.285  -1.115  0.00  0.00    -0.231 NA
ENDBRANCH   5   6
BRANCH   5  17
ATOM     16  C   UNL     1       2.583   1.824  -0.187  0.00  0.00    +0.009 C 
ATOM     17  C   UNL     1       1.391   0.934  -0.546  0.00  0.00    +0.011 C 
ATOM     18  C   UNL     1       0.950   1.228  -1.981  0.00  0.00    +0.009 C 
ENDBRANCH   5  17
ENDBRANCH   1   5
BRANCH   2  19
ATOM     19  C   UNL     1       1.661   1.629   3.940  0.00  0.00    +0.165 C 
BRANCH  19  20
ATOM     20  C   UNL     1       0.390   1.675   4.791  0.00  0.00    +0.010 C 
ATOM     21  C   UNL     1       0.728   1.292   6.233  0.00  0.00    +0.009 C 
ATOM     22  C   UNL     1      -0.191   3.090   4.763  0.00  0.00    +0.009 C 
ENDBRANCH  19  20
BRANCH  19  23
ATOM     23  N   UNL     1       2.596   2.657   4.402  0.00  0.00    -0.178 NA
ATOM     24  H   UNL     1       2.303   3.578   4.484  0.00  0.00    +0.149 HD
BRANCH  23  25
ATOM     25  S   UNL     1       4.154   2.247   4.786  0.00  0.00    +0.062 S 
ATOM     26  O   UNL     1       4.790   3.437   5.232  0.00  0.00    -0.153 OA
ATOM     27  O   UNL     1       4.080   1.076   5.588  0.00  0.00    -0.153 OA
BRANCH  25  28
ATOM     28  C   UNL     1       4.954   1.780   3.287  0.00  0.00    +0.140 A 
ATOM     29  C   UNL     1       5.954   2.575   2.760  0.00  0.00    +0.031 A 
ATOM     30  C   UNL     1       6.585   2.207   1.587  0.00  0.00    +0.002 A 
ATOM     31  C   UNL     1       6.210   1.047   0.933  0.00  0.00    +0.003 A 
ATOM     32  C   UNL     1       5.207   0.253   1.455  0.00  0.00    +0.040 A 
ATOM     33  C   UNL     1       4.577   0.619   2.633  0.00  0.00    +0.150 A 
ATOM     34  F   UNL     1       3.596  -0.156   3.144  0.00  0.00    -0.203 F 
ENDBRANCH  25  28
ENDBRANCH  23  25
ENDBRANCH  19  23
ENDBRANCH   2  19
TORSDOF 8
