REMARK  Name = ZINC39944976
REMARK  9 active torsions:
REMARK  status: ('A' for Active; 'I' for Inactive)
REMARK    1  A    between atoms: C_5  and  C_7
REMARK    2  A    between atoms: C_7  and  N_8
REMARK    3  A    between atoms: N_8  and  C_9
REMARK    4  A    between atoms: C_12  and  N_30
REMARK    5  A    between atoms: C_14  and  C_15
REMARK    6  A    between atoms: C_15  and  O_17
REMARK    7  A    between atoms: O_17  and  C_18
REMARK    8  A    between atoms: C_18  and  C_19
REMARK    9  A    between atoms: C_19  and  C_21
REMARK                            x       y       z     vdW  Elec       q    Type
REMARK                         _______ _______ _______ _____ _____    ______ ____
ROOT
ATOM      1  C   UNL     1       1.572  -4.045   1.570  0.00  0.00    +0.042 A 
ATOM      2  C   UNL     1       1.294  -4.948   0.551  0.00  0.00    +0.026 A 
ATOM      3  C   UNL     1       1.341  -6.304   0.798  0.00  0.00    +0.034 A 
ATOM      4  C   UNL     1       1.665  -6.777   2.061  0.00  0.00    +0.127 A 
ATOM      5  C   UNL     1       1.943  -5.898   3.083  0.00  0.00    +0.049 A 
ATOM      6  C   UNL     1       1.906  -4.520   2.848  0.00  0.00    +0.082 A 
ENDROOT
BRANCH   4   7
ATOM      7  N   UNL     1       1.711  -8.235   2.311  0.00  0.00    +0.056 N 
ATOM      8  O   UNL     1       1.467  -9.010   1.416  0.00  0.00    -0.126 OA
ATOM      9  O   UNL     1       1.992  -8.651   3.411  0.00  0.00    -0.126 OA
ENDBRANCH   4   7
BRANCH   1  10
ATOM     10  N   UNL     1       1.525  -2.679   1.323  0.00  0.00    -0.339 N 
ATOM     11  H   UNL     1       1.641  -2.050   2.053  0.00  0.00    +0.146 HD
BRANCH  10  12
ATOM     12  C   UNL     1       1.299  -2.188  -0.038  0.00  0.00    +0.138 C 
BRANCH  12  17
ATOM     13  C   UNL     1       0.087   1.388  -0.044  0.00  0.00    +0.000 A 
ATOM     14  C   UNL     1       1.281   2.085  -0.027  0.00  0.00    +0.001 A 
ATOM     15  C   UNL     1       2.481   1.400  -0.014  0.00  0.00    +0.020 A 
ATOM     16  C   UNL     1       2.488   0.016  -0.018  0.00  0.00    +0.046 A 
ATOM     17  C   UNL     1       1.293  -0.681  -0.034  0.00  0.00    -0.012 A 
ATOM     18  C   UNL     1       0.093   0.005  -0.047  0.00  0.00    +0.006 A 
ATOM     19 CL   UNL     1       3.995  -0.845  -0.002  0.00  0.00    -0.083 Cl
ENDBRANCH  12  17
ENDBRANCH  10  12
ENDBRANCH   1  10
BRANCH   6  20
ATOM     20  C   UNL     1       2.209  -3.574   3.935  0.00  0.00    +0.341 C 
ATOM     21  O   UNL     1       2.072  -2.379   3.757  0.00  0.00    -0.245 OA
BRANCH  20  22
ATOM     22  O   UNL     1       2.638  -4.032   5.127  0.00  0.00    -0.453 OA
BRANCH  22  23
ATOM     23  C   UNL     1       2.914  -3.058   6.136  0.00  0.00    +0.311 C 
BRANCH  23  24
ATOM     24  C   UNL     1       3.379  -3.752   7.390  0.00  0.00    +0.199 C 
ATOM     25  O   UNL     1       3.466  -4.963   7.418  0.00  0.00    -0.289 OA
BRANCH  24  26
ATOM     26  C   UNL     1       3.713  -2.994   8.533  0.00  0.00    +0.026 C 
ATOM     27  C   UNL     1       4.159  -3.471   9.752  0.00  0.00    +0.006 A 
ATOM     28  C   UNL     1       4.413  -4.775  10.241  0.00  0.00    +0.010 A 
ATOM     29  C   UNL     1       4.853  -4.954  11.506  0.00  0.00    +0.001 A 
ATOM     30  C   UNL     1       5.077  -3.883  12.386  0.00  0.00    +0.002 A 
ATOM     31  C   UNL     1       4.865  -2.600  12.018  0.00  0.00    +0.026 A 
ATOM     32  C   UNL     1       4.385  -2.317  10.656  0.00  0.00    +0.043 A 
ATOM     33  N   UNL     1       4.103  -1.200  10.048  0.00  0.00    -0.380 N 
ATOM     34  C   UNL     1       3.666  -1.489   8.679  0.00  0.00    +0.152 C 
ATOM     35  H   UNL     1       4.174  -0.315  10.439  0.00  0.00    +0.160 HD
ENDBRANCH  24  26
ENDBRANCH  23  24
ENDBRANCH  22  23
ENDBRANCH  20  22
ENDBRANCH   6  20
TORSDOF 9
