REMARK  Name = ZINC21580889
REMARK  12 active torsions:
REMARK  status: ('A' for Active; 'I' for Inactive)
REMARK    1  A    between atoms: C_1  and  C_2
REMARK    2  A    between atoms: C_2  and  O_3
REMARK    3  A    between atoms: O_3  and  C_4
REMARK    4  A    between atoms: C_4  and  C_6
REMARK    5  A    between atoms: C_7  and  C_19
REMARK    6  A    between atoms: C_12  and  C_14
REMARK    7  A    between atoms: C_19  and  N_20
REMARK    8  A    between atoms: N_20  and  C_21
REMARK    9  A    between atoms: N_20  and  C_22
REMARK   10  A    between atoms: C_22  and  C_23
REMARK   11  A    between atoms: C_26  and  O_29
REMARK   12  A    between atoms: O_29  and  C_30
REMARK                            x       y       z     vdW  Elec       q    Type
REMARK                         _______ _______ _______ _____ _____    ______ ____
ROOT
ATOM      1  C   UNL     1       2.012  -2.188   1.393  0.00  0.00    +0.079 C 
ATOM      2  C   UNL     1       3.267  -2.541   1.744  0.00  0.00    +0.008 C 
ATOM      3  N   UNL     1       4.287  -2.514   0.836  0.00  0.00    -0.274 N 
ATOM      4  C   UNL     1       4.133  -2.148  -0.442  0.00  0.00    +0.304 C 
ATOM      5  O   UNL     1       5.102  -2.156  -1.177  0.00  0.00    -0.252 OA
ATOM      6  N   UNL     1       2.940  -1.770  -0.942  0.00  0.00    -0.285 N 
ATOM      7  C   UNL     1       1.774  -1.764  -0.042  0.00  0.00    +0.179 C 
ATOM      8  H   UNL     1       5.303  -2.806   1.141  0.00  0.00    +0.156 HD
ATOM      9  H   UNL     1       2.825  -1.470  -1.994  0.00  0.00    +0.151 HD
ENDROOT
BRANCH   7  10
ATOM     10  C   UNL     1       1.208  -0.367  -0.025  0.00  0.00    +0.130 A 
ATOM     11  C   UNL     1      -0.099  -0.049  -0.023  0.00  0.00    +0.047 A 
ATOM     12  C   UNL     1      -0.177   1.363  -0.005  0.00  0.00    +0.041 A 
ATOM     13  C   UNL     1       1.087   1.822   0.002  0.00  0.00    +0.195 A 
ATOM     14  O   UNL     1       1.922   0.770  -0.010  0.00  0.00    -0.466 OA
ENDBRANCH   7  10
BRANCH   1  15
ATOM     15  C   UNL     1       0.955  -2.215   2.333  0.00  0.00    +0.339 C 
ATOM     16  O   UNL     1       1.143  -2.664   3.447  0.00  0.00    -0.245 OA
BRANCH  15  17
ATOM     17  O   UNL     1      -0.262  -1.742   1.992  0.00  0.00    -0.462 OA
BRANCH  17  19
ATOM     18  C   UNL     1      -2.582  -1.222   2.425  0.00  0.00    +0.048 C 
ATOM     19  C   UNL     1      -1.283  -1.799   2.991  0.00  0.00    +0.229 C 
ENDBRANCH  17  19
ENDBRANCH  15  17
ENDBRANCH   1  15
BRANCH   2  20
ATOM     20  C   UNL     1       3.548  -2.969   3.162  0.00  0.00    -0.026 C 
BRANCH  20  21
ATOM     21  N   UNL     1       3.249  -4.400   3.309  0.00  0.00    +0.384 N 
ATOM     22  C   UNL     1       4.246  -5.220   2.608  0.00  0.00    -0.095 C 
ATOM     23  H   UNL     1       2.270  -4.590   2.846  0.00  0.00    -0.081 HD
BRANCH  21  24
ATOM     24  C   UNL     1       3.160  -4.776   4.726  0.00  0.00    -0.043 C 
BRANCH  24  25
ATOM     25  C   UNL     1       2.616  -6.177   4.841  0.00  0.00    -0.064 A 
ATOM     26  C   UNL     1       1.253  -6.381   4.945  0.00  0.00    +0.005 A 
ATOM     27  C   UNL     1       0.751  -7.665   5.044  0.00  0.00    +0.046 A 
ATOM     28  C   UNL     1       1.618  -8.748   5.051  0.00  0.00    +0.127 A 
ATOM     29  C   UNL     1       2.986  -8.540   4.952  0.00  0.00    +0.046 A 
ATOM     30  C   UNL     1       3.482  -7.255   4.847  0.00  0.00    +0.005 A 
BRANCH  28  31
ATOM     31  O   UNL     1       1.127 -10.011   5.154  0.00  0.00    -0.434 OA
BRANCH  31  32
ATOM     32  C   UNL     1      -0.291 -10.150   5.253  0.00  0.00    +0.541 C 
ATOM     33  F   UNL     1      -0.749  -9.476   6.390  0.00  0.00    -0.166 F 
ATOM     34  F   UNL     1      -0.893  -9.605   4.113  0.00  0.00    -0.166 F 
ENDBRANCH  31  32
ENDBRANCH  28  31
ENDBRANCH  24  25
ENDBRANCH  21  24
ENDBRANCH  20  21
ENDBRANCH   2  20
TORSDOF 10
