REMARK  Name = ZINC14276513
REMARK  9 active torsions:
REMARK  status: ('A' for Active; 'I' for Inactive)
REMARK    1  A    between atoms: C_1  and  C_2
REMARK    2  A    between atoms: C_2  and  C_3
REMARK    3  A    between atoms: C_2  and  C_4
REMARK    4  A    between atoms: C_2  and  C_5
REMARK    5  A    between atoms: C_12  and  N_17
REMARK    6  A    between atoms: C_13  and  C_14
REMARK    7  A    between atoms: N_17  and  C_18
REMARK    8  A    between atoms: C_18  and  N_20
REMARK    9  A    between atoms: C_21  and  C_23
REMARK                            x       y       z     vdW  Elec       q    Type
REMARK                         _______ _______ _______ _____ _____    ______ ____
ROOT
ATOM      1  C   UNL     1       5.485   4.204  -0.404  0.00  0.00    -0.000 C 
ATOM      2  C   UNL     1       5.862   2.971   0.422  0.00  0.00    +0.009 C 
ATOM      3  C   UNL     1       5.037   1.766  -0.034  0.00  0.00    +0.037 C 
ATOM      4  C   UNL     1       3.562   2.148  -0.019  0.00  0.00    -0.023 A 
ATOM      5  C   UNL     1       3.179   3.443  -0.009  0.00  0.00    -0.004 A 
ATOM      6  S   UNL     1       1.410   3.392   0.007  0.00  0.00    -0.077 S 
ATOM      7  C   UNL     1       1.179   1.675  -0.000  0.00  0.00    +0.084 A 
ATOM      8  C   UNL     1       2.477   1.182  -0.010  0.00  0.00    +0.068 A 
ATOM      9  C   UNL     1       4.069   4.648  -0.011  0.00  0.00    +0.046 C 
ENDROOT
BRANCH   8  10
ATOM     10  C   UNL     1       2.742  -0.260  -0.013  0.00  0.00    +0.244 C 
ATOM     11  O   UNL     1       2.846  -0.857  -1.069  0.00  0.00    -0.270 OA
ATOM     12  N   UNL     1       2.872  -0.924   1.153  0.00  0.00    -0.325 N 
ATOM     13  H   UNL     1       2.789  -0.448   1.994  0.00  0.00    +0.145 HD
ATOM     14  H   UNL     1       3.048  -1.878   1.150  0.00  0.00    +0.145 HD
ENDBRANCH   8  10
BRANCH   1  16
ATOM     15  C   UNL     1       6.445   5.676   1.371  0.00  0.00    +0.011 C 
ATOM     16  C   UNL     1       6.475   5.335  -0.120  0.00  0.00    -0.035 C 
ATOM     17  C   UNL     1       7.885   4.889  -0.513  0.00  0.00    +0.011 C 
ATOM     18  C   UNL     1       6.085   6.570  -0.934  0.00  0.00    +0.011 C 
ENDBRANCH   1  16
BRANCH   7  19
ATOM     19  N   UNL     1      -0.011   0.966   0.007  0.00  0.00    -0.291 N 
ATOM     20  H   UNL     1       0.002  -0.004   0.002  0.00  0.00    +0.154 HD
BRANCH  19  21
ATOM     21  C   UNL     1      -1.187   1.624   0.017  0.00  0.00    +0.141 C 
ATOM     22  S   UNL     1      -1.210   3.336   0.026  0.00  0.00    -0.018 S 
BRANCH  21  23
ATOM     23  N   UNL     1      -2.345   0.934   0.018  0.00  0.00    -0.264 N 
ATOM     24  C   UNL     1      -3.522   1.592   0.027  0.00  0.00    +0.250 C 
ATOM     25  O   UNL     1      -3.538   2.807   0.034  0.00  0.00    -0.270 OA
ATOM     26  H   UNL     1      -2.332  -0.036   0.013  0.00  0.00    +0.157 HD
BRANCH  24  27
ATOM     27  C   UNL     1      -4.791   0.836   0.029  0.00  0.00    +0.037 A 
ATOM     28  C   UNL     1      -4.775  -0.560   0.016  0.00  0.00    +0.014 A 
ATOM     29  C   UNL     1      -5.963  -1.260   0.022  0.00  0.00    +0.016 A 
ATOM     30  C   UNL     1      -7.170  -0.581   0.032  0.00  0.00    +0.018 A 
ATOM     31  C   UNL     1      -7.192   0.803   0.040  0.00  0.00    +0.016 A 
ATOM     32  C   UNL     1      -6.011   1.515   0.039  0.00  0.00    +0.014 A 
ATOM     33 BR   UNL     1      -8.795  -1.549   0.034  0.00  0.00    -0.050 Br
ENDBRANCH  24  27
ENDBRANCH  21  23
ENDBRANCH  19  21
ENDBRANCH   7  19
TORSDOF 6
