REMARK  Name = ZINC63557691
REMARK  12 active torsions:
REMARK  status: ('A' for Active; 'I' for Inactive)
REMARK    1  A    between atoms: C_1  and  C_2
REMARK    2  A    between atoms: C_2  and  C_3
REMARK    3  A    between atoms: C_2  and  C_4
REMARK    4  A    between atoms: C_2  and  C_5
REMARK    5  A    between atoms: C_5  and  C_6
REMARK    6  A    between atoms: C_10  and  N_13
REMARK    7  A    between atoms: C_14  and  C_16
REMARK    8  A    between atoms: N_21  and  C_23
REMARK    9  A    between atoms: C_23  and  C_24
REMARK   10  A    between atoms: C_24  and  C_25
REMARK   11  A    between atoms: C_28  and  O_34
REMARK   12  A    between atoms: O_34  and  C_35
REMARK                            x       y       z     vdW  Elec       q    Type
REMARK                         _______ _______ _______ _____ _____    ______ ____
ROOT
ATOM      1  C   UNL     1       7.610  -4.017  -0.676  0.00  0.00    +0.101 C 
ATOM      2  C   UNL     1       8.412  -2.722  -0.940  0.00  0.00    +0.110 C 
ATOM      3  C   UNL     1       9.797  -3.211  -1.304  0.00  0.00    +0.216 C 
ATOM      4  O   UNL     1      10.796  -2.524  -1.313  0.00  0.00    -0.276 OA
ATOM      5  N   UNL     1       9.758  -4.518  -1.616  0.00  0.00    -0.300 N 
ATOM      6  C   UNL     1       8.394  -5.051  -1.514  0.00  0.00    +0.121 C 
ENDROOT
BRANCH   1   8
ATOM      7  N   UNL     1       5.364  -2.982  -0.608  0.00  0.00    -0.290 N 
ATOM      8  C   UNL     1       6.193  -3.884  -1.171  0.00  0.00    +0.220 C 
ATOM      9  O   UNL     1       5.798  -4.587  -2.077  0.00  0.00    -0.275 OA
ATOM     10  H   UNL     1       5.679  -2.420   0.117  0.00  0.00    +0.151 HD
BRANCH   7  14
ATOM     11  C   UNL     1       2.119  -0.812  -1.384  0.00  0.00    +0.130 C 
ATOM     12  N   UNL     1       2.594  -1.555  -2.585  0.00  0.00    -0.241 NA
ATOM     13  N   UNL     1       3.929  -2.109  -2.386  0.00  0.00    -0.227 NA
ATOM     14  C   UNL     1       3.986  -2.853  -1.089  0.00  0.00    +0.216 C 
ATOM     15  S   UNL     1       3.008  -1.695  -0.034  0.00  0.00    -0.102 S 
ATOM     16  H   UNL     1       2.563  -0.972  -3.407  0.00  0.00    +0.142 HD
ATOM     17  H   UNL     1       4.629  -1.383  -2.419  0.00  0.00    +0.143 HD
BRANCH  11  18
ATOM     18  C   UNL     1       0.604  -0.942  -1.222  0.00  0.00    +0.037 C 
BRANCH  18  20
ATOM     19  C   UNL     1       0.521   1.298  -0.118  0.00  0.00    +0.010 C 
ATOM     20  C   UNL     1       0.158  -0.181   0.029  0.00  0.00    -0.035 C 
ATOM     21  C   UNL     1       0.863  -0.760   1.257  0.00  0.00    +0.010 C 
ATOM     22  C   UNL     1      -1.357  -0.320   0.198  0.00  0.00    +0.010 C 
ENDBRANCH  18  20
ENDBRANCH  11  18
ENDBRANCH   7  14
ENDBRANCH   1   8
BRANCH   5  23
ATOM     23  C   UNL     1      10.927  -5.309  -2.007  0.00  0.00    +0.112 C 
BRANCH  23  24
ATOM     24  C   UNL     1      11.568  -5.923  -0.760  0.00  0.00    +0.052 C 
BRANCH  24  25
ATOM     25  C   UNL     1      12.770  -6.737  -1.163  0.00  0.00    -0.040 C 
ATOM     26  C   UNL     1      14.060  -6.330  -1.177  0.00  0.00    +0.002 A 
ATOM     27  C   UNL     1      14.706  -5.057  -0.837  0.00  0.00    +0.055 A 
ATOM     28  C   UNL     1      16.050  -4.939  -0.953  0.00  0.00    +0.121 A 
ATOM     29  C   UNL     1      16.861  -6.001  -1.391  0.00  0.00    +0.047 A 
ATOM     30  C   UNL     1      16.360  -7.209  -1.727  0.00  0.00    +0.029 A 
ATOM     31  C   UNL     1      14.916  -7.447  -1.638  0.00  0.00    +0.043 A 
ATOM     32  N   UNL     1      14.184  -8.502  -1.898  0.00  0.00    -0.380 N 
ATOM     33  C   UNL     1      12.780  -8.177  -1.625  0.00  0.00    +0.144 C 
ATOM     34  H   UNL     1      14.516  -9.357  -2.215  0.00  0.00    +0.160 HD
BRANCH  28  35
ATOM     35  O   UNL     1      16.635  -3.755  -0.635  0.00  0.00    -0.495 OA
ATOM     36  C   UNL     1      18.055  -3.675  -0.772  0.00  0.00    +0.277 C 
ENDBRANCH  28  35
ENDBRANCH  24  25
ENDBRANCH  23  24
ENDBRANCH   5  23
TORSDOF 8
