REMARK  Name = ZINC39853340
REMARK  6 active torsions:
REMARK  status: ('A' for Active; 'I' for Inactive)
REMARK    1  A    between atoms: C_1  and  C_2
REMARK    2  A    between atoms: C_6  and  C_7
REMARK    3  A    between atoms: C_11  and  C_28
REMARK    4  A    between atoms: C_11  and  C_29
REMARK    5  A    between atoms: N_14  and  N_15
REMARK    6  A    between atoms: C_16  and  C_18
REMARK                            x       y       z     vdW  Elec       q    Type
REMARK                         _______ _______ _______ _____ _____    ______ ____
ROOT
ATOM      1  C   UNL     1      -0.016   1.496   0.009  0.00  0.00    +0.048 C 
ATOM      2  C   UNL     1      -0.016  -0.011   0.001  0.00  0.00    +0.009 A 
ATOM      3  C   UNL     1      -0.024  -0.845  -1.124  0.00  0.00    +0.042 A 
ATOM      4  C   UNL     1      -0.023  -2.144  -0.674  0.00  0.00    +0.116 A 
ATOM      5  O   UNL     1      -0.011  -2.118   0.657  0.00  0.00    -0.454 OA
ATOM      6  C   UNL     1      -0.003  -0.837   1.089  0.00  0.00    +0.193 A 
ATOM      7  C   UNL     1      -0.035  -3.333  -1.601  0.00  0.00    +0.081 C 
ATOM      8  C   UNL     1      -0.557  -2.902  -2.974  0.00  0.00    -0.023 C 
ATOM      9  C   UNL     1       0.229  -1.695  -3.497  0.00  0.00    +0.064 C 
ATOM     10  C   UNL     1      -0.030  -0.519  -2.567  0.00  0.00    +0.070 C 
ATOM     11  N   UNL     1      -0.243   0.683  -3.008  0.00  0.00    -0.184 NA
ATOM     12  C   UNL     1      -2.036  -2.527  -2.857  0.00  0.00    +0.011 C 
ATOM     13  C   UNL     1      -0.409  -4.065  -3.958  0.00  0.00    +0.011 C 
ENDROOT
BRANCH   6  14
ATOM     14  C   UNL     1       0.014  -0.406   2.492  0.00  0.00    +0.277 C 
ATOM     15  O   UNL     1       0.018   0.780   2.764  0.00  0.00    -0.267 OA
ATOM     16  N   UNL     1       0.027  -1.325   3.479  0.00  0.00    -0.323 N 
ATOM     17  H   UNL     1       0.024  -2.270   3.262  0.00  0.00    +0.145 HD
ATOM     18  H   UNL     1       0.038  -1.040   4.406  0.00  0.00    +0.145 HD
ENDBRANCH   6  14
BRANCH  11  19
ATOM     19  N   UNL     1      -0.238   0.935  -4.387  0.00  0.00    -0.203 N 
ATOM     20  C   UNL     1      -0.458   2.183  -4.845  0.00  0.00    +0.264 C 
ATOM     21  O   UNL     1      -0.662   3.091  -4.062  0.00  0.00    -0.268 OA
ATOM     22  H   UNL     1      -0.075   0.210  -5.011  0.00  0.00    +0.178 HD
BRANCH  20  23
ATOM     23  C   UNL     1      -0.453   2.447  -6.295  0.00  0.00    +0.046 A 
ATOM     24  C   UNL     1      -0.104   1.450  -7.196  0.00  0.00    +0.014 A 
ATOM     25  C   UNL     1      -0.101   1.701  -8.562  0.00  0.00    +0.001 A 
ATOM     26  C   UNL     1      -0.433   2.920  -9.068  0.00  0.00    +0.008 A 
ATOM     27  C   UNL     1      -0.796   3.976  -8.215  0.00  0.00    -0.017 A 
ATOM     28  C   UNL     1      -0.819   3.763  -6.815  0.00  0.00    -0.006 A 
ATOM     29  C   UNL     1      -1.185   4.811  -5.961  0.00  0.00    +0.009 A 
ATOM     30  C   UNL     1      -1.519   6.023  -6.488  0.00  0.00    +0.001 A 
ATOM     31  C   UNL     1      -1.502   6.234  -7.865  0.00  0.00    +0.001 A 
ATOM     32  C   UNL     1      -1.142   5.240  -8.722  0.00  0.00    +0.008 A 
ENDBRANCH  20  23
ENDBRANCH  11  19
TORSDOF 3
