REMARK  Name = ZINC01802394
REMARK  16 active torsions:
REMARK  status: ('A' for Active; 'I' for Inactive)
REMARK    1  A    between atoms: C_1  and  C_2
REMARK    2  A    between atoms: C_7  and  C_9
REMARK    3  A    between atoms: C_7  and  C_18
REMARK    4  A    between atoms: C_7  and  N_76
REMARK    5  A    between atoms: C_12  and  N_15
REMARK    6  A    between atoms: N_15  and  C_16
REMARK    7  A    between atoms: N_15  and  C_17
REMARK    8  A    between atoms: C_20  and  C_29
REMARK    9  A    between atoms: C_21  and  O_28
REMARK   10  A    between atoms: C_22  and  C_24
REMARK   11  A    between atoms: C_24  and  C_25
REMARK   12  A    between atoms: C_24  and  C_26
REMARK   13  A    between atoms: C_24  and  C_27
REMARK   14  A    between atoms: C_29  and  C_30
REMARK   15  A    between atoms: C_29  and  C_31
REMARK   16  A    between atoms: C_29  and  C_32
REMARK                            x       y       z     vdW  Elec       q    Type
REMARK                         _______ _______ _______ _____ _____    ______ ____
ROOT
ATOM      1  C   UNL     1       3.038  -1.005   3.310  0.00  0.00    -0.007 C 
ENDROOT
BRANCH   1   8
ATOM      2  C   UNL     1       6.839   1.243  -0.319  0.00  0.00    +0.007 C 
ATOM      3  C   UNL     1       6.138   0.758   0.952  0.00  0.00    -0.018 C 
ATOM      4  C   UNL     1       5.876  -0.747   0.849  0.00  0.00    -0.015 C 
ATOM      5  C   UNL     1       5.122  -1.214   2.096  0.00  0.00    -0.077 C 
ATOM      6  C   UNL     1       4.079   0.959   2.350  0.00  0.00    -0.077 C 
ATOM      7  C   UNL     1       4.803   1.491   1.111  0.00  0.00    -0.015 C 
ATOM      8  N   UNL     1       3.836  -0.490   2.178  0.00  0.00    +0.387 N 
ATOM      9  H   UNL     1       3.313  -0.638   1.307  0.00  0.00    -0.080 HD
ENDBRANCH   1   8
BRANCH   1  10
ATOM     10  C   UNL     1       2.636  -2.427   3.013  0.00  0.00    -0.057 A 
ATOM     11  C   UNL     1       2.262  -2.784   1.730  0.00  0.00    +0.004 A 
ATOM     12  C   UNL     1       1.899  -4.088   1.454  0.00  0.00    +0.023 A 
ATOM     13  C   UNL     1       1.898  -5.037   2.468  0.00  0.00    +0.029 A 
ATOM     14  C   UNL     1       2.269  -4.673   3.756  0.00  0.00    +0.023 A 
ATOM     15  C   UNL     1       2.637  -3.369   4.025  0.00  0.00    +0.004 A 
BRANCH  13  16
ATOM     16  N   UNL     1       1.526  -6.355   2.193  0.00  0.00    -0.336 N 
ATOM     17  C   UNL     1       1.525  -7.355   3.264  0.00  0.00    +0.129 C 
ATOM     18  C   UNL     1       1.135  -6.737   0.834  0.00  0.00    +0.129 C 
ENDBRANCH  13  16
ENDBRANCH   1  10
BRANCH   1  19
ATOM     19  C   UNL     1       1.802  -0.156   3.466  0.00  0.00    -0.056 A 
ATOM     20  C   UNL     1       1.340   0.163   4.730  0.00  0.00    +0.010 A 
ATOM     21  C   UNL     1       0.207   0.941   4.876  0.00  0.00    -0.000 A 
ATOM     22  C   UNL     1      -0.466   1.402   3.754  0.00  0.00    +0.124 A 
ATOM     23  C   UNL     1       0.000   1.080   2.488  0.00  0.00    -0.000 A 
ATOM     24  C   UNL     1       1.129   0.297   2.347  0.00  0.00    +0.010 A 
BRANCH  23  25
ATOM     25  C   UNL     1      -0.729   1.579   1.267  0.00  0.00    -0.009 C 
ATOM     26  C   UNL     1      -0.013   1.086   0.008  0.00  0.00    +0.015 C 
ATOM     27  C   UNL     1      -0.750   3.109   1.275  0.00  0.00    +0.015 C 
ATOM     28  C   UNL     1      -2.164   1.050   1.278  0.00  0.00    +0.015 C 
ENDBRANCH  23  25
BRANCH  21  29
ATOM     29  C   UNL     1      -0.296   1.288   6.253  0.00  0.00    -0.009 C 
ATOM     30  C   UNL     1       0.621   0.659   7.305  0.00  0.00    +0.015 C 
ATOM     31  C   UNL     1      -0.303   2.808   6.426  0.00  0.00    +0.015 C 
ATOM     32  C   UNL     1      -1.717   0.748   6.428  0.00  0.00    +0.015 C 
ENDBRANCH  21  29
BRANCH  22  33
ATOM     33  O   UNL     1      -1.580   2.167   3.896  0.00  0.00    -0.506 OA
ATOM     34  H   UNL     1      -2.402   1.661   3.937  0.00  0.00    +0.292 HD
ENDBRANCH  22  33
ENDBRANCH   1  19
TORSDOF 7
