REMARK  Name = ZINC09124576
REMARK  10 active torsions:
REMARK  status: ('A' for Active; 'I' for Inactive)
REMARK    1  A    between atoms: C_1  and  C_2
REMARK    2  A    between atoms: C_4  and  O_32
REMARK    3  A    between atoms: C_5  and  C_9
REMARK    4  A    between atoms: N_17  and  C_29
REMARK    5  A    between atoms: C_18  and  C_20
REMARK    6  A    between atoms: C_23  and  C_26
REMARK    7  A    between atoms: C_26  and  C_27
REMARK    8  A    between atoms: C_26  and  C_28
REMARK    9  A    between atoms: C_29  and  C_30
REMARK   10  A    between atoms: C_30  and  O_31
REMARK                            x       y       z     vdW  Elec       q    Type
REMARK                         _______ _______ _______ _____ _____    ______ ____
ROOT
ATOM      1  C   UNL     1      -0.293  -4.887  -0.341  0.00  0.00    +0.102 A 
ATOM      2  C   UNL     1      -0.034  -5.541   0.868  0.00  0.00    +0.035 A 
ATOM      3  C   UNL     1       0.172  -6.868   0.543  0.00  0.00    +0.126 A 
ATOM      4  N   UNL     1       0.030  -6.952  -0.813  0.00  0.00    -0.272 N 
ATOM      5  H   UNL     1       0.119  -7.766  -1.333  0.00  0.00    +0.189 HD
ATOM      6  N   UNL     1      -0.244  -5.793  -1.298  0.00  0.00    -0.173 NA
ATOM      7  C   UNL     1       0.450  -7.613   1.776  0.00  0.00    +0.266 C 
ATOM      8  O   UNL     1       0.675  -8.807   1.829  0.00  0.00    -0.268 OA
ATOM      9  N   UNL     1       0.421  -6.788   2.838  0.00  0.00    -0.283 N 
ATOM     10  C   UNL     1       0.118  -5.433   2.361  0.00  0.00    +0.141 C 
ENDROOT
BRANCH   1  15
ATOM     11  C   UNL     1      -1.402   0.729  -1.012  0.00  0.00    +0.045 C 
ATOM     12  C   UNL     1      -1.112  -0.740  -0.839  0.00  0.00    -0.029 A 
ATOM     13  C   UNL     1      -0.978  -1.550  -1.951  0.00  0.00    +0.050 A 
ATOM     14  C   UNL     1      -0.712  -2.901  -1.797  0.00  0.00    +0.126 A 
ATOM     15  C   UNL     1      -0.578  -3.441  -0.515  0.00  0.00    +0.045 A 
ATOM     16  C   UNL     1      -0.715  -2.617   0.599  0.00  0.00    +0.034 A 
ATOM     17  C   UNL     1      -0.975  -1.270   0.432  0.00  0.00    +0.045 A 
ATOM     18 CL   UNL     1      -1.139  -0.242   1.821  0.00  0.00    -0.083 Cl
BRANCH  14  19
ATOM     19  O   UNL     1      -0.581  -3.698  -2.889  0.00  0.00    -0.506 OA
ATOM     20  H   UNL     1       0.324  -3.760  -3.225  0.00  0.00    +0.292 HD
ENDBRANCH  14  19
ENDBRANCH   1  15
BRANCH  10  21
ATOM     21  C   UNL     1       1.250  -4.498   2.700  0.00  0.00    -0.022 A 
ATOM     22  C   UNL     1       2.518  -4.738   2.203  0.00  0.00    +0.006 A 
ATOM     23  C   UNL     1       3.556  -3.881   2.515  0.00  0.00    +0.004 A 
ATOM     24  C   UNL     1       3.328  -2.783   3.323  0.00  0.00    -0.045 A 
ATOM     25  C   UNL     1       2.060  -2.542   3.820  0.00  0.00    +0.004 A 
ATOM     26  C   UNL     1       1.021  -3.397   3.505  0.00  0.00    +0.006 A 
BRANCH  24  27
ATOM     27  C   UNL     1       4.460  -1.849   3.663  0.00  0.00    +0.013 C 
ATOM     28  C   UNL     1       4.128  -0.441   3.163  0.00  0.00    +0.012 C 
ATOM     29  C   UNL     1       4.657  -1.817   5.181  0.00  0.00    +0.012 C 
ENDBRANCH  24  27
ENDBRANCH  10  21
BRANCH   9  30
ATOM     30  C   UNL     1       0.652  -7.176   4.232  0.00  0.00    +0.137 C 
BRANCH  30  31
ATOM     31  C   UNL     1       2.156  -7.210   4.509  0.00  0.00    +0.175 C 
BRANCH  31  32
ATOM     32  O   UNL     1       2.680  -5.881   4.458  0.00  0.00    -0.393 OA
ATOM     33  H   UNL     1       3.631  -5.827   4.625  0.00  0.00    +0.209 HD
ENDBRANCH  31  32
ENDBRANCH  30  31
ENDBRANCH   9  30
TORSDOF 7
