REMARK  Name = ZINC10109827
REMARK  7 active torsions:
REMARK  status: ('A' for Active; 'I' for Inactive)
REMARK    1  A    between atoms: C_1  and  C_2
REMARK    2  A    between atoms: C_8  and  C_10
REMARK    3  A    between atoms: N_12  and  CA_13
REMARK    4  A    between atoms: CA_13  and  CB_15
REMARK    5  A    between atoms: CA_13  and  C_18
REMARK    6  A    between atoms: CB_15  and  CG1_16
REMARK    7  A    between atoms: CB_15  and  CG2_17
REMARK                            x       y       z     vdW  Elec       q    Type
REMARK                         _______ _______ _______ _____ _____    ______ ____
ROOT
ATOM      1  C   UNK A   0       0.000   1.080   2.488  0.00  0.00    +0.217 C 
ATOM      2  O   UNK A   0      -0.572   0.370   3.288  0.00  0.00    -0.275 OA
ATOM      3  N   VAL A   1       1.288   1.422   2.691  0.00  0.00    -0.302 N 
ATOM      4  H   VAL A   1       1.746   1.990   2.051  0.00  0.00    +0.150 HD
ENDROOT
BRANCH   1  11
ATOM      5  C   UNK A   0      -2.880   1.543   2.537  0.00  0.00    +0.008 C 
ATOM      6  C   UNK A   0      -2.164   1.050   1.278  0.00  0.00    -0.002 C 
ATOM      7  C   UNK A   0      -2.904   1.556   0.038  0.00  0.00    +0.004 C 
ATOM      8  C   UNK A   0      -2.188   1.063  -1.221  0.00  0.00    +0.000 C 
ATOM      9  C   UNK A   0      -0.753   1.593  -1.232  0.00  0.00    +0.001 C 
ATOM     10  C   UNK A   0      -0.013   1.086   0.008  0.00  0.00    +0.013 C 
ATOM     11  C   UNK A   0      -0.729   1.579   1.267  0.00  0.00    +0.078 C 
ENDBRANCH   1  11
BRANCH   3  12
ATOM     12  CA  VAL A   1       1.996   0.937   3.877  0.00  0.00    +0.189 C 
BRANCH  12  13
ATOM     13  CB  VAL A   1       3.500   0.907   3.597  0.00  0.00    +0.014 C 
ATOM     14  CG1 VAL A   1       4.006   2.334   3.379  0.00  0.00    +0.009 C 
ATOM     15  CG2 VAL A   1       4.229   0.284   4.789  0.00  0.00    +0.009 C 
ENDBRANCH  12  13
BRANCH  12  16
ATOM     16  C   VAL A   1       1.720   1.857   5.039  0.00  0.00    +0.376 C 
ATOM     17  O   VAL A   1       1.004   2.819   4.890  0.00  0.00    -0.244 OA
ATOM     18  OXT VAL A   1       2.268   1.607   6.238  0.00  0.00    -0.244 OA
ENDBRANCH  12  16
ENDBRANCH   3  12
TORSDOF 4
