REMARK  Name = ZINC20028272
REMARK  4 active torsions:
REMARK  status: ('A' for Active; 'I' for Inactive)
REMARK    1  A    between atoms: C_1  and  C_2
REMARK    2  A    between atoms: C_5  and  C_8
REMARK    3  A    between atoms: C_18  and  C_20
REMARK    4  A    between atoms: N_24  and  C_27
REMARK                            x       y       z     vdW  Elec       q    Type
REMARK                         _______ _______ _______ _____ _____    ______ ____
ROOT
ATOM      1  C   UNL     1       2.411   1.203  -0.064  0.00  0.00    +0.211 C 
ATOM      2  N   UNL     1       2.208  -0.029   0.710  0.00  0.00    -0.335 N 
ATOM      3  C   UNL     1       1.034  -0.606   0.714  0.00  0.00    +0.196 C 
ATOM      4  N   UNL     1       0.002  -0.004   0.002  0.00  0.00    -0.182 NA
ATOM      5  C   UNL     1      -0.017   1.378   0.010  0.00  0.00    +0.229 C 
ATOM      6  N   UNL     1       1.192   2.015   0.002  0.00  0.00    -0.211 N 
ATOM      7  C   UNL     1       1.243   3.358   0.044  0.00  0.00    +0.249 C 
ATOM      8  O   UNL     1       2.314   3.942   0.065  0.00  0.00    -0.270 OA
ATOM      9  C   UNL     1       0.031   4.075   0.062  0.00  0.00    +0.091 C 
ATOM     10  C   UNL     1      -1.146   3.384   0.049  0.00  0.00    +0.047 C 
ATOM     11  N   UNL     1      -1.142   2.051   0.029  0.00  0.00    -0.219 NA
ATOM     12  C   UNL     1      -2.455   4.131   0.062  0.00  0.00    +0.066 C 
ATOM     13  N   UNL     1       0.826  -1.777   1.403  0.00  0.00    -0.298 N 
ATOM     14  C   UNL     1      -0.495  -2.423   1.412  0.00  0.00    +0.127 C 
ATOM     15  C   UNL     1      -0.313  -3.898   1.019  0.00  0.00    +0.124 C 
ATOM     16  N   UNL     1       0.685  -4.515   1.902  0.00  0.00    -0.327 N 
ATOM     17  C   UNL     1       2.003  -3.886   1.739  0.00  0.00    +0.124 C 
ATOM     18  C   UNL     1       1.917  -2.414   2.156  0.00  0.00    +0.127 C 
ATOM     19  H   UNL     1       3.038  -0.467   1.285  0.00  0.00    +0.164 HD
ENDROOT
BRANCH   1  24
ATOM     20  C   UNL     1       3.549  -0.138  -5.568  0.00  0.00    +0.044 C 
ATOM     21  C   UNL     1       3.252   0.212  -4.133  0.00  0.00    -0.050 A 
ATOM     22  C   UNL     1       3.621  -0.654  -3.120  0.00  0.00    +0.004 A 
ATOM     23  C   UNL     1       3.349  -0.333  -1.803  0.00  0.00    +0.007 A 
ATOM     24  C   UNL     1       2.707   0.853  -1.499  0.00  0.00    -0.007 A 
ATOM     25  C   UNL     1       2.333   1.716  -2.512  0.00  0.00    +0.007 A 
ATOM     26  C   UNL     1       2.609   1.397  -3.829  0.00  0.00    +0.004 A 
ENDBRANCH   1  24
BRANCH  16  27
ATOM     27  C   UNL     1       0.759  -5.893   1.688  0.00  0.00    +0.030 A 
ATOM     28  C   UNL     1       1.974  -6.483   1.362  0.00  0.00    +0.023 A 
ATOM     29  C   UNL     1       2.044  -7.847   1.156  0.00  0.00    +0.002 A 
ATOM     30  C   UNL     1       0.905  -8.623   1.263  0.00  0.00    +0.000 A 
ATOM     31  C   UNL     1      -0.307  -8.039   1.583  0.00  0.00    +0.002 A 
ATOM     32  C   UNL     1      -0.383  -6.676   1.796  0.00  0.00    +0.023 A 
ENDBRANCH  16  27
TORSDOF 2
