REMARK  Name = ZINC17851109
REMARK  7 active torsions:
REMARK  status: ('A' for Active; 'I' for Inactive)
REMARK    1  A    between atoms: C_1  and  C_2
REMARK    2  A    between atoms: C_14  and  C_15
REMARK    3  A    between atoms: N_17  and  C_18
REMARK    4  A    between atoms: C_18  and  C_20
REMARK    5  A    between atoms: C_18  and  C_21
REMARK    6  A    between atoms: C_24  and  S_27
REMARK    7  A    between atoms: S_27  and  N_30
REMARK                            x       y       z     vdW  Elec       q    Type
REMARK                         _______ _______ _______ _____ _____    ______ ____
ROOT
ATOM      1  C   UNL     1       1.128   8.693   0.034  0.00  0.00    +0.280 C 
ATOM      2  O   UNL     1       0.527   9.751   0.045  0.00  0.00    -0.267 OA
ATOM      3  N   UNL     1       2.475   8.683   0.022  0.00  0.00    -0.302 N 
ATOM      4  H   UNL     1       2.954   7.839   0.013  0.00  0.00    +0.150 HD
ENDROOT
BRANCH   1  18
ATOM      5  C   UNL     1      -1.969   8.438   0.062  0.00  0.00    +0.048 C 
ATOM      6  C   UNL     1      -0.970   7.309   0.047  0.00  0.00    +0.008 A 
ATOM      7  C   UNL     1      -1.263   5.922   0.043  0.00  0.00    +0.024 A 
ATOM      8  C   UNL     1      -2.468   5.190   0.051  0.00  0.00    +0.012 A 
ATOM      9  C   UNL     1      -2.456   3.837   0.044  0.00  0.00    +0.009 A 
ATOM     10  C   UNL     1      -1.232   3.135   0.030  0.00  0.00    -0.014 A 
ATOM     11  C   UNL     1      -1.207   1.731   0.017  0.00  0.00    +0.008 A 
ATOM     12  C   UNL     1      -0.013   1.076   0.008  0.00  0.00    +0.001 A 
ATOM     13  C   UNL     1       1.189   1.778   0.000  0.00  0.00    +0.001 A 
ATOM     14  C   UNL     1       1.202   3.141   0.007  0.00  0.00    +0.012 A 
ATOM     15  C   UNL     1      -0.009   3.848   0.022  0.00  0.00    +0.025 A 
ATOM     16  C   UNL     1      -0.031   5.260   0.029  0.00  0.00    +0.144 A 
ATOM     17  O   UNL     1       0.937   6.195   0.024  0.00  0.00    -0.449 OA
ATOM     18  C   UNL     1       0.384   7.426   0.035  0.00  0.00    +0.193 A 
ENDBRANCH   1  18
BRANCH   3  19
ATOM     19  C   UNL     1       3.217   9.946   0.021  0.00  0.00    +0.100 C 
ATOM     20  C   UNL     1       3.381  10.442   1.459  0.00  0.00    +0.033 C 
BRANCH  19  21
ATOM     21  C   UNL     1       4.576   9.730  -0.593  0.00  0.00    -0.027 A 
ATOM     22  C   UNL     1       5.289   8.580  -0.308  0.00  0.00    +0.007 A 
ATOM     23  C   UNL     1       6.533   8.380  -0.875  0.00  0.00    +0.029 A 
ATOM     24  C   UNL     1       7.070   9.334  -1.719  0.00  0.00    +0.105 A 
ATOM     25  C   UNL     1       6.360  10.486  -2.000  0.00  0.00    +0.029 A 
ATOM     26  C   UNL     1       5.113  10.684  -1.437  0.00  0.00    +0.007 A 
BRANCH  24  27
ATOM     27  S   UNL     1       8.660   9.082  -2.436  0.00  0.00    +0.056 S 
ATOM     28  O   UNL     1       8.882   7.678  -2.448  0.00  0.00    -0.153 OA
ATOM     29  O   UNL     1       8.702   9.870  -3.618  0.00  0.00    -0.153 OA
BRANCH  27  30
ATOM     30  N   UNL     1       9.774   9.728  -1.396  0.00  0.00    -0.204 NA
ATOM     31  H   UNL     1       9.482  10.145  -0.570  0.00  0.00    +0.144 HD
ATOM     32  H   UNL     1      10.719   9.690  -1.613  0.00  0.00    +0.144 HD
ENDBRANCH  27  30
ENDBRANCH  24  27
ENDBRANCH  19  21
ENDBRANCH   3  19
TORSDOF 5
