REMARK  Name = ZINC22762079
REMARK  5 active torsions:
REMARK  status: ('A' for Active; 'I' for Inactive)
REMARK    1  A    between atoms: C_1  and  N_2
REMARK    2  A    between atoms: N_2  and  C_3
REMARK    3  A    between atoms: N_2  and  S_17
REMARK    4  A    between atoms: C_3  and  C_4
REMARK    5  A    between atoms: S_17  and  C_20
REMARK                            x       y       z     vdW  Elec       q    Type
REMARK                         _______ _______ _______ _____ _____    ______ ____
ROOT
ATOM      1  C   UNL     1      -0.691   3.213  -1.897  0.00  0.00    +0.132 C 
ATOM      2  N   UNL     1      -0.897   1.885  -1.312  0.00  0.00    -0.171 NA
ENDROOT
BRANCH   2   3
ATOM      3  S   UNL     1      -0.017   1.417   0.010  0.00  0.00    +0.061 S 
ATOM      4  O   UNL     1       0.002  -0.004   0.002  0.00  0.00    -0.153 OA
ATOM      5  O   UNL     1       1.172   2.195   0.003  0.00  0.00    -0.153 OA
BRANCH   3   6
ATOM      6  C   UNL     1      -0.927   1.900   1.439  0.00  0.00    +0.109 A 
ATOM      7  C   UNL     1      -0.715   3.145   2.002  0.00  0.00    +0.032 A 
ATOM      8  C   UNL     1      -1.429   3.534   3.122  0.00  0.00    +0.051 A 
ATOM      9  C   UNL     1      -2.350   2.666   3.683  0.00  0.00    +0.162 A 
ATOM     10  C   UNL     1      -2.559   1.414   3.122  0.00  0.00    +0.164 A 
ATOM     11  C   UNL     1      -1.846   1.030   1.998  0.00  0.00    +0.078 A 
ATOM     12  O   UNL     1      -3.469   0.567   3.683  0.00  0.00    -0.488 OA
ATOM     13  C   UNL     1      -3.130   0.048   4.970  0.00  0.00    +0.232 C 
ATOM     14  C   UNL     1      -3.529   1.024   6.067  0.00  0.00    +0.082 C 
ATOM     15  C   UNL     1      -2.750   2.328   5.993  0.00  0.00    +0.232 C 
ATOM     16  O   UNL     1      -3.058   3.035   4.790  0.00  0.00    -0.488 OA
ENDBRANCH   3   6
ENDBRANCH   2   3
BRANCH   2  17
ATOM     17  C   UNL     1      -1.883   0.973  -1.897  0.00  0.00    +0.205 C 
BRANCH  17  18
ATOM     18  C   UNL     1      -3.246   1.275  -1.331  0.00  0.00    +0.236 C 
ATOM     19  O   UNL     1      -3.382   2.166  -0.519  0.00  0.00    -0.274 OA
ATOM     20  N   UNL     1      -4.315   0.556  -1.728  0.00  0.00    -0.260 N 
ATOM     21  C   UNL     1      -4.179  -0.524  -2.716  0.00  0.00    +0.209 C 
ATOM     22  C   UNL     1      -5.328  -0.459  -3.683  0.00  0.00    +0.235 C 
ATOM     23  O   UNL     1      -5.178  -0.856  -4.819  0.00  0.00    -0.274 OA
ATOM     24  N   UNL     1      -6.521   0.038  -3.305  0.00  0.00    -0.283 N 
ATOM     25  C   UNL     1      -6.707   0.548  -2.015  0.00  0.00    +0.055 A 
ATOM     26  C   UNL     1      -5.595   0.819  -1.215  0.00  0.00    +0.058 A 
ATOM     27  C   UNL     1      -5.763   1.335   0.057  0.00  0.00    +0.025 A 
ATOM     28  C   UNL     1      -7.038   1.580   0.536  0.00  0.00    +0.002 A 
ATOM     29  C   UNL     1      -8.141   1.310  -0.254  0.00  0.00    +0.002 A 
ATOM     30  C   UNL     1      -7.979   0.795  -1.527  0.00  0.00    +0.025 A 
ATOM     31  H   UNL     1      -7.363   0.046  -4.013  0.00  0.00    +0.155 HD
ENDBRANCH  17  18
ENDBRANCH   2  17
TORSDOF 4
