REMARK  Name = ZINC65265708
REMARK  5 active torsions:
REMARK  status: ('A' for Active; 'I' for Inactive)
REMARK    1  A    between atoms: C_1  and  C_2
REMARK    2  A    between atoms: C_2  and  N_3
REMARK    3  A    between atoms: C_6  and  C_8
REMARK    4  A    between atoms: N_25  and  C_26
REMARK    5  A    between atoms: C_26  and  C_27
REMARK                            x       y       z     vdW  Elec       q    Type
REMARK                         _______ _______ _______ _____ _____    ______ ____
ROOT
ATOM      1  C   UNL     1       3.541  -0.624   3.347  0.00  0.00    +0.267 C 
ATOM      2  O   UNL     1       3.703  -1.168   4.422  0.00  0.00    -0.268 OA
ATOM      3  N   UNL     1       4.536   0.105   2.804  0.00  0.00    -0.294 N 
ATOM      4  C   UNL     1       4.317   0.868   1.567  0.00  0.00    +0.108 C 
ATOM      5  C   UNL     1       5.388   0.471   0.546  0.00  0.00    +0.021 C 
ATOM      6  C   UNL     1       6.774   0.669   1.164  0.00  0.00    +0.036 C 
ATOM      7  C   UNL     1       6.919  -0.219   2.397  0.00  0.00    +0.102 C 
ATOM      8  C   UNL     1       5.861   0.157   3.439  0.00  0.00    +0.141 C 
ATOM      9  C   UNL     1       8.300  -0.046   2.992  0.00  0.00    +0.099 C 
ATOM     10  N   UNL     1       8.667  -0.947   3.977  0.00  0.00    -0.286 N 
ATOM     11  C   UNL     1       8.261  -2.279   3.825  0.00  0.00    +0.145 A 
ATOM     12  C   UNL     1       7.312  -2.613   2.858  0.00  0.00    +0.069 A 
ATOM     13  C   UNL     1       6.913  -3.936   2.727  0.00  0.00    +0.028 A 
ATOM     14  C   UNL     1       7.484  -4.882   3.569  0.00  0.00    +0.022 A 
ATOM     15  C   UNL     1       8.421  -4.481   4.499  0.00  0.00    +0.113 A 
ATOM     16  N   UNL     1       8.781  -3.215   4.603  0.00  0.00    -0.238 NA
ATOM     17  N   UNL     1       6.770  -1.631   2.018  0.00  0.00    -0.328 N 
ATOM     18  N   UNL     1       9.097   0.894   2.600  0.00  0.00    -0.370 N 
ATOM     19  H   UNL     1       6.307  -1.878   1.202  0.00  0.00    +0.147 HD
ATOM     20  H   UNL     1       8.814   1.512   1.908  0.00  0.00    +0.161 HD
ATOM     21  H   UNL     1       9.187  -0.665   4.745  0.00  0.00    +0.155 HD
ENDROOT
BRANCH   1  25
ATOM     22  N   UNL     1       0.712  -0.495   1.187  0.00  0.00    -0.271 N 
ATOM     23  C   UNL     1       0.215  -1.383   2.074  0.00  0.00    +0.109 A 
ATOM     24  C   UNL     1       1.165  -1.582   3.017  0.00  0.00    +0.054 A 
ATOM     25  C   UNL     1       2.253  -0.761   2.637  0.00  0.00    +0.147 A 
ATOM     26  N   UNL     1       1.902  -0.147   1.525  0.00  0.00    -0.167 NA
BRANCH  22  28
ATOM     27  C   UNL     1      -0.037   1.525   0.029  0.00  0.00    +0.029 C 
ATOM     28  C   UNL     1       0.000  -0.004   0.004  0.00  0.00    +0.140 C 
ENDBRANCH  22  28
ENDBRANCH   1  25
BRANCH  18  29
ATOM     29  C   UNL     1      10.426   1.027   3.203  0.00  0.00    +0.149 C 
BRANCH  29  30
ATOM     30  C   UNL     1      11.147   2.192   2.575  0.00  0.00    -0.028 A 
ATOM     31  C   UNL     1      11.925   1.997   1.449  0.00  0.00    +0.005 A 
ATOM     32  C   UNL     1      12.587   3.066   0.873  0.00  0.00    +0.000 A 
ATOM     33  C   UNL     1      12.471   4.329   1.423  0.00  0.00    +0.000 A 
ATOM     34  C   UNL     1      11.693   4.523   2.549  0.00  0.00    +0.000 A 
ATOM     35  C   UNL     1      11.027   3.456   3.122  0.00  0.00    +0.005 A 
ENDBRANCH  29  30
ENDBRANCH  18  29
TORSDOF 4
