REMARK  Name = ZINC51592234
REMARK  5 active torsions:
REMARK  status: ('A' for Active; 'I' for Inactive)
REMARK    1  A    between atoms: C_1  and  C_2
REMARK    2  A    between atoms: C_8  and  S_10
REMARK    3  A    between atoms: S_10  and  C_11
REMARK    4  A    between atoms: C_14  and  C_19
REMARK    5  A    between atoms: N_15  and  C_16
REMARK                            x       y       z     vdW  Elec       q    Type
REMARK                         _______ _______ _______ _____ _____    ______ ____
ROOT
ATOM      1  C   UNL     1       0.108  -6.161  -2.724  0.00  0.00    +0.199 A 
ATOM      2  N   UNL     1       0.117  -5.033  -3.394  0.00  0.00    -0.122 NA
ATOM      3  N   UNL     1       0.064  -5.268  -4.657  0.00  0.00    -0.128 NA
ATOM      4  C   UNL     1       0.017  -6.563  -4.870  0.00  0.00    +0.167 A 
ATOM      5  N   UNL     1       0.049  -7.176  -3.640  0.00  0.00    -0.299 N 
ENDROOT
BRANCH   4   6
ATOM      6  C   UNL     1      -0.052  -7.234  -6.184  0.00  0.00    +0.044 A 
ATOM      7  C   UNL     1       0.022  -8.570  -6.417  0.00  0.00    +0.095 A 
ATOM      8  N   UNL     1      -0.081  -8.810  -7.757  0.00  0.00    -0.360 N 
ATOM      9  H   UNL     1      -0.055  -9.688  -8.167  0.00  0.00    +0.165 HD
ATOM     10  C   UNL     1      -0.227  -7.623  -8.443  0.00  0.00    +0.047 A 
ATOM     11  C   UNL     1      -0.222  -6.586  -7.495  0.00  0.00    +0.010 A 
ATOM     12  C   UNL     1      -0.360  -5.262  -7.909  0.00  0.00    +0.011 A 
ATOM     13  C   UNL     1      -0.505  -4.978  -9.249  0.00  0.00    +0.001 A 
ATOM     14  C   UNL     1      -0.514  -6.002 -10.185  0.00  0.00    +0.002 A 
ATOM     15  C   UNL     1      -0.369  -7.315  -9.792  0.00  0.00    +0.026 A 
ENDBRANCH   4   6
BRANCH   5  16
ATOM     16  C   UNL     1       0.022  -8.615  -3.366  0.00  0.00    +0.091 C 
ATOM     17  C   UNL     1      -0.302  -9.056  -1.938  0.00  0.00    +0.027 C 
ATOM     18  C   UNL     1       1.126  -9.184  -2.473  0.00  0.00    +0.027 C 
ENDBRANCH   5  16
BRANCH   1  19
ATOM     19  S   UNL     1       0.168  -6.336  -0.972  0.00  0.00    -0.021 S 
BRANCH  19  27
ATOM     20  C   UNL     1       0.413   1.229   0.491  0.00  0.00    +0.067 C 
ATOM     21  C   UNL     1       0.371  -0.274   0.385  0.00  0.00    +0.059 A 
ATOM     22  C   UNL     1       0.310  -0.981  -0.758  0.00  0.00    +0.138 A 
ATOM     23  N   UNL     1       0.289  -2.328  -0.421  0.00  0.00    -0.213 N 
ATOM     24  C   UNL     1       0.339  -2.349   0.946  0.00  0.00    +0.196 A 
ATOM     25  N   UNL     1       0.393  -1.135   1.413  0.00  0.00    -0.225 NA
ATOM     26  S   UNL     1       0.309  -4.090   1.305  0.00  0.00    -0.021 S 
ATOM     27  C   UNL     1       0.231  -4.678  -0.380  0.00  0.00    +0.166 A 
ATOM     28  N   UNL     1       0.234  -3.563  -1.060  0.00  0.00    -0.150 NA
ENDBRANCH  19  27
ENDBRANCH   1  19
TORSDOF 4
