REMARK  Name = ZINC16814226
REMARK  9 active torsions:
REMARK  status: ('A' for Active; 'I' for Inactive)
REMARK    1  A    between atoms: C_4  and  C_7
REMARK    2  A    between atoms: C_7  and  C_9
REMARK    3  A    between atoms: C_7  and  O_22
REMARK    4  A    between atoms: N_11  and  C_12
REMARK    5  A    between atoms: C_15  and  N_19
REMARK    6  A    between atoms: O_22  and  C_23
REMARK    7  A    between atoms: C_23  and  C_25
REMARK    8  A    between atoms: C_27  and  N_32
REMARK    9  A    between atoms: C_30  and  N_31
REMARK                            x       y       z     vdW  Elec       q    Type
REMARK                         _______ _______ _______ _____ _____    ______ ____
ROOT
ATOM      1  C   UNL     1       1.341   3.630  -0.774  0.00  0.00    +0.292 C 
ENDROOT
BRANCH   1   5
ATOM      2  C   UNL     1       1.516  -0.638  -0.723  0.00  0.00    +0.000 A 
ATOM      3  C   UNL     1       0.292   0.004  -0.700  0.00  0.00    +0.000 A 
ATOM      4  C   UNL     1       0.235   1.385  -0.716  0.00  0.00    +0.008 A 
ATOM      5  C   UNL     1       1.403   2.124  -0.755  0.00  0.00    +0.002 A 
ATOM      6  C   UNL     1       2.627   1.482  -0.779  0.00  0.00    +0.008 A 
ATOM      7  C   UNL     1       2.683   0.101  -0.762  0.00  0.00    +0.000 A 
ENDBRANCH   1   5
BRANCH   1   8
ATOM      8  C   UNL     1       1.409   4.118  -2.198  0.00  0.00    +0.263 C 
ATOM      9  O   UNL     1       2.359   4.774  -2.570  0.00  0.00    -0.271 OA
ATOM     10  N   UNL     1       0.413   3.826  -3.058  0.00  0.00    -0.281 N 
ATOM     11  H   UNL     1      -0.316   3.251  -2.779  0.00  0.00    +0.155 HD
BRANCH  10  12
ATOM     12  C   UNL     1       0.432   4.354  -4.355  0.00  0.00    +0.052 A 
ATOM     13  C   UNL     1       1.639   4.534  -5.016  0.00  0.00    +0.027 A 
ATOM     14  C   UNL     1       1.654   5.055  -6.295  0.00  0.00    +0.034 A 
ATOM     15  C   UNL     1       0.468   5.397  -6.918  0.00  0.00    +0.128 A 
ATOM     16  C   UNL     1      -0.737   5.220  -6.263  0.00  0.00    +0.054 A 
ATOM     17  C   UNL     1      -0.759   4.694  -4.985  0.00  0.00    +0.064 A 
ATOM     18 CL   UNL     1      -2.272   4.464  -4.166  0.00  0.00    -0.082 Cl
BRANCH  15  19
ATOM     19  N   UNL     1       0.488   5.955  -8.289  0.00  0.00    +0.056 N 
ATOM     20  O   UNL     1       1.548   6.112  -8.867  0.00  0.00    -0.126 OA
ATOM     21  O   UNL     1      -0.556   6.257  -8.839  0.00  0.00    -0.126 OA
ENDBRANCH  15  19
ENDBRANCH  10  12
ENDBRANCH   1   8
BRANCH   1  22
ATOM     22  O   UNL     1       2.462   4.169  -0.024  0.00  0.00    -0.443 OA
BRANCH  22  23
ATOM     23  C   UNL     1       2.270   4.382   1.293  0.00  0.00    +0.342 C 
ATOM     24  O   UNL     1       1.197   4.123   1.801  0.00  0.00    -0.245 OA
BRANCH  23  25
ATOM     25  C   UNL     1       3.362   4.927   2.118  0.00  0.00    +0.082 A 
ATOM     26  C   UNL     1       4.559   5.334   1.520  0.00  0.00    +0.049 A 
ATOM     27  C   UNL     1       5.574   5.848   2.296  0.00  0.00    +0.127 A 
ATOM     28  C   UNL     1       5.421   5.955   3.669  0.00  0.00    +0.034 A 
ATOM     29  C   UNL     1       4.249   5.552   4.275  0.00  0.00    +0.026 A 
ATOM     30  C   UNL     1       3.211   5.036   3.509  0.00  0.00    +0.039 A 
BRANCH  30  31
ATOM     31  N   UNL     1       2.030   4.629   4.116  0.00  0.00    -0.357 N 
ATOM     32  H   UNL     1       1.280   4.341   3.574  0.00  0.00    +0.142 HD
ATOM     33  H   UNL     1       1.956   4.633   5.084  0.00  0.00    +0.142 HD
ENDBRANCH  30  31
BRANCH  27  34
ATOM     34  N   UNL     1       6.838   6.284   1.660  0.00  0.00    +0.056 N 
ATOM     35  O   UNL     1       7.739   6.735   2.344  0.00  0.00    -0.126 OA
ATOM     36  O   UNL     1       6.976   6.192   0.453  0.00  0.00    -0.126 OA
ENDBRANCH  27  34
ENDBRANCH  23  25
ENDBRANCH  22  23
ENDBRANCH   1  22
TORSDOF 9
