REMARK  Name = ZINC64626373
REMARK  7 active torsions:
REMARK  status: ('A' for Active; 'I' for Inactive)
REMARK    1  A    between atoms: C_4  and  C_7
REMARK    2  A    between atoms: C_9  and  C_13
REMARK    3  A    between atoms: C_13  and  N_14
REMARK    4  A    between atoms: C_21  and  C_23
REMARK    5  A    between atoms: N_25  and  C_26
REMARK    6  A    between atoms: C_26  and  C_27
REMARK    7  A    between atoms: C_27  and  C_28
REMARK                            x       y       z     vdW  Elec       q    Type
REMARK                         _______ _______ _______ _____ _____    ______ ____
ROOT
ATOM      1  N   UNL     1       6.549  -0.355   2.376  0.00  0.00    +0.382 N 
ATOM      2  C   UNL     1       6.491  -1.776   2.736  0.00  0.00    -0.078 C 
ATOM      3  C   UNL     1       5.832  -1.930   4.112  0.00  0.00    -0.011 C 
ATOM      4  C   UNL     1       6.617  -1.089   5.125  0.00  0.00    -0.021 C 
ATOM      5  C   UNL     1       6.862   0.362   4.698  0.00  0.00    -0.011 C 
ATOM      6  C   UNL     1       7.452   0.362   3.284  0.00  0.00    -0.078 C 
ATOM      7  C   UNL     1       7.705  -1.787   5.939  0.00  0.00    +0.020 C 
ATOM      8  C   UNL     1       6.394  -1.369   6.609  0.00  0.00    +0.082 C 
ATOM      9  H   UNL     1       5.624   0.042   2.442  0.00  0.00    -0.082 HD
ENDROOT
BRANCH   8  10
ATOM     10  C   UNL     1       6.438  -0.195   7.553  0.00  0.00    +0.217 C 
ATOM     11  O   UNL     1       6.644   0.920   7.124  0.00  0.00    -0.275 OA
ATOM     12  N   UNL     1       6.247  -0.385   8.874  0.00  0.00    -0.315 N 
ATOM     13  H   UNL     1       6.082  -1.277   9.217  0.00  0.00    +0.149 HD
BRANCH  12  14
ATOM     14  C   UNL     1       6.290   0.757   9.791  0.00  0.00    +0.108 C 
BRANCH  14  15
ATOM     15  C   UNL     1       6.046   0.271  11.222  0.00  0.00    +0.052 C 
BRANCH  15  16
ATOM     16  C   UNL     1       6.090   1.445  12.165  0.00  0.00    -0.040 C 
ATOM     17  C   UNL     1       5.037   2.163  12.620  0.00  0.00    -0.001 A 
ATOM     18  C   UNL     1       3.592   2.070  12.380  0.00  0.00    +0.010 A 
ATOM     19  C   UNL     1       2.768   2.951  12.990  0.00  0.00    +0.001 A 
ATOM     20  C   UNL     1       3.258   3.949  13.844  0.00  0.00    +0.002 A 
ATOM     21  C   UNL     1       4.572   4.098  14.113  0.00  0.00    +0.026 A 
ATOM     22  C   UNL     1       5.529   3.225  13.526  0.00  0.00    +0.043 A 
ATOM     23  N   UNL     1       6.835   3.166  13.627  0.00  0.00    -0.380 N 
ATOM     24  C   UNL     1       7.319   2.055  12.801  0.00  0.00    +0.144 C 
ATOM     25  H   UNL     1       7.388   3.756  14.163  0.00  0.00    +0.160 HD
ENDBRANCH  15  16
ENDBRANCH  14  15
ENDBRANCH  12  14
ENDBRANCH   8  10
BRANCH   1  26
ATOM     26  C   UNL     1       7.038  -0.222   0.997  0.00  0.00    -0.041 C 
BRANCH  26  29
ATOM     27  C   UNL     1       7.300   3.210   1.783  0.00  0.00    +0.054 C 
ATOM     28  N   UNL     1       7.757   2.134   1.287  0.00  0.00    -0.275 NA
ATOM     29  C   UNL     1       6.870   1.226   0.533  0.00  0.00    +0.146 C 
ATOM     30  S   UNL     1       5.213   1.889   1.007  0.00  0.00    -0.130 S 
ATOM     31  C   UNL     1       5.826   3.531   1.587  0.00  0.00    +0.126 C 
BRANCH  27  35
ATOM     32  C   UNL     1       9.825   5.845   3.953  0.00  0.00    +0.000 A 
ATOM     33  C   UNL     1      10.344   4.680   3.416  0.00  0.00    +0.001 A 
ATOM     34  C   UNL     1       9.530   3.820   2.710  0.00  0.00    +0.010 A 
ATOM     35  C   UNL     1       8.178   4.126   2.538  0.00  0.00    -0.003 A 
ATOM     36  C   UNL     1       7.661   5.303   3.083  0.00  0.00    +0.010 A 
ATOM     37  C   UNL     1       8.487   6.155   3.786  0.00  0.00    +0.001 A 
ENDBRANCH  27  35
ENDBRANCH  26  29
ENDBRANCH   1  26
TORSDOF 7
