REMARK  Name = ZINC11865069
REMARK  10 active torsions:
REMARK  status: ('A' for Active; 'I' for Inactive)
REMARK    1  A    between atoms: C_1  and  C_2
REMARK    2  A    between atoms: C_2  and  C_4
REMARK    3  A    between atoms: C_4  and  O_5
REMARK    4  A    between atoms: O_5  and  C_6
REMARK    5  A    between atoms: C_9  and  C_13
REMARK    6  A    between atoms: C_10  and  O_12
REMARK    7  A    between atoms: C_14  and  C_24
REMARK    8  A    between atoms: C_15  and  C_20
REMARK    9  A    between atoms: C_29  and  O_30
REMARK   10  A    between atoms: O_30  and  C_31
REMARK                            x       y       z     vdW  Elec       q    Type
REMARK                         _______ _______ _______ _____ _____    ______ ____
ROOT
ATOM      1  C   UNL     1      -5.423  -5.645   0.024  0.00  0.00    +0.088 A 
ATOM      2  C   UNL     1      -6.734  -5.137   0.134  0.00  0.00    +0.042 A 
ATOM      3  C   UNL     1      -7.794  -6.043   0.135  0.00  0.00    +0.157 A 
ATOM      4  N   UNL     1      -7.536  -7.336   0.034  0.00  0.00    -0.210 NA
ATOM      5  C   UNL     1      -6.292  -7.781  -0.069  0.00  0.00    +0.214 A 
ATOM      6  N   UNL     1      -5.252  -6.961  -0.080  0.00  0.00    -0.214 NA
ATOM      7  N   UNL     1      -6.072  -9.143  -0.172  0.00  0.00    -0.327 N 
ATOM      8  H   UNL     1      -6.824  -9.757  -0.169  0.00  0.00    +0.145 HD
ATOM      9  H   UNL     1      -5.168  -9.485  -0.248  0.00  0.00    +0.145 HD
ENDROOT
BRANCH   1  13
ATOM     10  C   UNL     1      -2.079  -3.018   0.004  0.00  0.00    +0.124 A 
ATOM     11  C   UNL     1      -3.103  -2.847  -0.919  0.00  0.00    +0.046 A 
ATOM     12  C   UNL     1      -4.188  -3.696  -0.916  0.00  0.00    +0.017 A 
ATOM     13  C   UNL     1      -4.260  -4.732   0.017  0.00  0.00    +0.043 A 
ATOM     14  C   UNL     1      -3.227  -4.903   0.947  0.00  0.00    +0.129 A 
ATOM     15  C   UNL     1      -2.139  -4.047   0.932  0.00  0.00    +0.091 A 
BRANCH  14  16
ATOM     16  O   UNL     1      -3.290  -5.909   1.857  0.00  0.00    -0.506 OA
ATOM     17  H   UNL     1      -2.890  -6.736   1.558  0.00  0.00    +0.292 HD
ENDBRANCH  14  16
BRANCH  10  18
ATOM     18  O   UNL     1      -1.012  -2.177  -0.005  0.00  0.00    -0.488 OA
BRANCH  18  19
ATOM     19  C   UNL     1      -1.014  -1.138  -0.986  0.00  0.00    +0.259 C 
BRANCH  19  21
ATOM     20  C   UNL     1       0.480   0.855  -1.768  0.00  0.00    +0.042 C 
ATOM     21  C   UNL     1       0.239  -0.312  -0.845  0.00  0.00    -0.043 C 
ATOM     22  C   UNL     1       1.117  -0.608   0.081  0.00  0.00    +0.011 C 
ENDBRANCH  19  21
ENDBRANCH  18  19
ENDBRANCH  10  18
ENDBRANCH   1  13
BRANCH   2  23
ATOM     23  C   UNL     1      -6.978  -3.679   0.246  0.00  0.00    +0.028 A 
ATOM     24  C   UNL     1      -7.168  -2.911  -0.901  0.00  0.00    +0.012 A 
ATOM     25  C   UNL     1      -7.396  -1.555  -0.791  0.00  0.00    +0.001 A 
ATOM     26  C   UNL     1      -7.434  -0.953   0.454  0.00  0.00    +0.004 A 
ATOM     27  C   UNL     1      -7.246  -1.705   1.599  0.00  0.00    +0.046 A 
ATOM     28  C   UNL     1      -7.024  -3.070   1.504  0.00  0.00    +0.128 A 
BRANCH  28  29
ATOM     29  O   UNL     1      -6.845  -3.811   2.628  0.00  0.00    -0.495 OA
ATOM     30  C   UNL     1      -6.905  -3.120   3.877  0.00  0.00    +0.277 C 
ENDBRANCH  28  29
ENDBRANCH   2  23
BRANCH   3  31
ATOM     31  C   UNL     1      -9.215  -5.555   0.251  0.00  0.00    +0.435 C 
ATOM     32  F   UNL     1      -9.732  -5.315  -1.027  0.00  0.00    -0.164 F 
ATOM     33  F   UNL     1      -9.991  -6.526   0.893  0.00  0.00    -0.164 F 
ATOM     34  F   UNL     1      -9.242  -4.370   0.994  0.00  0.00    -0.164 F 
ENDBRANCH   3  31
TORSDOF 8
