REMARK  Name = ZINC11997381
REMARK  17 active torsions:
REMARK  status: ('A' for Active; 'I' for Inactive)
REMARK    1  A    between atoms: C_1  and  C_2
REMARK    2  A    between atoms: C_7  and  C_8
REMARK    3  A    between atoms: C_8  and  C_9
REMARK    4  A    between atoms: C_9  and  N_67
REMARK    5  A    between atoms: C_10  and  C_11
REMARK    6  A    between atoms: C_10  and  N_67
REMARK    7  A    between atoms: C_14  and  O_31
REMARK    8  A    between atoms: C_15  and  O_17
REMARK    9  A    between atoms: O_17  and  C_18
REMARK   10  A    between atoms: C_18  and  C_19
REMARK   11  A    between atoms: C_19  and  C_21
REMARK   12  A    between atoms: C_19  and  O_30
REMARK   13  A    between atoms: C_21  and  N_70
REMARK   14  A    between atoms: C_22  and  N_70
REMARK   15  A    between atoms: C_23  and  C_24
REMARK   16  A    between atoms: C_23  and  N_70
REMARK   17  A    between atoms: O_31  and  C_32
REMARK                            x       y       z     vdW  Elec       q    Type
REMARK                         _______ _______ _______ _____ _____    ______ ____
ROOT
ATOM      1  C   UNL     1       1.227  -2.064  -0.021  0.00  0.00    -0.061 A 
ATOM      2  C   UNL     1       0.041  -2.773  -0.013  0.00  0.00    +0.005 A 
ATOM      3  C   UNL     1      -1.168  -2.103   0.002  0.00  0.00    +0.049 A 
ATOM      4  C   UNL     1      -1.192  -0.718   0.010  0.00  0.00    +0.162 A 
ATOM      5  C   UNL     1       0.002  -0.004   0.002  0.00  0.00    +0.162 A 
ATOM      6  C   UNL     1       1.210  -0.682  -0.019  0.00  0.00    +0.051 A 
ENDROOT
BRANCH   4   7
ATOM      7  O   UNL     1      -2.381  -0.057   0.024  0.00  0.00    -0.491 OA
ATOM      8  C   UNL     1      -3.567  -0.854   0.031  0.00  0.00    +0.277 C 
ENDBRANCH   4   7
BRANCH   1   9
ATOM      9  C   UNL     1       2.542  -2.800  -0.038  0.00  0.00    -0.047 C 
BRANCH   9  10
ATOM     10  N   UNL     1       2.950  -3.029  -1.437  0.00  0.00    +0.382 N 
ATOM     11  H   UNL     1       2.232  -3.587  -1.912  0.00  0.00    -0.085 HD
ATOM     12  H   UNL     1       3.051  -2.124  -1.913  0.00  0.00    -0.085 HD
BRANCH  10  13
ATOM     13  C   UNL     1       4.237  -3.748  -1.484  0.00  0.00    -0.077 C 
BRANCH  13  14
ATOM     14  C   UNL     1       4.634  -3.971  -2.945  0.00  0.00    +0.016 C 
BRANCH  14  21
ATOM     15  C   UNL     1       4.684  -6.855  -2.781  0.00  0.00    +0.044 C 
ATOM     16  C   UNL     1       5.972  -6.085  -2.924  0.00  0.00    -0.047 A 
ATOM     17  C   UNL     1       7.178  -6.760  -2.977  0.00  0.00    +0.003 A 
ATOM     18  C   UNL     1       8.360  -6.055  -3.108  0.00  0.00    +0.000 A 
ATOM     19  C   UNL     1       8.335  -4.674  -3.186  0.00  0.00    +0.000 A 
ATOM     20  C   UNL     1       7.130  -4.000  -3.139  0.00  0.00    +0.004 A 
ATOM     21  C   UNL     1       5.948  -4.706  -3.002  0.00  0.00    -0.046 A 
ENDBRANCH  14  21
ENDBRANCH  13  14
ENDBRANCH  10  13
ENDBRANCH   9  10
ENDBRANCH   1   9
BRANCH   5  22
ATOM     22  O   UNL     1      -0.016   1.356   0.009  0.00  0.00    -0.486 OA
BRANCH  22  23
ATOM     23  C   UNL     1       1.248   2.022   0.001  0.00  0.00    +0.258 C 
BRANCH  23  24
ATOM     24  C   UNL     1       1.027   3.536   0.011  0.00  0.00    +0.135 C 
BRANCH  24  25
ATOM     25  O   UNL     1       0.406   3.918   1.240  0.00  0.00    -0.390 OA
ATOM     26  H   UNL     1       0.925   3.700   2.027  0.00  0.00    +0.210 HD
ENDBRANCH  24  25
BRANCH  24  27
ATOM     27  C   UNL     1       2.374   4.249  -0.123  0.00  0.00    -0.044 C 
BRANCH  27  29
ATOM     28  C   UNL     1       1.417   6.134  -1.304  0.00  0.00    -0.096 C 
ATOM     29  N   UNL     1       2.146   5.709  -0.091  0.00  0.00    +0.382 N 
ATOM     30  H   UNL     1       1.581   5.939   0.735  0.00  0.00    -0.082 HD
BRANCH  29  31
ATOM     31  C   UNL     1       3.439   6.420  -0.003  0.00  0.00    -0.043 C 
BRANCH  31  32
ATOM     32  C   UNL     1       3.173   7.881   0.251  0.00  0.00    -0.064 A 
ATOM     33  C   UNL     1       3.046   8.755  -0.813  0.00  0.00    +0.002 A 
ATOM     34  C   UNL     1       2.797  10.095  -0.580  0.00  0.00    +0.000 A 
ATOM     35  C   UNL     1       2.686  10.563   0.716  0.00  0.00    +0.000 A 
ATOM     36  C   UNL     1       2.819   9.690   1.779  0.00  0.00    +0.000 A 
ATOM     37  C   UNL     1       3.062   8.349   1.547  0.00  0.00    +0.002 A 
ENDBRANCH  31  32
ENDBRANCH  29  31
ENDBRANCH  27  29
ENDBRANCH  24  27
ENDBRANCH  23  24
ENDBRANCH  22  23
ENDBRANCH   5  22
TORSDOF 14
