REMARK  Name = ZINC43746554
REMARK  7 active torsions:
REMARK  status: ('A' for Active; 'I' for Inactive)
REMARK    1  A    between atoms: C_1  and  C_2
REMARK    2  A    between atoms: C_2  and  C_4
REMARK    3  A    between atoms: C_2  and  N_15
REMARK    4  A    between atoms: N_6  and  C_7
REMARK    5  A    between atoms: C_7  and  C_8
REMARK    6  A    between atoms: C_8  and  C_9
REMARK    7  A    between atoms: C_16  and  C_18
REMARK                            x       y       z     vdW  Elec       q    Type
REMARK                         _______ _______ _______ _____ _____    ______ ____
ROOT
ATOM      1  C   UNL     1      -3.465  -1.164  -1.134  0.00  0.00    +0.167 C 
ATOM      2  C   UNL     1      -4.358  -0.228  -0.308  0.00  0.00    +0.069 C 
ATOM      3  C   UNL     1      -4.746   0.978  -1.124  0.00  0.00    -0.015 A 
ATOM      4  C   UNL     1      -5.297   2.229  -0.636  0.00  0.00    +0.003 A 
ATOM      5  C   UNL     1      -5.607   2.686   0.648  0.00  0.00    +0.010 A 
ATOM      6  C   UNL     1      -6.127   3.953   0.747  0.00  0.00    +0.001 A 
ATOM      7  C   UNL     1      -6.340   4.750  -0.367  0.00  0.00    +0.002 A 
ATOM      8  C   UNL     1      -6.042   4.323  -1.649  0.00  0.00    +0.026 A 
ATOM      9  C   UNL     1      -5.511   3.041  -1.779  0.00  0.00    +0.047 A 
ATOM     10  N   UNL     1      -5.109   2.322  -2.868  0.00  0.00    -0.356 N 
ATOM     11  H   UNL     1      -5.146   2.632  -3.786  0.00  0.00    +0.166 HD
ATOM     12  C   UNL     1      -4.645   1.099  -2.467  0.00  0.00    +0.046 A 
ATOM     13  C   UNL     1      -4.072   0.016  -3.349  0.00  0.00    +0.155 C 
ATOM     14  N   UNL     1      -3.991  -1.199  -2.502  0.00  0.00    -0.273 N 
ATOM     15  C   UNL     1      -4.498  -2.231  -3.189  0.00  0.00    +0.248 C 
ATOM     16  O   UNL     1      -4.383  -3.401  -2.882  0.00  0.00    -0.270 OA
ATOM     17  C   UNL     1      -5.213  -1.732  -4.369  0.00  0.00    +0.042 A 
ATOM     18  C   UNL     1      -4.964  -0.327  -4.492  0.00  0.00    -0.009 A 
ATOM     19  C   UNL     1      -5.504   0.436  -5.504  0.00  0.00    +0.006 A 
ATOM     20  C   UNL     1      -6.299  -0.222  -6.437  0.00  0.00    +0.000 A 
ATOM     21  C   UNL     1      -6.540  -1.579  -6.360  0.00  0.00    +0.001 A 
ATOM     22  C   UNL     1      -6.008  -2.398  -5.304  0.00  0.00    +0.013 A 
ENDROOT
BRANCH   1  24
ATOM     23  N   UNL     1      -1.372  -0.511   0.012  0.00  0.00    -0.303 N 
ATOM     24  C   UNL     1      -2.051  -0.643  -1.145  0.00  0.00    +0.235 C 
ATOM     25  O   UNL     1      -1.524  -0.341  -2.194  0.00  0.00    -0.274 OA
ATOM     26  H   UNL     1      -1.794  -0.752   0.852  0.00  0.00    +0.149 HD
BRANCH  23  28
ATOM     27  C   UNL     1      -0.019   1.526   0.010  0.00  0.00    +0.038 C 
ATOM     28  C   UNL     1       0.002  -0.004   0.002  0.00  0.00    +0.156 C 
BRANCH  28  29
ATOM     29  C   UNL     1       0.731  -0.503   1.223  0.00  0.00    +0.233 C 
ATOM     30  O   UNL     1       0.159  -1.213   2.023  0.00  0.00    -0.274 OA
ATOM     31  N   UNL     1       2.019  -0.161   1.426  0.00  0.00    -0.313 N 
ATOM     32  H   UNL     1       2.476   0.406   0.786  0.00  0.00    +0.149 HD
BRANCH  31  33
ATOM     33  C   UNL     1       2.727  -0.647   2.613  0.00  0.00    +0.109 C 
BRANCH  33  34
ATOM     34  C   UNL     1       4.163  -0.117   2.602  0.00  0.00    +0.054 C 
BRANCH  34  35
ATOM     35  C   UNL     1       4.891  -0.616   3.823  0.00  0.00    -0.046 A 
ATOM     36  C   UNL     1       4.868   0.121   4.992  0.00  0.00    +0.004 A 
ATOM     37  C   UNL     1       5.537  -0.336   6.111  0.00  0.00    +0.000 A 
ATOM     38  C   UNL     1       6.228  -1.532   6.063  0.00  0.00    +0.000 A 
ATOM     39  C   UNL     1       6.251  -2.271   4.894  0.00  0.00    +0.000 A 
ATOM     40  C   UNL     1       5.579  -1.815   3.775  0.00  0.00    +0.004 A 
ENDBRANCH  34  35
ENDBRANCH  33  34
ENDBRANCH  31  33
ENDBRANCH  28  29
ENDBRANCH  23  28
ENDBRANCH   1  24
TORSDOF 6
