REMARK  Name = ZINC04598060
REMARK  5 active torsions:
REMARK  status: ('A' for Active; 'I' for Inactive)
REMARK    1  A    between atoms: C_1  and  C_2
REMARK    2  A    between atoms: C_3  and  C_19
REMARK    3  A    between atoms: C_4  and  C_12
REMARK    4  A    between atoms: C_19  and  O_21
REMARK    5  A    between atoms: O_21  and  C_22
REMARK                            x       y       z     vdW  Elec       q    Type
REMARK                         _______ _______ _______ _____ _____    ______ ____
ROOT
ATOM      1  C   UNL     1      -0.018   1.503   0.010  0.00  0.00    +0.061 C 
ATOM      2  C   UNL     1       0.002  -0.004   0.002  0.00  0.00    +0.020 C 
ATOM      3  C   UNL     1      -1.164  -0.668   0.004  0.00  0.00    +0.082 C 
ATOM      4  C   UNL     1      -1.254  -2.171  -0.016  0.00  0.00    +0.179 C 
ATOM      5  N   UNL     1       0.064  -2.740   0.255  0.00  0.00    -0.221 N 
ATOM      6  C   UNL     1       1.210  -2.015   0.249  0.00  0.00    +0.218 A 
ATOM      7  N   UNL     1       2.199  -2.823   0.519  0.00  0.00    -0.201 NA
ATOM      8  C   UNL     1       1.727  -4.060   0.707  0.00  0.00    +0.247 A 
ATOM      9  N   UNL     1       0.426  -4.052   0.555  0.00  0.00    -0.156 NA
ATOM     10  N   UNL     1       1.212  -0.651  -0.013  0.00  0.00    -0.287 N 
ATOM     11  H   UNL     1       2.037  -0.173  -0.196  0.00  0.00    +0.155 HD
ENDROOT
BRANCH   4  12
ATOM     12  C   UNL     1      -1.730  -2.628  -1.371  0.00  0.00    -0.017 A 
ATOM     13  C   UNL     1      -0.992  -2.327  -2.501  0.00  0.00    +0.006 A 
ATOM     14  C   UNL     1      -1.428  -2.746  -3.744  0.00  0.00    +0.001 A 
ATOM     15  C   UNL     1      -2.602  -3.466  -3.858  0.00  0.00    +0.015 A 
ATOM     16  C   UNL     1      -3.341  -3.768  -2.728  0.00  0.00    +0.018 A 
ATOM     17  C   UNL     1      -2.901  -3.353  -1.484  0.00  0.00    +0.021 A 
ATOM     18 BR   UNL     1      -4.948  -4.752  -2.884  0.00  0.00    -0.050 Br
ENDBRANCH   4  12
BRANCH   3  19
ATOM     19  C   UNL     1      -2.364   0.077   0.027  0.00  0.00    +0.339 C 
ATOM     20  O   UNL     1      -2.324   1.293   0.044  0.00  0.00    -0.245 OA
BRANCH  19  21
ATOM     21  O   UNL     1      -3.554  -0.559   0.029  0.00  0.00    -0.458 OA
BRANCH  21  22
ATOM     22  C   UNL     1      -4.726   0.257   0.053  0.00  0.00    +0.177 C 
ATOM     23  C   UNL     1      -5.159   0.570  -1.381  0.00  0.00    +0.044 C 
ATOM     24  C   UNL     1      -6.414   1.444  -1.356  0.00  0.00    +0.004 C 
ATOM     25  C   UNL     1      -7.540   0.700  -0.634  0.00  0.00    +0.000 C 
ATOM     26  C   UNL     1      -7.107   0.388   0.800  0.00  0.00    +0.004 C 
ATOM     27  C   UNL     1      -5.852  -0.486   0.775  0.00  0.00    +0.044 C 
ENDBRANCH  21  22
ENDBRANCH  19  21
ENDBRANCH   3  19
TORSDOF 4
