REMARK  Name = ZINC21332778
REMARK  7 active torsions:
REMARK  status: ('A' for Active; 'I' for Inactive)
REMARK    1  A    between atoms: C_1  and  C_2
REMARK    2  A    between atoms: C_7  and  N_8
REMARK    3  A    between atoms: C_9  and  C_11
REMARK    4  A    between atoms: C_11  and  C_13
REMARK    5  A    between atoms: C_11  and  S_14
REMARK    6  A    between atoms: S_14  and  C_15
REMARK    7  A    between atoms: C_25  and  C_29
REMARK                            x       y       z     vdW  Elec       q    Type
REMARK                         _______ _______ _______ _____ _____    ______ ____
ROOT
ATOM      1  C   UNL     1      -2.551  -0.123   2.168  0.00  0.00    +0.192 A 
ATOM      2  N   UNL     1      -1.803   0.541   3.042  0.00  0.00    -0.207 NA
ATOM      3  C   UNL     1      -2.331   1.223   4.045  0.00  0.00    +0.129 A 
ATOM      4  C   UNL     1      -3.746   1.251   4.197  0.00  0.00    +0.051 A 
ATOM      5  C   UNL     1      -4.542   1.932   5.221  0.00  0.00    -0.025 A 
ATOM      6  C   UNL     1      -5.881   1.800   5.142  0.00  0.00    -0.004 A 
ATOM      7  S   UNL     1      -6.163   0.777   3.722  0.00  0.00    -0.073 S 
ATOM      8  C   UNL     1      -4.476   0.526   3.235  0.00  0.00    +0.115 A 
ATOM      9  N   UNL     1      -3.874  -0.127   2.259  0.00  0.00    -0.214 NA
ATOM     10  C   UNL     1      -6.907   2.394   6.059  0.00  0.00    +0.046 C 
ATOM     11  C   UNL     1      -6.232   3.487   6.900  0.00  0.00    -0.009 C 
ATOM     12  C   UNL     1      -4.921   2.932   7.464  0.00  0.00    +0.008 C 
ATOM     13  C   UNL     1      -3.904   2.757   6.335  0.00  0.00    +0.037 C 
ATOM     14  C   UNL     1      -7.155   3.892   8.051  0.00  0.00    +0.008 C 
ATOM     15  N   UNL     1      -1.518   1.901   4.934  0.00  0.00    -0.343 N 
ATOM     16  H   UNL     1      -1.964   2.466   5.766  0.00  0.00    +0.144 HD
ATOM     17  H   UNL     1      -0.425   1.874   4.811  0.00  0.00    +0.144 HD
ENDROOT
BRANCH   1  18
ATOM     18  S   UNL     1      -1.771  -1.008   0.860  0.00  0.00    -0.073 S 
BRANCH  18  19
ATOM     19  C   UNL     1      -0.036  -0.649   1.228  0.00  0.00    +0.137 C 
ATOM     20  C   UNL     1       0.222   0.850   1.056  0.00  0.00    +0.029 C 
BRANCH  19  22
ATOM     21  N   UNL     1       2.111  -1.729   0.642  0.00  0.00    -0.284 N 
ATOM     22  C   UNL     1       0.848  -1.422   0.283  0.00  0.00    +0.230 C 
ATOM     23  O   UNL     1       0.424  -1.767  -0.799  0.00  0.00    -0.274 OA
ATOM     24  H   UNL     1       2.472  -1.481   1.651  0.00  0.00    +0.155 HD
BRANCH  21  31
ATOM     25  C   UNL     1       4.911  -1.287   0.885  0.00  0.00    +0.045 C 
ATOM     26  C   UNL     1       4.335  -2.175  -0.187  0.00  0.00    -0.029 A 
ATOM     27  C   UNL     1       5.172  -2.804  -1.089  0.00  0.00    +0.005 A 
ATOM     28  C   UNL     1       4.644  -3.620  -2.072  0.00  0.00    +0.000 A 
ATOM     29  C   UNL     1       3.277  -3.810  -2.157  0.00  0.00    +0.002 A 
ATOM     30  C   UNL     1       2.435  -3.189  -1.256  0.00  0.00    +0.023 A 
ATOM     31  C   UNL     1       2.962  -2.364  -0.270  0.00  0.00    +0.036 A 
ENDBRANCH  21  31
ENDBRANCH  19  22
ENDBRANCH  18  19
ENDBRANCH   1  18
TORSDOF 4
