REMARK  Name = ZINC22204938
REMARK  11 active torsions:
REMARK  status: ('A' for Active; 'I' for Inactive)
REMARK    1  A    between atoms: C_1  and  C_2
REMARK    2  A    between atoms: C_2  and  C_3
REMARK    3  A    between atoms: C_3  and  C_4
REMARK    4  A    between atoms: C_4  and  N_5
REMARK    5  A    between atoms: C_21  and  C_26
REMARK    6  A    between atoms: C_28  and  O_36
REMARK    7  A    between atoms: C_29  and  O_34
REMARK    8  A    between atoms: C_30  and  O_32
REMARK    9  A    between atoms: O_32  and  C_33
REMARK   10  A    between atoms: O_34  and  C_35
REMARK   11  A    between atoms: O_36  and  C_37
REMARK                            x       y       z     vdW  Elec       q    Type
REMARK                         _______ _______ _______ _____ _____    ______ ____
ROOT
ATOM      1  N   UNL     1       0.848  -6.373   0.844  0.00  0.00    -0.224 N 
ATOM      2  C   UNL     1       1.766  -5.781   0.053  0.00  0.00    +0.244 C 
ATOM      3  O   UNL     1       2.896  -6.161  -0.166  0.00  0.00    -0.273 OA
ATOM      4  C   UNL     1       1.094  -4.544  -0.506  0.00  0.00    +0.169 C 
ATOM      5  C   UNL     1       1.838  -3.292  -0.026  0.00  0.00    +0.069 C 
ATOM      6  C   UNL     1       0.890  -2.119  -0.020  0.00  0.00    -0.015 A 
ATOM      7  C   UNL     1       1.232  -0.709  -0.014  0.00  0.00    +0.003 A 
ATOM      8  C   UNL     1       2.457  -0.033  -0.022  0.00  0.00    +0.010 A 
ATOM      9  C   UNL     1       2.408   1.339  -0.014  0.00  0.00    +0.001 A 
ATOM     10  C   UNL     1       1.209   2.032   0.001  0.00  0.00    +0.002 A 
ATOM     11  C   UNL     1      -0.017   1.389   0.010  0.00  0.00    +0.026 A 
ATOM     12  C   UNL     1       0.002  -0.004   0.002  0.00  0.00    +0.047 A 
ATOM     13  N   UNL     1      -0.997  -0.934   0.008  0.00  0.00    -0.356 N 
ATOM     14  H   UNL     1      -2.049  -0.611   0.024  0.00  0.00    +0.166 HD
ATOM     15  C   UNL     1      -0.458  -2.192  -0.009  0.00  0.00    +0.046 A 
ATOM     16  C   UNL     1      -1.228  -3.497  -0.018  0.00  0.00    +0.156 C 
ATOM     17  N   UNL     1      -0.233  -4.564   0.148  0.00  0.00    -0.261 N 
ATOM     18  C   UNL     1      -0.297  -5.678   0.881  0.00  0.00    +0.313 C 
ATOM     19  O   UNL     1      -1.280  -6.021   1.508  0.00  0.00    -0.252 OA
ENDROOT
BRANCH  16  20
ATOM     20  C   UNL     1      -2.212  -3.525   1.123  0.00  0.00    -0.014 A 
ATOM     21  C   UNL     1      -1.770  -3.779   2.408  0.00  0.00    +0.055 A 
ATOM     22  C   UNL     1      -2.672  -3.800   3.462  0.00  0.00    +0.165 A 
ATOM     23  C   UNL     1      -4.023  -3.576   3.222  0.00  0.00    +0.204 A 
ATOM     24  C   UNL     1      -4.463  -3.328   1.928  0.00  0.00    +0.165 A 
ATOM     25  C   UNL     1      -3.555  -3.303   0.881  0.00  0.00    +0.055 A 
BRANCH  24  26
ATOM     26  O   UNL     1      -5.784  -3.108   1.689  0.00  0.00    -0.491 OA
ATOM     27  C   UNL     1      -6.165  -2.858   0.335  0.00  0.00    +0.277 C 
ENDBRANCH  24  26
BRANCH  23  28
ATOM     28  O   UNL     1      -4.911  -3.600   4.253  0.00  0.00    -0.488 OA
ATOM     29  C   UNL     1      -5.510  -4.860   4.564  0.00  0.00    +0.277 C 
ENDBRANCH  23  28
BRANCH  22  30
ATOM     30  O   UNL     1      -2.236  -4.044   4.726  0.00  0.00    -0.491 OA
ATOM     31  C   UNL     1      -0.834  -4.264   4.898  0.00  0.00    +0.277 C 
ENDBRANCH  22  30
ENDBRANCH  16  20
BRANCH   1  32
ATOM     32  C   UNL     1       1.075  -7.623   1.574  0.00  0.00    +0.118 C 
BRANCH  32  33
ATOM     33  C   UNL     1       1.645  -7.309   2.959  0.00  0.00    +0.019 C 
BRANCH  33  35
ATOM     34  C   UNL     1       2.452  -8.300   5.105  0.00  0.00    +0.004 C 
ATOM     35  C   UNL     1       1.882  -8.614   3.721  0.00  0.00    -0.002 C 
ENDBRANCH  33  35
ENDBRANCH  32  33
ENDBRANCH   1  32
TORSDOF 7
