REMARK  Name = ZINC58056800
REMARK  3 active torsions:
REMARK  status: ('A' for Active; 'I' for Inactive)
REMARK    1  A    between atoms: C_6  and  C_7
REMARK    2  A    between atoms: C_7  and  C_8
REMARK    3  A    between atoms: C_12  and  N_16
REMARK                            x       y       z     vdW  Elec       q    Type
REMARK                         _______ _______ _______ _____ _____    ______ ____
ROOT
ATOM      1  C   UNL     1      -1.739  -1.024  -1.407  0.00  0.00    +0.118 A 
ATOM      2  N   UNL     1      -1.004  -0.582  -2.390  0.00  0.00    -0.194 NA
ATOM      3  C   UNL     1      -1.356  -0.778  -3.668  0.00  0.00    +0.298 A 
ATOM      4  O   UNL     1      -0.575  -0.309  -4.671  0.00  0.00    -0.264 OA
ATOM      5  C   UNL     1      -2.524  -1.464  -3.958  0.00  0.00    +0.157 A 
ATOM      6  C   UNL     1      -3.307  -1.935  -2.886  0.00  0.00    +0.276 A 
ATOM      7  O   UNL     1      -4.344  -2.545  -3.093  0.00  0.00    -0.266 OA
ATOM      8  N   UNL     1      -2.884  -1.703  -1.625  0.00  0.00    -0.309 N 
ATOM      9  H   UNL     1      -3.406  -2.023  -0.874  0.00  0.00    +0.170 HD
ENDROOT
BRANCH   5  10
ATOM     10  N   UNL     1      -2.919  -1.684  -5.290  0.00  0.00    -0.350 N 
ATOM     11  H   UNL     1      -2.371  -1.354  -6.019  0.00  0.00    +0.143 HD
ATOM     12  H   UNL     1      -3.739  -2.166  -5.479  0.00  0.00    +0.143 HD
ENDBRANCH   5  10
BRANCH   1  13
ATOM     13  C   UNL     1      -1.293  -0.775   0.011  0.00  0.00    +0.109 C 
BRANCH  13  19
ATOM     14  C   UNL     1      -0.017   1.378   0.010  0.00  0.00    +0.005 A 
ATOM     15  C   UNL     1       1.171   2.086   0.002  0.00  0.00    +0.022 A 
ATOM     16  C   UNL     1       2.378   1.412  -0.013  0.00  0.00    +0.059 A 
ATOM     17  C   UNL     1       2.397   0.027  -0.021  0.00  0.00    +0.060 A 
ATOM     18  C   UNL     1       1.208  -0.680  -0.013  0.00  0.00    +0.025 A 
ATOM     19  C   UNL     1       0.002  -0.004   0.002  0.00  0.00    -0.039 A 
ATOM     20 CL   UNL     1       3.912  -0.821  -0.040  0.00  0.00    -0.082 Cl
ATOM     21 CL   UNL     1       3.869   2.301  -0.023  0.00  0.00    -0.082 Cl
ENDBRANCH  13  19
ENDBRANCH   1  13
TORSDOF 3
