REMARK  Name = ZINC64202401
REMARK  9 active torsions:
REMARK  status: ('A' for Active; 'I' for Inactive)
REMARK    1  A    between atoms: C_1  and  C_2
REMARK    2  A    between atoms: C_4  and  C_25
REMARK    3  A    between atoms: C_8  and  C_12
REMARK    4  A    between atoms: C_12  and  S_13
REMARK    5  A    between atoms: S_13  and  C_14
REMARK    6  A    between atoms: C_14  and  C_15
REMARK    7  A    between atoms: C_18  and  C_21
REMARK    8  A    between atoms: C_21  and  C_22
REMARK    9  A    between atoms: C_21  and  C_23
REMARK                            x       y       z     vdW  Elec       q    Type
REMARK                         _______ _______ _______ _____ _____    ______ ____
ROOT
ATOM      1  C   UNL     1       5.277  -3.531   0.228  0.00  0.00    +0.142 C 
ENDROOT
BRANCH   1   8
ATOM      2  C   UNL     1      -0.019   1.526   0.010  0.00  0.00    +0.024 C 
ATOM      3  C   UNL     1       0.002  -0.004   0.002  0.00  0.00    +0.076 C 
ATOM      4  C   UNL     1       0.769  -0.528  -1.190  0.00  0.00    -0.045 C 
ATOM      5  C   UNL     1       1.868  -1.261  -0.953  0.00  0.00    +0.071 C 
ATOM      6  C   UNL     1       2.243  -1.498   0.457  0.00  0.00    +0.111 C 
ATOM      7  N   UNL     1       3.306  -2.207   0.754  0.00  0.00    -0.227 NA
ATOM      8  C   UNL     1       4.072  -2.729  -0.191  0.00  0.00    +0.133 C 
ATOM      9  N   UNL     1       3.837  -2.585  -1.473  0.00  0.00    -0.161 NA
ATOM     10  C   UNL     1       2.796  -1.891  -1.945  0.00  0.00    +0.271 C 
ATOM     11  O   UNL     1       2.607  -1.777  -3.144  0.00  0.00    -0.268 OA
ATOM     12  S   UNL     1       0.997  -0.657   1.404  0.00  0.00    -0.098 S 
ATOM     13  C   UNL     1       0.315  -0.239  -2.598  0.00  0.00    +0.041 C 
ENDBRANCH   1   8
BRANCH   1  14
ATOM     14  S   UNL     1       6.148  -4.130  -1.246  0.00  0.00    -0.149 S 
BRANCH  14  15
ATOM     15  C   UNL     1       7.552  -5.063  -0.578  0.00  0.00    +0.126 C 
BRANCH  15  16
ATOM     16  C   UNL     1       8.382  -5.631  -1.731  0.00  0.00    +0.252 C 
ATOM     17  N   UNL     1       8.862  -4.545  -2.595  0.00  0.00    -0.346 N 
ATOM     18  C   UNL     1       8.385  -4.717  -3.779  0.00  0.00    +0.105 C 
ATOM     19  N   UNL     1       7.601  -5.832  -3.852  0.00  0.00    -0.252 N 
ATOM     20  O   UNL     1       7.564  -6.455  -2.575  0.00  0.00    -0.248 OA
ATOM     21  H   UNL     1       7.144  -6.148  -4.646  0.00  0.00    +0.195 HD
ATOM     22  H   UNL     1       9.442  -3.819  -2.320  0.00  0.00    +0.163 HD
BRANCH  18  23
ATOM     23  C   UNL     1       8.660  -3.799  -4.942  0.00  0.00    +0.048 C 
ATOM     24  C   UNL     1       8.495  -4.573  -6.252  0.00  0.00    +0.015 C 
ATOM     25  C   UNL     1       7.674  -2.630  -4.913  0.00  0.00    +0.015 C 
ENDBRANCH  18  23
ENDBRANCH  15  16
ENDBRANCH  14  15
ENDBRANCH   1  14
TORSDOF 5
