REMARK  Name = ZINC35889736
REMARK  3 active torsions:
REMARK  status: ('A' for Active; 'I' for Inactive)
REMARK    1  A    between atoms: C_1  and  C_2
REMARK    2  A    between atoms: C_22  and  C_30
REMARK    3  A    between atoms: C_30  and  C_32
REMARK                            x       y       z     vdW  Elec       q    Type
REMARK                         _______ _______ _______ _____ _____    ______ ____
ROOT
ATOM      1  C   UNL     1       0.073   1.388  -0.101  0.00  0.00    +0.044 C 
ATOM      2  C   UNL     1       0.047  -0.118  -0.067  0.00  0.00    -0.050 A 
ATOM      3  C   UNL     1       0.019  -0.838  -1.247  0.00  0.00    +0.005 A 
ATOM      4  C   UNL     1      -0.006  -2.217  -1.222  0.00  0.00    +0.024 A 
ATOM      5  C   UNL     1      -0.004  -2.896  -0.005  0.00  0.00    +0.036 A 
ATOM      6  C   UNL     1       0.025  -2.161   1.174  0.00  0.00    -0.026 A 
ATOM      7  C   UNL     1       0.055  -0.785   1.146  0.00  0.00    +0.008 A 
ATOM      8  C   UNL     1       0.019  -3.169   2.294  0.00  0.00    +0.060 C 
ATOM      9  C   UNL     1      -0.015  -4.508   1.601  0.00  0.00    +0.212 C 
ATOM     10  O   UNL     1      -0.029  -5.597   2.134  0.00  0.00    -0.277 OA
ATOM     11  N   UNL     1      -0.027  -4.263   0.278  0.00  0.00    -0.286 N 
ATOM     12  C   UNL     1       1.258  -3.032   3.170  0.00  0.00    +0.085 C 
ATOM     13  C   UNL     1       1.901  -4.361   3.450  0.00  0.00    -0.011 A 
ATOM     14  C   UNL     1       1.454  -5.526   4.031  0.00  0.00    +0.006 A 
ATOM     15  C   UNL     1       2.306  -6.610   4.153  0.00  0.00    +0.000 A 
ATOM     16  C   UNL     1       3.606  -6.520   3.690  0.00  0.00    +0.002 A 
ATOM     17  C   UNL     1       4.057  -5.354   3.107  0.00  0.00    +0.023 A 
ATOM     18  C   UNL     1       3.207  -4.259   2.979  0.00  0.00    +0.038 A 
ATOM     19  N   UNL     1       3.425  -2.992   2.433  0.00  0.00    -0.285 N 
ATOM     20  C   UNL     1       2.330  -2.212   2.506  0.00  0.00    +0.228 C 
ATOM     21  O   UNL     1       2.228  -1.069   2.112  0.00  0.00    -0.275 OA
ATOM     22  C   UNL     1       0.768  -2.365   4.464  0.00  0.00    +0.066 C 
ATOM     23  C   UNL     1      -0.715  -2.767   4.537  0.00  0.00    -0.055 C 
ATOM     24  N   UNL     1      -1.168  -2.992   3.146  0.00  0.00    +0.395 N 
ATOM     25  C   UNL     1      -1.857  -1.743   2.728  0.00  0.00    -0.076 C 
ATOM     26  C   UNL     1      -2.564  -1.256   4.015  0.00  0.00    -0.020 C 
ATOM     27  C   UNL     1      -1.547  -1.628   5.141  0.00  0.00    -0.016 C 
ATOM     28  H   UNL     1      -0.048  -4.955  -0.401  0.00  0.00    +0.155 HD
ATOM     29  H   UNL     1       4.268  -2.708   2.046  0.00  0.00    +0.155 HD
ATOM     30  H   UNL     1      -1.777  -3.794   3.089  0.00  0.00    -0.079 HD
ENDROOT
BRANCH  22  31
ATOM     31  C   UNL     1       1.525  -2.897   5.654  0.00  0.00    +0.166 C 
ATOM     32  O   UNL     1       1.084  -3.835   6.283  0.00  0.00    -0.292 OA
BRANCH  31  33
ATOM     33  C   UNL     1       2.799  -2.279   6.051  0.00  0.00    +0.018 A 
ATOM     34  C   UNL     1       3.246  -1.114   5.397  0.00  0.00    +0.012 A 
ATOM     35  C   UNL     1       4.418  -0.527   5.747  0.00  0.00    +0.009 A 
ATOM     36  C   UNL     1       5.205  -1.080   6.774  0.00  0.00    -0.018 A 
ATOM     37  C   UNL     1       6.421  -0.488   7.153  0.00  0.00    +0.008 A 
ATOM     38  C   UNL     1       7.162  -1.046   8.150  0.00  0.00    +0.001 A 
ATOM     39  C   UNL     1       6.732  -2.198   8.806  0.00  0.00    +0.001 A 
ATOM     40  C   UNL     1       5.560  -2.800   8.467  0.00  0.00    +0.008 A 
ATOM     41  C   UNL     1       4.767  -2.253   7.441  0.00  0.00    -0.017 A 
ATOM     42  C   UNL     1       3.551  -2.845   7.072  0.00  0.00    +0.020 A 
ENDBRANCH  31  33
ENDBRANCH  22  31
TORSDOF 2
