REMARK  Name = ZINC01461535
REMARK  8 active torsions:
REMARK  status: ('A' for Active; 'I' for Inactive)
REMARK    1  A    between atoms: C_1  and  C_2
REMARK    2  A    between atoms: C_2  and  O_3
REMARK    3  A    between atoms: O_3  and  C_4
REMARK    4  A    between atoms: C_11  and  C_22
REMARK    5  A    between atoms: C_12  and  N_21
REMARK    6  A    between atoms: C_27  and  C_31
REMARK    7  A    between atoms: C_27  and  C_32
REMARK    8  A    between atoms: C_29  and  C_30
REMARK                            x       y       z     vdW  Elec       q    Type
REMARK                         _______ _______ _______ _____ _____    ______ ____
ROOT
ATOM      1  C   UNL     1      -1.227   1.751   0.017  0.00  0.00    +0.121 A 
ATOM      2  C   UNL     1      -0.013   1.076   0.008  0.00  0.00    +0.055 A 
ATOM      3  C   UNL     1       1.179   1.781   0.000  0.00  0.00    +0.003 A 
ATOM      4  C   UNL     1       1.085   3.186   0.011  0.00  0.00    +0.050 A 
ATOM      5  C   UNL     1      -0.128   3.855   0.025  0.00  0.00    +0.003 A 
ATOM      6  C   UNL     1      -1.312   3.148   0.032  0.00  0.00    +0.052 A 
ATOM      7  C   UNL     1       0.231   5.306   0.034  0.00  0.00    +0.145 C 
ATOM      8  C   UNL     1      -0.276   5.982   1.274  0.00  0.00    +0.110 C 
ATOM      9  C   UNL     1      -1.344   6.815   1.208  0.00  0.00    +0.199 C 
ATOM     10  O   UNL     1      -1.975   7.050   0.048  0.00  0.00    -0.445 OA
ATOM     11  C   UNL     1      -1.347   6.827  -1.121  0.00  0.00    +0.115 C 
ATOM     12  C   UNL     1      -0.285   6.002  -1.199  0.00  0.00    +0.058 C 
ATOM     13  C   UNL     1       0.372   5.769  -2.422  0.00  0.00    +0.164 C 
ATOM     14  O   UNL     1       1.309   4.997  -2.458  0.00  0.00    -0.292 OA
ATOM     15  C   UNL     1      -0.064   6.460  -3.685  0.00  0.00    +0.080 C 
ATOM     16  C   UNL     1      -0.714   7.799  -3.319  0.00  0.00    +0.016 C 
ATOM     17  C   UNL     1      -1.869   7.528  -2.353  0.00  0.00    +0.075 C 
ATOM     18  C   UNL     1       1.752   5.325   0.023  0.00  0.00    +0.241 C 
ATOM     19  O   UNL     1       2.455   6.314   0.029  0.00  0.00    -0.273 OA
ATOM     20  N   UNL     1       2.175   4.048   0.007  0.00  0.00    -0.260 N 
ATOM     21  C   UNL     1       3.552   3.539  -0.011  0.00  0.00    +0.055 C 
ATOM     22  C   UNL     1       3.586   2.041  -0.023  0.00  0.00    +0.002 C 
ATOM     23  C   UNL     1       2.540   1.230  -0.018  0.00  0.00    -0.043 C 
ATOM     24  C   UNL     1       2.747  -0.263  -0.031  0.00  0.00    +0.044 C 
ATOM     25  C   UNL     1       4.289   4.045   1.231  0.00  0.00    +0.036 C 
ATOM     26  C   UNL     1       4.261   4.065  -1.261  0.00  0.00    +0.036 C 
ENDROOT
BRANCH   9  27
ATOM     27  N   UNL     1      -1.788   7.429   2.353  0.00  0.00    -0.328 N 
ATOM     28  H   UNL     1      -2.552   8.027   2.317  0.00  0.00    +0.145 HD
ATOM     29  H   UNL     1      -1.339   7.266   3.197  0.00  0.00    +0.145 HD
ENDBRANCH   9  27
BRANCH   8  30
ATOM     30  C   UNL     1       0.371   5.747   2.531  0.00  0.00    +0.102 C 
ATOM     31  N   UNL     1       0.883   5.561   3.527  0.00  0.00    -0.191 NA
ENDBRANCH   8  30
BRANCH   1  32
ATOM     32  O   UNL     1      -2.378   1.027   0.019  0.00  0.00    -0.492 OA
BRANCH  32  34
ATOM     33  C   UNL     1      -3.639  -1.035   0.013  0.00  0.00    +0.048 C 
ATOM     34  C   UNL     1      -2.248  -0.396   0.010  0.00  0.00    +0.225 C 
ENDBRANCH  32  34
ENDBRANCH   1  32
TORSDOF 4
