REMARK  Name = ZINC39911651
REMARK  17 active torsions:
REMARK  status: ('A' for Active; 'I' for Inactive)
REMARK    1  A    between atoms: C_1  and  C_2
REMARK    2  A    between atoms: C_2  and  C_3
REMARK    3  A    between atoms: C_3  and  C_4
REMARK    4  A    between atoms: C_4  and  O_5
REMARK    5  A    between atoms: O_5  and  C_6
REMARK    6  A    between atoms: C_9  and  C_15
REMARK    7  A    between atoms: C_11  and  O_12
REMARK    8  A    between atoms: O_12  and  C_13
REMARK    9  A    between atoms: C_13  and  C_14
REMARK   10  A    between atoms: C_18  and  C_30
REMARK   11  A    between atoms: N_25  and  C_26
REMARK   12  A    between atoms: C_26  and  C_27
REMARK   13  A    between atoms: C_27  and  O_28
REMARK   14  A    between atoms: O_28  and  C_29
REMARK   15  A    between atoms: C_32  and  C_38
REMARK   16  A    between atoms: C_34  and  C_37
REMARK   17  A    between atoms: C_35  and  O_36
REMARK                            x       y       z     vdW  Elec       q    Type
REMARK                         _______ _______ _______ _____ _____    ______ ____
ROOT
ATOM      1  C   UNL     1      -3.296  -8.001  -0.896  0.00  0.00    +0.141 C 
ATOM      2  C   UNL     1      -3.156  -8.302  -2.364  0.00  0.00    +0.035 A 
ATOM      3  C   UNL     1      -3.639  -8.099  -3.661  0.00  0.00    +0.102 A 
ATOM      4  N   UNL     1      -2.877  -8.797  -4.479  0.00  0.00    -0.173 NA
ATOM      5  N   UNL     1      -1.961  -9.420  -3.828  0.00  0.00    -0.272 N 
ATOM      6  H   UNL     1      -1.287  -9.994  -4.225  0.00  0.00    +0.189 HD
ATOM      7  C   UNL     1      -2.077  -9.155  -2.493  0.00  0.00    +0.126 A 
ATOM      8  C   UNL     1      -1.521  -9.409  -1.159  0.00  0.00    +0.266 C 
ATOM      9  O   UNL     1      -0.562 -10.122  -0.931  0.00  0.00    -0.268 OA
ATOM     10  N   UNL     1      -2.224  -8.743  -0.223  0.00  0.00    -0.283 N 
ENDROOT
BRANCH   3  11
ATOM     11  C   UNL     1      -4.797  -7.254  -4.045  0.00  0.00    +0.044 A 
ATOM     12  C   UNL     1      -5.595  -6.673  -3.062  0.00  0.00    +0.017 A 
ATOM     13  C   UNL     1      -6.671  -5.887  -3.425  0.00  0.00    -0.049 A 
ATOM     14  C   UNL     1      -6.960  -5.675  -4.761  0.00  0.00    +0.010 A 
ATOM     15  C   UNL     1      -6.175  -6.247  -5.744  0.00  0.00    -0.008 A 
ATOM     16  C   UNL     1      -5.088  -7.033  -5.394  0.00  0.00    +0.129 A 
ATOM     17  C   UNL     1      -6.497  -6.012  -7.197  0.00  0.00    +0.047 C 
ATOM     18  C   UNL     1      -7.534  -5.260  -2.361  0.00  0.00    +0.044 C 
BRANCH  16  19
ATOM     19  O   UNL     1      -4.311  -7.591  -6.359  0.00  0.00    -0.506 OA
ATOM     20  H   UNL     1      -4.606  -8.467  -6.643  0.00  0.00    +0.292 HD
ENDBRANCH  16  19
ENDBRANCH   3  11
BRANCH   1  24
ATOM     21  C   UNL     1      -2.845  -3.805  -0.204  0.00  0.00    +0.162 A 
ATOM     22  C   UNL     1      -4.081  -4.409  -0.034  0.00  0.00    +0.050 A 
ATOM     23  C   UNL     1      -4.223  -5.766  -0.259  0.00  0.00    +0.009 A 
ATOM     24  C   UNL     1      -3.135  -6.522  -0.653  0.00  0.00    -0.019 A 
ATOM     25  C   UNL     1      -1.900  -5.925  -0.825  0.00  0.00    +0.055 A 
ATOM     26  C   UNL     1      -1.752  -4.565  -0.607  0.00  0.00    +0.162 A 
BRANCH  21  27
ATOM     27  O   UNL     1      -2.703  -2.470   0.016  0.00  0.00    -0.488 OA
BRANCH  27  28
ATOM     28  C   UNL     1      -3.869  -1.753   0.427  0.00  0.00    +0.229 C 
BRANCH  28  29
ATOM     29  C   UNL     1      -3.517  -0.277   0.625  0.00  0.00    +0.041 C 
BRANCH  29  31
ATOM     30  C   UNL     1      -4.412   1.966   1.263  0.00  0.00    +0.004 C 
ATOM     31  C   UNL     1      -4.764   0.491   1.065  0.00  0.00    -0.000 C 
ENDBRANCH  29  31
ENDBRANCH  28  29
ENDBRANCH  27  28
ENDBRANCH  21  27
BRANCH  26  32
ATOM     32  O   UNL     1      -0.539  -3.975  -0.781  0.00  0.00    -0.489 OA
BRANCH  32  33
ATOM     33  C   UNL     1       0.528  -4.809  -1.239  0.00  0.00    +0.226 C 
ATOM     34  C   UNL     1       1.788  -3.963  -1.433  0.00  0.00    +0.048 C 
ENDBRANCH  32  33
ENDBRANCH  26  32
ENDBRANCH   1  24
BRANCH  10  35
ATOM     35  C   UNL     1      -1.963  -8.756   1.219  0.00  0.00    +0.137 C 
BRANCH  35  36
ATOM     36  C   UNL     1      -2.751  -9.895   1.869  0.00  0.00    +0.178 C 
BRANCH  36  37
ATOM     37  O   UNL     1      -2.264 -11.148   1.386  0.00  0.00    -0.381 OA
ATOM     38  C   UNL     1      -2.936 -12.284   1.934  0.00  0.00    +0.194 C 
ENDBRANCH  36  37
ENDBRANCH  35  36
ENDBRANCH  10  35
TORSDOF 12
