REMARK  Name = ZINC41152868
REMARK  5 active torsions:
REMARK  status: ('A' for Active; 'I' for Inactive)
REMARK    1  A    between atoms: C_4  and  C_7
REMARK    2  A    between atoms: C_7  and  C_8
REMARK    3  A    between atoms: C_7  and  N_14
REMARK    4  A    between atoms: C_28  and  N_30
REMARK    5  A    between atoms: N_30  and  C_31
REMARK                            x       y       z     vdW  Elec       q    Type
REMARK                         _______ _______ _______ _____ _____    ______ ____
ROOT
ATOM      1  N   UNL     1       3.586  -1.950  -0.849  0.00  0.00    -0.289 NA
ATOM      2  C   UNL     1       2.565  -2.769  -0.182  0.00  0.00    +0.104 C 
ATOM      3  C   UNL     1       2.203  -3.958  -1.078  0.00  0.00    +0.123 C 
ATOM      4  N   UNL     1       3.440  -4.671  -1.431  0.00  0.00    -0.299 N 
ATOM      5  C   UNL     1       4.560  -3.892  -1.978  0.00  0.00    +0.123 C 
ATOM      6  C   UNL     1       4.830  -2.706  -1.047  0.00  0.00    +0.104 C 
ATOM      7  C   UNL     1       3.546  -6.039  -1.251  0.00  0.00    +0.198 A 
ATOM      8  N   UNL     1       2.519  -6.691  -0.741  0.00  0.00    -0.327 N 
ATOM      9  C   UNL     1       2.583  -8.017  -0.552  0.00  0.00    +0.052 A 
ATOM     10  C   UNL     1       1.511  -8.742  -0.013  0.00  0.00    +0.026 A 
ATOM     11  C   UNL     1       1.627 -10.089   0.159  0.00  0.00    +0.002 A 
ATOM     12  C   UNL     1       2.796 -10.758  -0.193  0.00  0.00    +0.001 A 
ATOM     13  C   UNL     1       3.858 -10.084  -0.721  0.00  0.00    +0.013 A 
ATOM     14  C   UNL     1       3.771  -8.700  -0.910  0.00  0.00    +0.038 A 
ATOM     15  C   UNL     1       4.841  -7.947  -1.454  0.00  0.00    +0.132 A 
ATOM     16  N   UNL     1       4.677  -6.641  -1.605  0.00  0.00    -0.201 NA
ATOM     17  H   UNL     1       1.713  -6.208  -0.500  0.00  0.00    +0.169 HD
ENDROOT
BRANCH  15  18
ATOM     18  N   UNL     1       6.021  -8.559  -1.820  0.00  0.00    -0.326 N 
ATOM     19  H   UNL     1       6.126  -9.517  -1.707  0.00  0.00    +0.148 HD
BRANCH  18  20
ATOM     20  C   UNL     1       7.115  -7.763  -2.380  0.00  0.00    +0.072 C 
ATOM     21  C   UNL     1       6.905  -7.596  -3.887  0.00  0.00    +0.022 C 
ATOM     22  C   UNL     1       8.048  -6.764  -4.472  0.00  0.00    +0.002 C 
ATOM     23  C   UNL     1       9.379  -7.476  -4.219  0.00  0.00    +0.000 C 
ATOM     24  C   UNL     1       9.589  -7.644  -2.712  0.00  0.00    +0.002 C 
ATOM     25  C   UNL     1       8.446  -8.475  -2.127  0.00  0.00    +0.022 C 
ENDBRANCH  18  20
ENDBRANCH  15  18
BRANCH   1  26
ATOM     26  C   UNL     1       3.837  -0.710  -0.103  0.00  0.00    +0.117 C 
BRANCH  26  30
ATOM     27  C   UNL     1       6.752   1.630  -2.170  0.00  0.00    +0.000 A 
ATOM     28  C   UNL     1       6.859   1.441  -0.805  0.00  0.00    +0.000 A 
ATOM     29  C   UNL     1       5.916   0.683  -0.136  0.00  0.00    +0.005 A 
ATOM     30  C   UNL     1       4.865   0.116  -0.832  0.00  0.00    -0.026 A 
ATOM     31  C   UNL     1       4.757   0.307  -2.197  0.00  0.00    +0.005 A 
ATOM     32  C   UNL     1       5.701   1.062  -2.866  0.00  0.00    +0.000 A 
ENDBRANCH  26  30
BRANCH  26  33
ATOM     33  C   UNL     1       2.555   0.073   0.015  0.00  0.00    -0.026 A 
ATOM     34  C   UNL     1       1.718   0.198  -1.078  0.00  0.00    +0.005 A 
ATOM     35  C   UNL     1       0.542   0.916  -0.970  0.00  0.00    +0.000 A 
ATOM     36  C   UNL     1       0.202   1.509   0.232  0.00  0.00    +0.000 A 
ATOM     37  C   UNL     1       1.039   1.384   1.326  0.00  0.00    +0.000 A 
ATOM     38  C   UNL     1       2.213   0.662   1.219  0.00  0.00    +0.005 A 
ENDBRANCH  26  33
ENDBRANCH   1  26
TORSDOF 5
