REMARK  Name = ZINC02287307
REMARK  8 active torsions:
REMARK  status: ('A' for Active; 'I' for Inactive)
REMARK    1  A    between atoms: C_1  and  C_2
REMARK    2  A    between atoms: C_4  and  C_32
REMARK    3  A    between atoms: C_6  and  N_8
REMARK    4  A    between atoms: N_8  and  C_9
REMARK    5  A    between atoms: C_10  and  C_11
REMARK    6  A    between atoms: C_10  and  C_13
REMARK    7  A    between atoms: C_15  and  C_18
REMARK    8  A    between atoms: C_22  and  N_29
REMARK                            x       y       z     vdW  Elec       q    Type
REMARK                         _______ _______ _______ _____ _____    ______ ____
ROOT
ATOM      1  C   UNL     1       0.391  -4.256   4.728  0.00  0.00    +0.120 A 
ATOM      2  N   UNL     1       0.600  -5.088   5.754  0.00  0.00    -0.238 NA
ATOM      3  C   UNL     1       0.686  -6.369   5.532  0.00  0.00    +0.086 A 
ATOM      4  C   UNL     1       0.543  -6.811   4.129  0.00  0.00    +0.075 A 
ATOM      5  S   UNL     1       0.299  -5.352   3.325  0.00  0.00    -0.074 S 
ENDROOT
BRANCH   3   6
ATOM      6  C   UNL     1       0.914  -7.324   6.620  0.00  0.00    +0.086 A 
ATOM      7  C   UNL     1       1.044  -6.901   7.947  0.00  0.00    +0.028 A 
ATOM      8  C   UNL     1       1.293  -7.880   8.935  0.00  0.00    +0.020 A 
ATOM      9  C   UNL     1       1.234  -7.546  10.299  0.00  0.00    +0.044 A 
ATOM     10  C   UNL     1       1.435  -8.512  11.242  0.00  0.00    +0.127 A 
ATOM     11  C   UNL     1       1.705  -9.822  10.866  0.00  0.00    +0.036 A 
ATOM     12  C   UNL     1       1.788 -10.169   9.532  0.00  0.00    +0.049 A 
ATOM     13  C   UNL     1       1.596  -9.204   8.554  0.00  0.00    +0.139 A 
ATOM     14  O   UNL     1       1.719  -9.525   7.244  0.00  0.00    -0.422 OA
ATOM     15  C   UNL     1       1.012  -8.778   6.361  0.00  0.00    +0.347 A 
ATOM     16  O   UNL     1       0.480  -9.282   5.390  0.00  0.00    -0.244 OA
BRANCH  10  17
ATOM     17  N   UNL     1       1.363  -8.161  12.678  0.00  0.00    +0.056 N 
ATOM     18  O   UNL     1       1.107  -6.921  13.041  0.00  0.00    -0.126 OA
ATOM     19  O   UNL     1       1.556  -9.088  13.593  0.00  0.00    -0.126 OA
ENDBRANCH  10  17
ENDBRANCH   3   6
BRANCH   1  21
ATOM     20  C   UNL     1       0.192  -2.137   3.542  0.00  0.00    +0.093 C 
ATOM     21  C   UNL     1       0.268  -2.858   4.751  0.00  0.00    +0.098 C 
BRANCH  20  22
ATOM     22  N   UNL     1       0.405  -2.758   2.380  0.00  0.00    -0.319 N 
ATOM     23  H   UNL     1       0.685  -3.687   2.370  0.00  0.00    +0.152 HD
BRANCH  22  29
ATOM     24  C   UNL     1       0.679  -2.676  -2.524  0.00  0.00    +0.044 C 
ATOM     25  C   UNL     1       0.350  -2.009  -1.213  0.00  0.00    -0.048 A 
ATOM     26  C   UNL     1      -0.132  -0.711  -1.201  0.00  0.00    +0.006 A 
ATOM     27  C   UNL     1      -0.435  -0.093  -0.001  0.00  0.00    -0.048 A 
ATOM     28  C   UNL     1      -0.259  -0.769   1.190  0.00  0.00    +0.026 A 
ATOM     29  C   UNL     1       0.225  -2.074   1.182  0.00  0.00    +0.031 A 
ATOM     30  C   UNL     1       0.524  -2.693  -0.028  0.00  0.00    +0.026 A 
ATOM     31  C   UNL     1      -0.959   1.320   0.006  0.00  0.00    +0.044 C 
ENDBRANCH  22  29
ENDBRANCH  20  22
BRANCH  21  32
ATOM     32  C   UNL     1       0.220  -2.164   6.003  0.00  0.00    +0.103 C 
ATOM     33  N   UNL     1       0.182  -1.614   6.996  0.00  0.00    -0.191 NA
ENDBRANCH  21  32
ENDBRANCH   1  21
TORSDOF 6
