REMARK  Name = ZINC17319395
REMARK  10 active torsions:
REMARK  status: ('A' for Active; 'I' for Inactive)
REMARK    1  A    between atoms: C_1  and  N_56
REMARK    2  A    between atoms: C_2  and  N_56
REMARK    3  A    between atoms: C_3  and  C_4
REMARK    4  A    between atoms: C_3  and  N_56
REMARK    5  A    between atoms: C_7  and  C_10
REMARK    6  A    between atoms: C_10  and  N_58
REMARK    7  A    between atoms: C_11  and  C_12
REMARK    8  A    between atoms: C_11  and  N_58
REMARK    9  A    between atoms: N_14  and  C_24
REMARK   10  A    between atoms: C_16  and  C_17
REMARK                            x       y       z     vdW  Elec       q    Type
REMARK                         _______ _______ _______ _____ _____    ______ ____
ROOT
ATOM      1  C   UNL     1      -0.016  -0.008   0.002  0.00  0.00    -0.019 A 
ATOM      2  C   UNL     1      -0.275  -0.793  -1.066  0.00  0.00    +0.116 A 
ATOM      3  N   UNL     1      -0.071  -2.084  -0.694  0.00  0.00    -0.239 N 
ATOM      4  N   UNL     1       0.316  -2.091   0.652  0.00  0.00    -0.166 NA
ATOM      5  C   UNL     1       0.351  -0.844   1.075  0.00  0.00    +0.094 A 
ENDROOT
BRANCH   5   6
ATOM      6  C   UNL     1       0.713  -0.398   2.443  0.00  0.00    +0.002 A 
ATOM      7  C   UNL     1       1.794  -0.978   3.104  0.00  0.00    +0.013 A 
ATOM      8  C   UNL     1       2.130  -0.557   4.374  0.00  0.00    +0.039 A 
ATOM      9  C   UNL     1       1.388   0.434   4.997  0.00  0.00    +0.123 A 
ATOM     10  C   UNL     1       0.309   1.009   4.345  0.00  0.00    +0.039 A 
ATOM     11  C   UNL     1      -0.031   0.598   3.073  0.00  0.00    +0.013 A 
ATOM     12  F   UNL     1       1.717   0.840   6.243  0.00  0.00    -0.205 F 
ENDBRANCH   5   6
BRANCH   3  13
ATOM     13  C   UNL     1      -0.228  -3.211  -1.511  0.00  0.00    +0.065 A 
ATOM     14  C   UNL     1      -0.626  -3.062  -2.833  0.00  0.00    +0.028 A 
ATOM     15  C   UNL     1      -0.775  -4.175  -3.638  0.00  0.00    +0.002 A 
ATOM     16  C   UNL     1      -0.540  -5.437  -3.124  0.00  0.00    +0.000 A 
ATOM     17  C   UNL     1      -0.148  -5.590  -1.807  0.00  0.00    +0.002 A 
ATOM     18  C   UNL     1       0.007  -4.480  -0.999  0.00  0.00    +0.028 A 
ENDBRANCH   3  13
BRANCH   1  19
ATOM     19  C   UNL     1      -0.110   1.495   0.041  0.00  0.00    -0.043 C 
BRANCH  19  20
ATOM     20  N   UNL     1       1.251   2.065   0.039  0.00  0.00    +0.384 N 
ATOM     21  H   UNL     1       1.786   1.668   0.821  0.00  0.00    -0.085 HD
ATOM     22  H   UNL     1       1.715   1.830  -0.847  0.00  0.00    -0.085 HD
BRANCH  20  23
ATOM     23  C   UNL     1       1.193   3.531   0.184  0.00  0.00    -0.046 C 
BRANCH  23  27
ATOM     24  C   UNL     1       5.167   5.099   0.169  0.00  0.00    -0.064 A 
ATOM     25  C   UNL     1       4.474   4.961  -1.019  0.00  0.00    +0.002 A 
ATOM     26  C   UNL     1       3.188   4.454  -1.014  0.00  0.00    +0.002 A 
ATOM     27  C   UNL     1       2.595   4.084   0.179  0.00  0.00    -0.064 A 
ATOM     28  C   UNL     1       3.287   4.227   1.367  0.00  0.00    +0.002 A 
ATOM     29  C   UNL     1       4.574   4.730   1.362  0.00  0.00    +0.002 A 
BRANCH  24  30
ATOM     30  C   UNL     1       6.569   5.651   0.163  0.00  0.00    -0.044 C 
BRANCH  30  33
ATOM     31  C   UNL     1       6.000   7.494   1.626  0.00  0.00    -0.096 C 
ATOM     32  C   UNL     1       7.843   7.708   0.069  0.00  0.00    -0.096 C 
ATOM     33  N   UNL     1       6.503   7.122   0.287  0.00  0.00    +0.379 N 
ATOM     34  H   UNL     1       5.859   7.488  -0.425  0.00  0.00    -0.082 HD
ENDBRANCH  30  33
ENDBRANCH  24  30
ENDBRANCH  23  27
ENDBRANCH  20  23
ENDBRANCH  19  20
ENDBRANCH   1  19
TORSDOF 8
