REMARK  Name = ZINC36569356
REMARK  8 active torsions:
REMARK  status: ('A' for Active; 'I' for Inactive)
REMARK    1  A    between atoms: C_1  and  C_2
REMARK    2  A    between atoms: C_2  and  C_3
REMARK    3  A    between atoms: C_2  and  C_4
REMARK    4  A    between atoms: C_4  and  C_6
REMARK    5  A    between atoms: C_4  and  N_10
REMARK    6  A    between atoms: C_6  and  O_8
REMARK    7  A    between atoms: O_8  and  C_9
REMARK    8  A    between atoms: C_22  and  C_24
REMARK                            x       y       z     vdW  Elec       q    Type
REMARK                         _______ _______ _______ _____ _____    ______ ____
ROOT
ATOM      1  N   UNL     1      -1.319  -1.642   2.518  0.00  0.00    -0.286 N 
ATOM      2  C   UNL     1      -2.078  -0.538   2.363  0.00  0.00    +0.304 C 
ATOM      3  O   UNL     1      -2.093   0.044   1.296  0.00  0.00    -0.253 OA
ATOM      4  N   UNL     1      -2.819  -0.081   3.392  0.00  0.00    -0.273 N 
ATOM      5  C   UNL     1      -3.738   1.053   3.212  0.00  0.00    +0.116 C 
ATOM      6  C   UNL     1      -5.178   0.571   3.434  0.00  0.00    +0.074 C 
ATOM      7  C   UNL     1      -5.216  -0.292   4.668  0.00  0.00    +0.040 A 
ATOM      8  C   UNL     1      -4.137  -0.864   5.243  0.00  0.00    +0.062 A 
ATOM      9  N   UNL     1      -4.550  -1.555   6.307  0.00  0.00    -0.348 N 
ATOM     10  C   UNL     1      -5.848  -1.432   6.419  0.00  0.00    +0.171 A 
ATOM     11  N   UNL     1      -6.299  -0.649   5.412  0.00  0.00    -0.349 N 
ATOM     12  H   UNL     1      -7.220  -0.391   5.252  0.00  0.00    +0.166 HD
ATOM     13  C   UNL     1      -2.732  -0.708   4.723  0.00  0.00    +0.156 C 
ATOM     14  H   UNL     1      -1.244  -2.061   3.389  0.00  0.00    +0.151 HD
ATOM     15  H   UNL     1      -3.980  -2.066   6.903  0.00  0.00    +0.167 HD
ENDROOT
BRANCH  13  16
ATOM     16  C   UNL     1      -1.940   0.174   5.654  0.00  0.00    -0.021 A 
ATOM     17  C   UNL     1      -2.424   1.420   6.004  0.00  0.00    +0.007 A 
ATOM     18  C   UNL     1      -1.698   2.229   6.858  0.00  0.00    +0.020 A 
ATOM     19  C   UNL     1      -0.487   1.791   7.363  0.00  0.00    +0.041 A 
ATOM     20  C   UNL     1      -0.003   0.543   7.013  0.00  0.00    +0.020 A 
ATOM     21  C   UNL     1      -0.732  -0.267   6.163  0.00  0.00    +0.007 A 
ATOM     22 CL   UNL     1       0.425   2.806   8.436  0.00  0.00    -0.084 Cl
ENDBRANCH  13  16
BRANCH   1  23
ATOM     23  C   UNL     1      -0.609  -2.209   1.369  0.00  0.00    +0.186 C 
BRANCH  23  25
ATOM     24  C   UNL     1      -2.111  -4.197   1.549  0.00  0.00    +0.009 C 
ATOM     25  C   UNL     1      -1.547  -3.139   0.598  0.00  0.00    +0.014 C 
ATOM     26  C   UNL     1      -2.696  -2.325   0.001  0.00  0.00    +0.009 C 
ENDBRANCH  23  25
BRANCH  23  27
ATOM     27  C   UNL     1       0.587  -2.988   1.853  0.00  0.00    +0.328 C 
ATOM     28  O   UNL     1       0.821  -3.063   3.036  0.00  0.00    -0.249 OA
BRANCH  27  29
ATOM     29  O   UNL     1       1.391  -3.600   0.970  0.00  0.00    -0.467 OA
ATOM     30  C   UNL     1       2.506  -4.322   1.498  0.00  0.00    +0.280 C 
ENDBRANCH  27  29
ENDBRANCH  23  27
ENDBRANCH   1  23
TORSDOF 5
