REMARK  Name = ZINC03517200
REMARK  3 active torsions:
REMARK  status: ('A' for Active; 'I' for Inactive)
REMARK    1  A    between atoms: N_12  and  C_16
REMARK    2  A    between atoms: C_16  and  C_17
REMARK    3  A    between atoms: C_20  and  C_23
REMARK                            x       y       z     vdW  Elec       q    Type
REMARK                         _______ _______ _______ _____ _____    ______ ____
ROOT
ATOM      1  C   UNL     1       1.209  -0.678  -0.013  0.00  0.00    +0.000 A 
ATOM      2  C   UNL     1       0.002  -0.004   0.002  0.00  0.00    +0.000 A 
ATOM      3  C   UNL     1      -0.017   1.376   0.010  0.00  0.00    +0.006 A 
ATOM      4  C   UNL     1       1.169   2.092   0.002  0.00  0.00    -0.012 A 
ATOM      5  C   UNL     1       2.378   1.417  -0.009  0.00  0.00    -0.042 A 
ATOM      6  C   UNL     1       2.394   0.032  -0.018  0.00  0.00    +0.004 A 
ATOM      7  C   UNL     1       3.521   2.410  -0.004  0.00  0.00    +0.038 C 
ATOM      8  C   UNL     1       2.889   3.756  -0.427  0.00  0.00    +0.045 C 
ATOM      9  C   UNL     1       1.427   3.575  -0.001  0.00  0.00    +0.138 C 
ATOM     10  C   UNL     1       1.171   4.187   1.351  0.00  0.00    +0.251 C 
ATOM     11  O   UNL     1       1.707   3.903   2.401  0.00  0.00    -0.272 OA
ATOM     12  N   UNL     1       0.217   5.120   1.145  0.00  0.00    -0.220 N 
ATOM     13  C   UNL     1      -0.153   5.170  -0.142  0.00  0.00    +0.310 C 
ATOM     14  O   UNL     1      -0.997   5.930  -0.574  0.00  0.00    -0.252 OA
ATOM     15  N   UNL     1       0.517   4.282  -0.904  0.00  0.00    -0.281 N 
ATOM     16  H   UNL     1       0.416   4.139  -1.858  0.00  0.00    +0.152 HD
ENDROOT
BRANCH  12  17
ATOM     17  C   UNL     1      -0.343   5.973   2.196  0.00  0.00    +0.153 C 
BRANCH  17  18
ATOM     18  C   UNL     1      -1.541   5.293   2.809  0.00  0.00    -0.029 A 
ATOM     19  C   UNL     1      -2.802   5.515   2.284  0.00  0.00    +0.006 A 
ATOM     20  C   UNL     1      -3.902   4.892   2.837  0.00  0.00    +0.019 A 
ATOM     21  C   UNL     1      -3.741   4.045   3.935  0.00  0.00    +0.052 A 
ATOM     22  C   UNL     1      -2.467   3.829   4.462  0.00  0.00    +0.019 A 
ATOM     23  C   UNL     1      -1.375   4.454   3.897  0.00  0.00    +0.006 A 
BRANCH  21  24
ATOM     24  C   UNL     1      -4.879   3.399   4.517  0.00  0.00    +0.099 C 
ATOM     25  N   UNL     1      -5.782   2.886   4.979  0.00  0.00    -0.191 NA
ENDBRANCH  21  24
ENDBRANCH  17  18
ENDBRANCH  12  17
TORSDOF 3
