REMARK  Name = ZINC55062483
REMARK  6 active torsions:
REMARK  status: ('A' for Active; 'I' for Inactive)
REMARK    1  A    between atoms: C_1  and  C_2
REMARK    2  A    between atoms: C_2  and  C_3
REMARK    3  A    between atoms: C_2  and  C_11
REMARK    4  A    between atoms: C_2  and  O_21
REMARK    5  A    between atoms: C_3  and  N_4
REMARK    6  A    between atoms: N_4  and  C_5
REMARK                            x       y       z     vdW  Elec       q    Type
REMARK                         _______ _______ _______ _____ _____    ______ ____
ROOT
ATOM      1  C   UNL     1      -0.019   1.526   0.010  0.00  0.00    +0.048 C 
ATOM      2  C   UNL     1       0.002  -0.004   0.002  0.00  0.00    +0.106 C 
ENDROOT
BRANCH   2   3
ATOM      3  C   UNL     1      -1.412  -0.526   0.013  0.00  0.00    +0.136 A 
ATOM      4  C   UNL     1      -2.140  -0.790  -1.080  0.00  0.00    +0.056 A 
ATOM      5  C   UNL     1      -3.440  -1.272  -0.599  0.00  0.00    +0.022 A 
ATOM      6  C   UNL     1      -4.611  -1.702  -1.222  0.00  0.00    +0.027 A 
ATOM      7  C   UNL     1      -5.683  -2.101  -0.453  0.00  0.00    +0.019 A 
ATOM      8  C   UNL     1      -5.599  -2.075   0.932  0.00  0.00    +0.019 A 
ATOM      9  C   UNL     1      -4.447  -1.652   1.559  0.00  0.00    +0.048 A 
ATOM     10  C   UNL     1      -3.355  -1.246   0.803  0.00  0.00    +0.135 A 
ATOM     11  O   UNL     1      -2.123  -0.798   1.120  0.00  0.00    -0.457 OA
ATOM     12 BR   UNL     1      -7.276  -2.686  -1.290  0.00  0.00    -0.050 Br
ENDBRANCH   2   3
BRANCH   2  13
ATOM     13  O   UNL     1       0.671  -0.465  -1.174  0.00  0.00    -0.383 OA
ATOM     14  H   UNL     1       0.722  -1.428  -1.246  0.00  0.00    +0.211 HD
ENDBRANCH   2  13
BRANCH   2  15
ATOM     15  C   UNL     1       0.742  -0.511   1.242  0.00  0.00    -0.039 C 
BRANCH  15  16
ATOM     16  N   UNL     1       2.080   0.093   1.294  0.00  0.00    +0.383 N 
ATOM     17  H   UNL     1       2.597  -0.163   0.466  0.00  0.00    -0.085 HD
ATOM     18  H   UNL     1       1.995   1.097   1.341  0.00  0.00    -0.085 HD
BRANCH  16  19
ATOM     19  C   UNL     1       2.791  -0.394   2.484  0.00  0.00    -0.072 C 
ATOM     20  C   UNL     1       3.031  -1.899   2.355  0.00  0.00    -0.016 C 
ATOM     21  C   UNL     1       3.771  -2.406   3.594  0.00  0.00    -0.002 C 
ATOM     22  C   UNL     1       5.114  -1.684   3.717  0.00  0.00    -0.000 C 
ATOM     23  C   UNL     1       4.874  -0.179   3.846  0.00  0.00    -0.002 C 
ATOM     24  C   UNL     1       4.134   0.328   2.607  0.00  0.00    -0.016 C 
ENDBRANCH  16  19
ENDBRANCH  15  16
ENDBRANCH   2  15
TORSDOF 5
