REMARK  Name = ZINC65259879
REMARK  5 active torsions:
REMARK  status: ('A' for Active; 'I' for Inactive)
REMARK    1  A    between atoms: C_1  and  O_2
REMARK    2  A    between atoms: O_2  and  C_3
REMARK    3  A    between atoms: C_3  and  C_4
REMARK    4  A    between atoms: C_4  and  N_5
REMARK    5  A    between atoms: C_21  and  C_23
REMARK                            x       y       z     vdW  Elec       q    Type
REMARK                         _______ _______ _______ _____ _____    ______ ____
ROOT
ATOM      1  N   UNL     1       1.317  -2.493  -0.209  0.00  0.00    -0.372 N 
ATOM      2  C   UNL     1       1.434  -3.752  -0.483  0.00  0.00    +0.098 C 
ATOM      3  N   UNL     1       0.831  -4.725   0.293  0.00  0.00    -0.301 N 
ATOM      4  C   UNL     1       1.540  -5.918   0.513  0.00  0.00    +0.053 A 
ATOM      5  C   UNL     1       1.105  -6.813   1.477  0.00  0.00    +0.025 A 
ATOM      6  C   UNL     1       1.798  -7.991   1.689  0.00  0.00    +0.002 A 
ATOM      7  C   UNL     1       2.924  -8.279   0.939  0.00  0.00    +0.002 A 
ATOM      8  C   UNL     1       3.366  -7.390  -0.022  0.00  0.00    +0.025 A 
ATOM      9  C   UNL     1       2.680  -6.204  -0.237  0.00  0.00    +0.049 A 
ATOM     10  N   UNL     1       3.144  -5.293  -1.197  0.00  0.00    -0.329 N 
ATOM     11  C   UNL     1       2.235  -4.237  -1.673  0.00  0.00    +0.102 C 
ATOM     12  C   UNL     1       3.042  -3.079  -2.255  0.00  0.00    +0.036 C 
ATOM     13  C   UNL     1       3.879  -3.579  -3.436  0.00  0.00    +0.021 C 
ATOM     14  C   UNL     1       2.945  -4.123  -4.522  0.00  0.00    +0.108 C 
ATOM     15  N   UNL     1       2.072  -5.146  -3.930  0.00  0.00    -0.295 N 
ATOM     16  C   UNL     1       1.290  -4.799  -2.734  0.00  0.00    +0.141 C 
ATOM     17  C   UNL     1       1.991  -6.377  -4.471  0.00  0.00    +0.250 C 
ATOM     18  O   UNL     1       1.349  -7.245  -3.913  0.00  0.00    -0.270 OA
ATOM     19  H   UNL     1       1.747  -1.832  -0.773  0.00  0.00    +0.161 HD
ATOM     20  H   UNL     1       4.048  -5.360  -1.544  0.00  0.00    +0.147 HD
ATOM     21  H   UNL     1      -0.051  -4.588   0.673  0.00  0.00    +0.153 HD
ENDROOT
BRANCH  17  22
ATOM     22  C   UNL     1       2.682  -6.672  -5.743  0.00  0.00    +0.073 A 
ATOM     23  C   UNL     1       2.457  -5.871  -6.865  0.00  0.00    +0.036 A 
ATOM     24  C   UNL     1       3.106  -6.152  -8.050  0.00  0.00    +0.042 A 
ATOM     25  C   UNL     1       3.979  -7.224  -8.129  0.00  0.00    +0.023 A 
ATOM     26  C   UNL     1       4.207  -8.022  -7.024  0.00  0.00    +0.040 A 
ATOM     27  C   UNL     1       3.568  -7.750  -5.828  0.00  0.00    +0.136 A 
ATOM     28  F   UNL     1       3.796  -8.526  -4.746  0.00  0.00    -0.205 F 
ATOM     29 CL   UNL     1       2.827  -5.158  -9.446  0.00  0.00    -0.084 Cl
ENDBRANCH  17  22
BRANCH   1  30
ATOM     30  C   UNL     1       0.532  -2.066   0.952  0.00  0.00    +0.141 C 
BRANCH  30  31
ATOM     31  C   UNL     1       0.554  -0.540   1.049  0.00  0.00    +0.180 C 
BRANCH  31  33
ATOM     32  C   UNL     1      -0.151   1.447  -0.092  0.00  0.00    +0.194 C 
ATOM     33  O   UNL     1      -0.115   0.018  -0.084  0.00  0.00    -0.381 OA
ENDBRANCH  31  33
ENDBRANCH  30  31
ENDBRANCH   1  30
TORSDOF 4
