REMARK  Name = ZINC39016348
REMARK  11 active torsions:
REMARK  status: ('A' for Active; 'I' for Inactive)
REMARK    1  A    between atoms: C_1  and  C_2
REMARK    2  A    between atoms: C_2  and  C_4
REMARK    3  A    between atoms: C_7  and  S_10
REMARK    4  A    between atoms: S_10  and  N_13
REMARK    5  A    between atoms: N_13  and  C_14
REMARK    6  A    between atoms: N_13  and  C_29
REMARK    7  A    between atoms: C_14  and  C_15
REMARK    8  A    between atoms: C_20  and  O_27
REMARK    9  A    between atoms: O_27  and  C_28
REMARK   10  A    between atoms: C_32  and  O_35
REMARK   11  A    between atoms: O_35  and  C_36
REMARK                            x       y       z     vdW  Elec       q    Type
REMARK                         _______ _______ _______ _____ _____    ______ ____
ROOT
ATOM      1  N   UNL     1      -5.599  -3.035  -1.753  0.00  0.00    -0.202 N 
ENDROOT
BRANCH   1   2
ATOM      2  C   UNL     1      -6.103  -1.962  -2.495  0.00  0.00    +0.052 A 
ATOM      3  C   UNL     1      -6.786  -2.197  -3.681  0.00  0.00    +0.028 A 
ATOM      4  C   UNL     1      -7.284  -1.137  -4.413  0.00  0.00    +0.047 A 
ATOM      5  C   UNL     1      -7.100   0.163  -3.964  0.00  0.00    +0.120 A 
ATOM      6  C   UNL     1      -6.417   0.399  -2.780  0.00  0.00    +0.047 A 
ATOM      7  C   UNL     1      -5.924  -0.660  -2.044  0.00  0.00    +0.028 A 
BRANCH   5   8
ATOM      8  O   UNL     1      -7.590   1.207  -4.686  0.00  0.00    -0.495 OA
ATOM      9  C   UNL     1      -7.365   2.518  -4.165  0.00  0.00    +0.277 C 
ENDBRANCH   5   8
ENDBRANCH   1   2
BRANCH   1  10
ATOM     10  S   UNL     1      -5.315  -2.860  -0.131  0.00  0.00    +0.075 S 
ATOM     11  O   UNL     1      -5.248  -4.170   0.414  0.00  0.00    -0.150 OA
ATOM     12  O   UNL     1      -6.235  -1.885   0.340  0.00  0.00    -0.150 OA
BRANCH  10  16
ATOM     13  C   UNL     1      -1.180  -1.059   0.318  0.00  0.00    +0.017 A 
ATOM     14  C   UNL     1      -2.313  -0.241   0.376  0.00  0.00    +0.013 A 
ATOM     15  C   UNL     1      -3.567  -0.797   0.239  0.00  0.00    +0.029 A 
ATOM     16  C   UNL     1      -3.707  -2.160   0.044  0.00  0.00    +0.109 A 
ATOM     17  C   UNL     1      -2.591  -2.976  -0.015  0.00  0.00    +0.029 A 
ATOM     18  C   UNL     1      -1.329  -2.435   0.115  0.00  0.00    +0.013 A 
BRANCH  13  20
ATOM     19  C   UNL     1       0.320   1.008   0.681  0.00  0.00    +0.091 C 
ATOM     20  C   UNL     1       0.163  -0.475   0.463  0.00  0.00    +0.160 C 
ATOM     21  O   UNL     1       1.143  -1.186   0.406  0.00  0.00    -0.292 OA
ENDBRANCH  13  20
ENDBRANCH  10  16
ENDBRANCH   1  10
BRANCH   1  22
ATOM     22  C   UNL     1      -5.323  -4.315  -2.410  0.00  0.00    +0.148 C 
BRANCH  22  23
ATOM     23  C   UNL     1      -6.633  -5.083  -2.601  0.00  0.00    +0.118 C 
ATOM     24  C   UNL     1      -6.369  -6.218  -3.571  0.00  0.00    -0.003 C 
ATOM     25  C   UNL     1      -6.628  -7.484  -3.137  0.00  0.00    -0.004 A 
ATOM     26  C   UNL     1      -6.402  -8.637  -4.010  0.00  0.00    +0.055 A 
ATOM     27  C   UNL     1      -6.674  -9.883  -3.534  0.00  0.00    +0.121 A 
ATOM     28  C   UNL     1      -7.162 -10.076  -2.236  0.00  0.00    +0.047 A 
ATOM     29  C   UNL     1      -7.392  -9.046  -1.382  0.00  0.00    +0.027 A 
ATOM     30  C   UNL     1      -7.142  -7.718  -1.776  0.00  0.00    +0.041 A 
ATOM     31  N   UNL     1      -7.371  -6.717  -0.926  0.00  0.00    -0.284 N 
ATOM     32  C   UNL     1      -7.160  -5.449  -1.232  0.00  0.00    +0.226 C 
ATOM     33  O   UNL     1      -7.388  -4.579  -0.413  0.00  0.00    -0.275 OA
ATOM     34  H   UNL     1      -7.709  -6.930  -0.043  0.00  0.00    +0.155 HD
BRANCH  27  35
ATOM     35  O   UNL     1      -6.468 -10.962  -4.336  0.00  0.00    -0.495 OA
ATOM     36  C   UNL     1      -6.771 -12.246  -3.786  0.00  0.00    +0.277 C 
ENDBRANCH  27  35
ENDBRANCH  22  23
ENDBRANCH   1  22
TORSDOF 8
