REMARK  Name = ZINC38681589
REMARK  8 active torsions:
REMARK  status: ('A' for Active; 'I' for Inactive)
REMARK    1  A    between atoms: C_1  and  C_2
REMARK    2  A    between atoms: C_3  and  C_28
REMARK    3  A    between atoms: C_4  and  C_27
REMARK    4  A    between atoms: C_5  and  S_10
REMARK    5  A    between atoms: C_6  and  C_9
REMARK    6  A    between atoms: C_7  and  C_8
REMARK    7  A    between atoms: S_10  and  N_13
REMARK    8  A    between atoms: N_13  and  C_14
REMARK                            x       y       z     vdW  Elec       q    Type
REMARK                         _______ _______ _______ _____ _____    ______ ____
ROOT
ATOM      1  N   UNL     1       0.023  -5.389   0.059  0.00  0.00    -0.216 N 
ATOM      2  H   UNL     1      -0.115  -6.194  -0.465  0.00  0.00    +0.174 HD
ENDROOT
BRANCH   1   3
ATOM      3  C   UNL     1       0.926  -5.397   1.128  0.00  0.00    +0.049 A 
ATOM      4  C   UNL     1       2.292  -5.379   0.855  0.00  0.00    +0.030 A 
ATOM      5  C   UNL     1       3.210  -5.387   1.877  0.00  0.00    -0.024 A 
ATOM      6  C   UNL     1       2.707  -5.415   3.177  0.00  0.00    +0.043 A 
ATOM      7  C   UNL     1       1.348  -5.431   3.457  0.00  0.00    -0.015 A 
ATOM      8  C   UNL     1       0.425  -5.417   2.435  0.00  0.00    +0.030 A 
ATOM      9  C   UNL     1       1.250  -5.455   4.951  0.00  0.00    +0.133 C 
ATOM     10  C   UNL     1       2.698  -5.451   5.425  0.00  0.00    +0.224 C 
ATOM     11  O   UNL     1       3.074  -5.464   6.578  0.00  0.00    -0.275 OA
ATOM     12  N   UNL     1       3.482  -5.430   4.337  0.00  0.00    -0.271 N 
ATOM     13  C   UNL     1       4.952  -5.425   4.245  0.00  0.00    +0.114 C 
ATOM     14  C   UNL     1       5.356  -6.069   2.914  0.00  0.00    +0.024 C 
ATOM     15  C   UNL     1       4.702  -5.367   1.720  0.00  0.00    +0.038 C 
ENDBRANCH   1   3
BRANCH   1  16
ATOM     16  S   UNL     1      -0.810  -4.007  -0.311  0.00  0.00    +0.073 S 
ATOM     17  O   UNL     1      -1.442  -3.580   0.888  0.00  0.00    -0.150 OA
ATOM     18  O   UNL     1      -1.537  -4.277  -1.502  0.00  0.00    -0.150 OA
BRANCH  16  23
ATOM     19  C   UNL     1       3.272   0.213  -1.703  0.00  0.00    +0.044 C 
ATOM     20  C   UNL     1       2.253  -0.841  -1.355  0.00  0.00    -0.044 A 
ATOM     21  C   UNL     1       1.807  -0.968  -0.053  0.00  0.00    -0.043 A 
ATOM     22  C   UNL     1       0.871  -1.935   0.266  0.00  0.00    -0.020 A 
ATOM     23  C   UNL     1       0.382  -2.774  -0.718  0.00  0.00    +0.115 A 
ATOM     24  C   UNL     1       0.827  -2.646  -2.020  0.00  0.00    -0.020 A 
ATOM     25  C   UNL     1       1.759  -1.677  -2.340  0.00  0.00    -0.043 A 
ATOM     26  C   UNL     1       2.241  -1.534  -3.760  0.00  0.00    +0.044 C 
ATOM     27  C   UNL     1       0.294  -3.561  -3.092  0.00  0.00    +0.046 C 
ATOM     28  C   UNL     1       0.386  -2.074   1.685  0.00  0.00    +0.046 C 
ATOM     29  C   UNL     1       2.341  -0.054   1.019  0.00  0.00    +0.044 C 
ENDBRANCH  16  23
ENDBRANCH   1  16
TORSDOF 3
