REMARK  Name = ZINC26604980
REMARK  5 active torsions:
REMARK  status: ('A' for Active; 'I' for Inactive)
REMARK    1  A    between atoms: C_3  and  N_25
REMARK    2  A    between atoms: C_6  and  C_7
REMARK    3  A    between atoms: C_7  and  N_8
REMARK    4  A    between atoms: C_12  and  C_14
REMARK    5  A    between atoms: N_16  and  C_17
REMARK                            x       y       z     vdW  Elec       q    Type
REMARK                         _______ _______ _______ _____ _____    ______ ____
ROOT
ATOM      1  N   UNL     1      -6.068   3.584  -0.199  0.00  0.00    +0.390 N 
ATOM      2  C   UNL     1      -7.238   4.384   0.248  0.00  0.00    -0.077 C 
ATOM      3  C   UNL     1      -6.695   5.266   1.393  0.00  0.00    -0.020 C 
ATOM      4  C   UNL     1      -5.178   5.368   1.135  0.00  0.00    -0.008 C 
ATOM      5  C   UNL     1      -4.932   4.539  -0.145  0.00  0.00    +0.020 C 
ATOM      6  H   UNL     1      -5.903   2.689   0.419  0.00  0.00    -0.080 HD
ENDROOT
BRANCH   5   7
ATOM      7  C   UNL     1      -3.624   3.796  -0.046  0.00  0.00    +0.204 C 
ATOM      8  O   UNL     1      -3.614   2.584  -0.053  0.00  0.00    -0.277 OA
ATOM      9  N   UNL     1      -2.466   4.480   0.048  0.00  0.00    -0.286 N 
ATOM     10  H   UNL     1      -2.480   5.577   0.128  0.00  0.00    +0.155 HD
BRANCH   9  11
ATOM     11  C   UNL     1      -1.246   3.793   0.045  0.00  0.00    +0.053 A 
ATOM     12  C   UNL     1      -1.149   2.544   0.643  0.00  0.00    +0.044 A 
ATOM     13  C   UNL     1       0.058   1.871   0.642  0.00  0.00    +0.043 A 
ATOM     14  C   UNL     1       1.167   2.436   0.036  0.00  0.00    +0.021 A 
ATOM     15  C   UNL     1       1.072   3.678  -0.564  0.00  0.00    +0.023 A 
ATOM     16  C   UNL     1      -0.131   4.358  -0.562  0.00  0.00    +0.062 A 
ATOM     17 CL   UNL     1      -0.249   5.917  -1.317  0.00  0.00    -0.082 Cl
ATOM     18 CL   UNL     1       0.182   0.312   1.395  0.00  0.00    -0.083 Cl
ENDBRANCH   9  11
ENDBRANCH   5   7
BRANCH   1  19
ATOM     19  C   UNL     1      -6.264   3.076  -1.564  0.00  0.00    -0.042 C 
BRANCH  19  25
ATOM     20  C   UNL     1      -6.805   0.640  -1.374  0.00  0.00    +0.004 A 
ATOM     21  C   UNL     1      -7.711  -0.404  -1.348  0.00  0.00    +0.033 A 
ATOM     22  C   UNL     1      -9.062  -0.151  -1.495  0.00  0.00    +0.126 A 
ATOM     23  C   UNL     1      -9.507   1.147  -1.665  0.00  0.00    +0.033 A 
ATOM     24  C   UNL     1      -8.602   2.191  -1.687  0.00  0.00    +0.004 A 
ATOM     25  C   UNL     1      -7.251   1.938  -1.539  0.00  0.00    -0.064 A 
BRANCH  22  26
ATOM     26  N   UNL     1     -10.031  -1.269  -1.470  0.00  0.00    +0.056 N 
ATOM     27  O   UNL     1     -11.222  -1.046  -1.599  0.00  0.00    -0.126 OA
ATOM     28  O   UNL     1      -9.639  -2.412  -1.320  0.00  0.00    -0.126 OA
ENDBRANCH  22  26
ENDBRANCH  19  25
ENDBRANCH   1  19
TORSDOF 5
