REMARK  Name = ZINC41309778
REMARK  8 active torsions:
REMARK  status: ('A' for Active; 'I' for Inactive)
REMARK    1  A    between atoms: C_1  and  C_2
REMARK    2  A    between atoms: C_9  and  N_22
REMARK    3  A    between atoms: C_10  and  C_11
REMARK    4  A    between atoms: N_13  and  C_14
REMARK    5  A    between atoms: C_23  and  C_25
REMARK    6  A    between atoms: C_29  and  C_34
REMARK    7  A    between atoms: C_34  and  C_35
REMARK    8  A    between atoms: C_34  and  C_36
REMARK                            x       y       z     vdW  Elec       q    Type
REMARK                         _______ _______ _______ _____ _____    ______ ____
ROOT
ATOM      1  C   UNL     1      -0.019   1.526   0.010  0.00  0.00    +0.008 C 
ATOM      2  C   UNL     1       0.002  -0.004   0.002  0.00  0.00    -0.009 C 
ATOM      3  C   UNL     1      -1.434  -0.537   0.019  0.00  0.00    +0.008 C 
ATOM      4  C   UNL     1      -1.433  -2.045  -0.237  0.00  0.00    +0.037 C 
ATOM      5  C   UNL     1      -0.464  -2.704   0.734  0.00  0.00    -0.023 A 
ATOM      6  C   UNL     1       0.485  -1.986   1.374  0.00  0.00    -0.004 A 
ATOM      7  S   UNL     1       1.344  -3.167   2.372  0.00  0.00    -0.077 S 
ATOM      8  C   UNL     1       0.494  -4.558   1.967  0.00  0.00    +0.085 A 
ATOM      9  C   UNL     1      -0.459  -4.119   1.060  0.00  0.00    +0.069 A 
ATOM     10  C   UNL     1       0.739  -0.515   1.248  0.00  0.00    +0.046 C 
ENDROOT
BRANCH   9  11
ATOM     11  C   UNL     1      -1.420  -5.046   0.455  0.00  0.00    +0.247 C 
ATOM     12  O   UNL     1      -1.148  -5.610  -0.589  0.00  0.00    -0.270 OA
ATOM     13  N   UNL     1      -2.606  -5.272   1.054  0.00  0.00    -0.307 N 
ATOM     14  H   UNL     1      -2.824  -4.822   1.885  0.00  0.00    +0.149 HD
BRANCH  13  15
ATOM     15  C   UNL     1      -3.567  -6.198   0.449  0.00  0.00    +0.096 C 
ATOM     16  C   UNL     1      -4.433  -5.450  -0.578  0.00  0.00    +0.046 C 
ATOM     17  C   UNL     1      -5.646  -6.323  -0.983  0.00  0.00    +0.168 C 
ATOM     18  S   UNL     1      -5.916  -7.357   0.515  0.00  0.00    -0.029 S 
ATOM     19  O   UNL     1      -5.708  -8.722   0.178  0.00  0.00    -0.174 OA
ATOM     20  O   UNL     1      -7.135  -6.966   1.131  0.00  0.00    -0.174 OA
ATOM     21  C   UNL     1      -4.507  -6.772   1.548  0.00  0.00    +0.188 C 
ENDBRANCH  13  15
ENDBRANCH   9  11
BRANCH   8  22
ATOM     22  N   UNL     1       0.697  -5.846   2.433  0.00  0.00    -0.273 N 
ATOM     23  C   UNL     1       1.679  -6.094   3.322  0.00  0.00    +0.284 C 
ATOM     24  O   UNL     1       2.386  -5.186   3.716  0.00  0.00    -0.266 OA
ATOM     25  H   UNL     1       0.133  -6.570   2.119  0.00  0.00    +0.156 HD
BRANCH  23  26
ATOM     26  C   UNL     1       1.894  -7.461   3.816  0.00  0.00    +0.191 A 
ATOM     27  C   UNL     1       2.846  -7.827   4.714  0.00  0.00    +0.063 A 
ATOM     28  C   UNL     1       2.689  -9.268   4.906  0.00  0.00    +0.021 A 
ATOM     29  C   UNL     1       3.345 -10.223   5.685  0.00  0.00    +0.015 A 
ATOM     30  C   UNL     1       2.944 -11.529   5.637  0.00  0.00    -0.044 A 
ATOM     31  C   UNL     1       1.889 -11.910   4.819  0.00  0.00    +0.007 A 
ATOM     32  C   UNL     1       1.228 -10.983   4.043  0.00  0.00    +0.047 A 
ATOM     33  C   UNL     1       1.618  -9.649   4.076  0.00  0.00    +0.136 A 
ATOM     34  O   UNL     1       1.173  -8.541   3.451  0.00  0.00    -0.450 OA
BRANCH  30  35
ATOM     35  C   UNL     1       3.651 -12.561   6.476  0.00  0.00    +0.013 C 
ATOM     36  C   UNL     1       2.652 -13.210   7.436  0.00  0.00    +0.012 C 
ATOM     37  C   UNL     1       4.254 -13.633   5.566  0.00  0.00    +0.012 C 
ENDBRANCH  30  35
ENDBRANCH  23  26
ENDBRANCH   8  22
TORSDOF 5
