REMARK  Name = ZINC36597721
REMARK  12 active torsions:
REMARK  status: ('A' for Active; 'I' for Inactive)
REMARK    1  A    between atoms: C_1  and  C_2
REMARK    2  A    between atoms: C_5  and  C_7
REMARK    3  A    between atoms: C_7  and  N_8
REMARK    4  A    between atoms: N_8  and  C_9
REMARK    5  A    between atoms: C_9  and  C_11
REMARK    6  A    between atoms: C_9  and  C_20
REMARK    7  A    between atoms: C_11  and  C_13
REMARK    8  A    between atoms: C_11  and  C_14
REMARK    9  A    between atoms: N_22  and  C_23
REMARK   10  A    between atoms: C_29  and  C_31
REMARK   11  A    between atoms: C_35  and  O_38
REMARK   12  A    between atoms: C_36  and  O_37
REMARK                            x       y       z     vdW  Elec       q    Type
REMARK                         _______ _______ _______ _____ _____    ______ ____
ROOT
ATOM      1  N   UNL     1       1.370  -4.011  -2.074  0.00  0.00    -0.278 N 
ATOM      2  C   UNL     1       0.906  -4.845  -3.026  0.00  0.00    +0.251 C 
ATOM      3  O   UNL     1       0.381  -5.895  -2.712  0.00  0.00    -0.270 OA
ENDROOT
BRANCH   2   4
ATOM      4  C   UNL     1       1.036  -4.482  -4.451  0.00  0.00    +0.082 A 
ATOM      5  C   UNL     1       2.120  -3.711  -4.883  0.00  0.00    +0.017 A 
ATOM      6  C   UNL     1       2.238  -3.375  -6.213  0.00  0.00    +0.005 A 
ATOM      7  C   UNL     1       1.288  -3.796  -7.129  0.00  0.00    +0.049 A 
ATOM      8  C   UNL     1       0.209  -4.559  -6.717  0.00  0.00    +0.159 A 
ATOM      9  C   UNL     1       0.079  -4.912  -5.377  0.00  0.00    +0.171 A 
BRANCH   9  10
ATOM     10  O   UNL     1      -0.974  -5.666  -4.969  0.00  0.00    -0.503 OA
ATOM     11  H   UNL     1      -1.748  -5.150  -4.707  0.00  0.00    +0.292 HD
ENDBRANCH   9  10
BRANCH   8  12
ATOM     12  O   UNL     1      -0.720  -4.969  -7.621  0.00  0.00    -0.503 OA
ATOM     13  H   UNL     1      -0.522  -5.824  -8.028  0.00  0.00    +0.292 HD
ENDBRANCH   8  12
ENDBRANCH   2   4
BRANCH   1  14
ATOM     14  C   UNL     1       0.781  -4.033  -0.732  0.00  0.00    +0.183 C 
BRANCH  14  19
ATOM     15  C   UNL     1      -1.757   0.280  -0.105  0.00  0.00    +0.086 C 
ATOM     16  C   UNL     1      -1.458  -1.169  -0.392  0.00  0.00    +0.102 A 
ATOM     17  C   UNL     1      -2.361  -2.106  -0.730  0.00  0.00    +0.045 A 
ATOM     18  C   UNL     1      -1.649  -3.315  -0.906  0.00  0.00    +0.046 A 
ATOM     19  C   UNL     1      -0.354  -3.044  -0.665  0.00  0.00    +0.122 A 
ATOM     20  O   UNL     1      -0.243  -1.741  -0.360  0.00  0.00    -0.463 OA
ENDBRANCH  14  19
ENDBRANCH   1  14
BRANCH   1  21
ATOM     21  C   UNL     1       2.462  -3.084  -2.380  0.00  0.00    +0.170 C 
BRANCH  21  22
ATOM     22  C   UNL     1       1.960  -2.005  -3.304  0.00  0.00    +0.234 C 
ATOM     23  O   UNL     1       0.773  -1.763  -3.366  0.00  0.00    -0.274 OA
ATOM     24  N   UNL     1       2.830  -1.307  -4.060  0.00  0.00    -0.311 N 
ATOM     25  H   UNL     1       3.766  -1.561  -4.082  0.00  0.00    +0.149 HD
BRANCH  24  26
ATOM     26  C   UNL     1       2.363  -0.166  -4.851  0.00  0.00    +0.073 C 
ATOM     27  C   UNL     1       1.821  -0.662  -6.192  0.00  0.00    +0.022 C 
ATOM     28  C   UNL     1       1.332   0.530  -7.018  0.00  0.00    +0.002 C 
ATOM     29  C   UNL     1       2.497   1.492  -7.263  0.00  0.00    +0.000 C 
ATOM     30  C   UNL     1       3.039   1.988  -5.921  0.00  0.00    +0.002 C 
ATOM     31  C   UNL     1       3.527   0.796  -5.096  0.00  0.00    +0.022 C 
ENDBRANCH  24  26
ENDBRANCH  21  22
BRANCH  21  32
ATOM     32  C   UNL     1       2.970  -2.450  -1.083  0.00  0.00    +0.045 C 
ATOM     33  C   UNL     1       3.958  -1.330  -1.417  0.00  0.00    +0.015 C 
BRANCH  32  34
ATOM     34  C   UNL     1       3.662  -3.498  -0.250  0.00  0.00    -0.042 A 
ATOM     35  C   UNL     1       4.667  -4.269  -0.803  0.00  0.00    +0.004 A 
ATOM     36  C   UNL     1       5.301  -5.230  -0.039  0.00  0.00    +0.000 A 
ATOM     37  C   UNL     1       4.932  -5.419   1.280  0.00  0.00    +0.000 A 
ATOM     38  C   UNL     1       3.929  -4.646   1.834  0.00  0.00    +0.000 A 
ATOM     39  C   UNL     1       3.297  -3.683   1.071  0.00  0.00    +0.004 A 
ENDBRANCH  32  34
ENDBRANCH  21  32
ENDBRANCH   1  21
TORSDOF 10
