REMARK  Name = ZINC47863777
REMARK  7 active torsions:
REMARK  status: ('A' for Active; 'I' for Inactive)
REMARK    1  A    between atoms: C_4  and  S_23
REMARK    2  A    between atoms: C_5  and  N_7
REMARK    3  A    between atoms: N_10  and  C_11
REMARK    4  A    between atoms: C_11  and  C_12
REMARK    5  A    between atoms: C_12  and  C_14
REMARK    6  A    between atoms: C_12  and  O_22
REMARK    7  A    between atoms: S_23  and  C_24
REMARK                            x       y       z     vdW  Elec       q    Type
REMARK                         _______ _______ _______ _____ _____    ______ ____
ROOT
ATOM      1  N   UNL     1       1.233  -2.083  -0.021  0.00  0.00    -0.268 N 
ATOM      2  C   UNL     1       0.082  -2.775   0.088  0.00  0.00    +0.304 C 
ATOM      3  O   UNL     1      -0.982  -2.186   0.102  0.00  0.00    -0.253 OA
ATOM      4  N   UNL     1       0.110  -4.119   0.181  0.00  0.00    -0.296 N 
ATOM      5  H   UNL     1       2.075  -2.554  -0.115  0.00  0.00    +0.156 HD
ATOM      6  H   UNL     1       0.958  -4.588   0.170  0.00  0.00    +0.150 HD
ENDROOT
BRANCH   1  11
ATOM      7  C   UNL     1       0.154   1.372   0.642  0.00  0.00    +0.002 A 
ATOM      8  C   UNL     1       1.173   2.090   0.042  0.00  0.00    +0.001 A 
ATOM      9  C   UNL     1       2.215   1.430  -0.580  0.00  0.00    +0.017 A 
ATOM     10  C   UNL     1       2.241   0.042  -0.605  0.00  0.00    +0.037 A 
ATOM     11  C   UNL     1       1.213  -0.681   0.000  0.00  0.00    +0.048 A 
ATOM     12  C   UNL     1       0.172  -0.010   0.622  0.00  0.00    +0.024 A 
BRANCH  10  13
ATOM     13  S   UNL     1       3.568  -0.802  -1.398  0.00  0.00    -0.014 S 
BRANCH  13  14
ATOM     14  C   UNL     1       4.629   0.532  -2.019  0.00  0.00    +0.448 C 
ATOM     15  F   UNL     1       5.069   1.315  -0.947  0.00  0.00    -0.160 F 
ATOM     16  F   UNL     1       5.733  -0.019  -2.678  0.00  0.00    -0.160 F 
ATOM     17  F   UNL     1       3.903   1.328  -2.911  0.00  0.00    -0.160 F 
ENDBRANCH  13  14
ENDBRANCH  10  13
ENDBRANCH   1  11
BRANCH   4  18
ATOM     18  C   UNL     1      -1.142  -4.871   0.300  0.00  0.00    +0.141 C 
BRANCH  18  19
ATOM     19  C   UNL     1      -0.832  -6.367   0.389  0.00  0.00    +0.162 C 
BRANCH  19  20
ATOM     20  C   UNL     1      -2.119  -7.140   0.511  0.00  0.00    -0.015 A 
ATOM     21  C   UNL     1      -2.822  -7.495  -0.625  0.00  0.00    +0.009 A 
ATOM     22  C   UNL     1      -4.003  -8.204  -0.516  0.00  0.00    +0.041 A 
ATOM     23  C   UNL     1      -4.483  -8.562   0.732  0.00  0.00    +0.158 A 
ATOM     24  C   UNL     1      -3.778  -8.207   1.872  0.00  0.00    +0.159 A 
ATOM     25  C   UNL     1      -2.593  -7.500   1.759  0.00  0.00    +0.047 A 
ATOM     26  F   UNL     1      -4.244  -8.554   3.091  0.00  0.00    -0.202 F 
ATOM     27  F   UNL     1      -5.638  -9.255   0.840  0.00  0.00    -0.202 F 
ENDBRANCH  19  20
BRANCH  19  28
ATOM     28  O   UNL     1      -0.137  -6.780  -0.789  0.00  0.00    -0.386 OA
ATOM     29  H   UNL     1      -0.633  -6.640  -1.607  0.00  0.00    +0.210 HD
ENDBRANCH  19  28
ENDBRANCH  18  19
ENDBRANCH   4  18
TORSDOF 7
