REMARK  Name = ZINC02630094
REMARK  4 active torsions:
REMARK  status: ('A' for Active; 'I' for Inactive)
REMARK    1  A    between atoms: C_6  and  C_7
REMARK    2  A    between atoms: C_16  and  C_18
REMARK    3  A    between atoms: C_18  and  S_19
REMARK    4  A    between atoms: S_19  and  C_20
REMARK                            x       y       z     vdW  Elec       q    Type
REMARK                         _______ _______ _______ _____ _____    ______ ____
ROOT
ATOM      1  C   UNL     1      -1.309   2.116   0.020  0.00  0.00    +0.004 A 
ATOM      2  C   UNL     1      -2.280   1.810  -0.874  0.00  0.00    +0.056 A 
ATOM      3  S   UNL     1      -3.598   2.935  -0.454  0.00  0.00    -0.076 S 
ATOM      4  C   UNL     1      -2.819   3.788   0.893  0.00  0.00    +0.116 A 
ATOM      5  C   UNL     1      -1.557   3.178   0.988  0.00  0.00    +0.080 A 
ATOM      6  C   UNL     1      -0.700   3.684   2.017  0.00  0.00    +0.260 A 
ATOM      7  O   UNL     1       0.415   3.218   2.178  0.00  0.00    -0.267 OA
ATOM      8  N   UNL     1      -1.144   4.681   2.804  0.00  0.00    -0.310 N 
ATOM      9  H   UNL     1      -0.550   5.038   3.524  0.00  0.00    +0.170 HD
ATOM     10  C   UNL     1      -2.383   5.212   2.639  0.00  0.00    +0.121 A 
ATOM     11  N   UNL     1      -3.188   4.771   1.709  0.00  0.00    -0.226 NA
ENDROOT
BRANCH   1  17
ATOM     12  C   UNL     1       1.184   2.099   0.002  0.00  0.00    +0.010 A 
ATOM     13  C   UNL     1       2.384   1.418  -0.014  0.00  0.00    +0.020 A 
ATOM     14  C   UNL     1       2.397   0.033  -0.021  0.00  0.00    +0.041 A 
ATOM     15  C   UNL     1       1.208  -0.675  -0.013  0.00  0.00    +0.020 A 
ATOM     16  C   UNL     1       0.002  -0.004   0.002  0.00  0.00    +0.010 A 
ATOM     17  C   UNL     1      -0.017   1.390   0.010  0.00  0.00    -0.016 A 
ATOM     18 CL   UNL     1       3.910  -0.817  -0.040  0.00  0.00    -0.084 Cl
ENDBRANCH   1  17
BRANCH  10  19
ATOM     19  C   UNL     1      -2.838   6.327   3.544  0.00  0.00    +0.150 C 
BRANCH  19  20
ATOM     20  S   UNL     1      -4.521   6.827   3.090  0.00  0.00    -0.089 S 
BRANCH  20  21
ATOM     21  C   UNL     1      -4.903   8.120   4.224  0.00  0.00    +0.160 A 
ATOM     22  N   UNL     1      -4.163   8.631   5.189  0.00  0.00    -0.133 NA
ATOM     23  N   UNL     1      -4.661   9.650   5.967  0.00  0.00    -0.125 NA
ATOM     24  C   UNL     1      -5.876  10.112   5.745  0.00  0.00    +0.180 A 
ATOM     25  S   UNL     1      -6.392   9.095   4.369  0.00  0.00    -0.025 S 
ATOM     26  N   UNL     1      -6.568  11.122   6.401  0.00  0.00    -0.336 N 
ATOM     27  H   UNL     1      -6.152  11.595   7.139  0.00  0.00    +0.144 HD
ATOM     28  H   UNL     1      -7.468  11.355   6.122  0.00  0.00    +0.144 HD
ENDBRANCH  20  21
ENDBRANCH  19  20
ENDBRANCH  10  19
TORSDOF 4
