REMARK  Name = ZINC39994070
REMARK  8 active torsions:
REMARK  status: ('A' for Active; 'I' for Inactive)
REMARK    1  A    between atoms: C_1  and  C_2
REMARK    2  A    between atoms: C_9  and  N_27
REMARK    3  A    between atoms: C_10  and  C_13
REMARK    4  A    between atoms: C_14  and  C_15
REMARK    5  A    between atoms: C_14  and  C_17
REMARK    6  A    between atoms: N_19  and  C_20
REMARK    7  A    between atoms: C_29  and  C_36
REMARK    8  A    between atoms: C_32  and  C_35
REMARK                            x       y       z     vdW  Elec       q    Type
REMARK                         _______ _______ _______ _____ _____    ______ ____
ROOT
ATOM      1  C   UNL     1       0.907   1.269   0.001  0.00  0.00    +0.047 C 
ATOM      2  C   UNL     1       0.641  -0.214   0.024  0.00  0.00    -0.007 A 
ATOM      3  C   UNL     1       0.685  -0.937  -1.131  0.00  0.00    +0.008 A 
ATOM      4  C   UNL     1       0.435  -2.316  -1.094  0.00  0.00    +0.019 A 
ATOM      5  C   UNL     1       0.153  -2.922   0.082  0.00  0.00    +0.096 A 
ATOM      6  N   UNL     1       0.107  -2.207   1.242  0.00  0.00    -0.267 N 
ATOM      7  C   UNL     1       0.351  -0.863   1.238  0.00  0.00    +0.145 A 
ATOM      8  N   UNL     1       0.316  -0.146   2.362  0.00  0.00    -0.213 NA
ATOM      9  C   UNL     1       0.049  -0.702   3.534  0.00  0.00    +0.136 A 
ATOM     10  C   UNL     1      -0.207  -2.096   3.603  0.00  0.00    +0.081 A 
ATOM     11  C   UNL     1      -0.178  -2.845   2.398  0.00  0.00    +0.267 A 
ATOM     12  O   UNL     1      -0.392  -4.044   2.408  0.00  0.00    -0.267 OA
ENDROOT
BRANCH   9  13
ATOM     13  N   UNL     1       0.021   0.065   4.675  0.00  0.00    -0.310 N 
ATOM     14  C   UNL     1      -0.559   1.417   4.665  0.00  0.00    +0.138 C 
ATOM     15  C   UNL     1       0.451   2.382   5.297  0.00  0.00    +0.133 C 
ATOM     16  O   UNL     1       0.853   1.874   6.571  0.00  0.00    -0.371 OA
ATOM     17  C   UNL     1       1.525   0.613   6.513  0.00  0.00    +0.133 C 
ATOM     18  C   UNL     1       0.565  -0.444   5.944  0.00  0.00    +0.138 C 
ATOM     19  C   UNL     1       1.962   0.202   7.920  0.00  0.00    +0.039 C 
ATOM     20  C   UNL     1      -0.197   3.756   5.475  0.00  0.00    +0.039 C 
ENDBRANCH   9  13
BRANCH  10  21
ATOM     21  C   UNL     1      -0.493  -2.717   4.831  0.00  0.00    +0.040 C 
ATOM     22  C   UNL     1       0.376  -3.670   5.346  0.00  0.00    +0.114 C 
BRANCH  22  23
ATOM     23  C   UNL     1       0.019  -4.405   6.564  0.00  0.00    +0.259 C 
ATOM     24  O   UNL     1      -1.038  -4.179   7.123  0.00  0.00    -0.269 OA
ATOM     25  N   UNL     1       0.862  -5.330   7.064  0.00  0.00    -0.281 N 
ATOM     26  H   UNL     1       1.673  -5.558   6.582  0.00  0.00    +0.155 HD
BRANCH  25  27
ATOM     27  C   UNL     1       0.569  -5.961   8.277  0.00  0.00    +0.034 A 
ATOM     28  C   UNL     1       1.593  -6.293   9.154  0.00  0.00    +0.025 A 
ATOM     29  C   UNL     1       1.300  -6.916  10.352  0.00  0.00    +0.022 A 
ATOM     30  C   UNL     1      -0.012  -7.208  10.678  0.00  0.00    +0.041 A 
ATOM     31  C   UNL     1      -1.035  -6.878   9.806  0.00  0.00    +0.022 A 
ATOM     32  C   UNL     1      -0.748  -6.250   8.610  0.00  0.00    +0.025 A 
ATOM     33 CL   UNL     1      -0.377  -7.992  12.184  0.00  0.00    -0.084 Cl
ENDBRANCH  25  27
ENDBRANCH  22  23
BRANCH  22  34
ATOM     34  C   UNL     1       1.620  -3.935   4.688  0.00  0.00    +0.104 C 
ATOM     35  N   UNL     1       2.607  -4.145   4.166  0.00  0.00    -0.191 NA
ENDBRANCH  22  34
ENDBRANCH  10  21
TORSDOF 5
