REMARK  Name = ZINC00815760
REMARK  3 active torsions:
REMARK  status: ('A' for Active; 'I' for Inactive)
REMARK    1  A    between atoms: C_1  and  C_2
REMARK    2  A    between atoms: C_5  and  C_8
REMARK    3  A    between atoms: C_13  and  C_18
REMARK                            x       y       z     vdW  Elec       q    Type
REMARK                         _______ _______ _______ _____ _____    ______ ____
ROOT
ATOM      1  C   UNL     1       2.429   1.013   0.011  0.00  0.00    +0.136 C 
ATOM      2  C   UNL     1       1.238   1.941   0.014  0.00  0.00    +0.036 C 
ATOM      3  C   UNL     1       1.286   3.285  -0.002  0.00  0.00    +0.017 C 
ATOM      4  C   UNL     1       0.005   4.102  -0.011  0.00  0.00    +0.060 C 
ATOM      5  C   UNL     1      -1.091   3.364   0.757  0.00  0.00    +0.039 C 
ATOM      6  C   UNL     1      -1.313   2.012   0.063  0.00  0.00    +0.088 C 
ATOM      7  C   UNL     1      -0.009   1.273   0.038  0.00  0.00    +0.163 C 
ATOM      8  O   UNL     1      -0.023   0.058   0.034  0.00  0.00    -0.292 OA
ATOM      9  N   UNL     1       2.429   4.016  -0.028  0.00  0.00    -0.316 N 
ATOM     10  C   UNL     1       3.536   3.793   0.782  0.00  0.00    +0.052 A 
ATOM     11  C   UNL     1       3.990   4.735   1.689  0.00  0.00    +0.025 A 
ATOM     12  C   UNL     1       5.167   4.499   2.380  0.00  0.00    +0.002 A 
ATOM     13  C   UNL     1       5.879   3.333   2.166  0.00  0.00    +0.002 A 
ATOM     14  C   UNL     1       5.414   2.380   1.276  0.00  0.00    +0.025 A 
ATOM     15  C   UNL     1       4.228   2.606   0.597  0.00  0.00    +0.049 A 
ATOM     16  N   UNL     1       3.694   1.657  -0.274  0.00  0.00    -0.331 N 
ATOM     17  H   UNL     1       2.476   4.751  -0.660  0.00  0.00    +0.152 HD
ATOM     18  H   UNL     1       4.177   1.424  -1.082  0.00  0.00    +0.147 HD
ENDROOT
BRANCH   1  23
ATOM     19  C   UNL     1       2.799  -1.503   5.200  0.00  0.00    +0.044 C 
ATOM     20  C   UNL     1       2.702  -0.847   3.847  0.00  0.00    -0.050 A 
ATOM     21  C   UNL     1       2.847   0.523   3.731  0.00  0.00    +0.004 A 
ATOM     22  C   UNL     1       2.759   1.125   2.490  0.00  0.00    +0.006 A 
ATOM     23  C   UNL     1       2.525   0.357   1.365  0.00  0.00    -0.023 A 
ATOM     24  C   UNL     1       2.375  -1.012   1.481  0.00  0.00    +0.006 A 
ATOM     25  C   UNL     1       2.467  -1.615   2.722  0.00  0.00    +0.004 A 
ENDBRANCH   1  23
BRANCH   5  26
ATOM     26  C   UNL     1      -2.365   4.168   0.726  0.00  0.00    -0.006 A 
ATOM     27  C   UNL     1      -3.078   4.677   1.761  0.00  0.00    +0.011 A 
ATOM     28  C   UNL     1      -4.231   5.392   1.493  0.00  0.00    +0.008 A 
ATOM     29  C   UNL     1      -4.614   5.561   0.204  0.00  0.00    +0.045 A 
ATOM     30  S   UNL     1      -3.324   4.702  -0.682  0.00  0.00    -0.101 S 
ENDBRANCH   5  26
TORSDOF 2
