REMARK  Name = ZINC35844005
REMARK  2 active torsions:
REMARK  status: ('A' for Active; 'I' for Inactive)
REMARK    1  A    between atoms: C_1  and  C_2
REMARK    2  A    between atoms: N_21  and  C_24
REMARK                            x       y       z     vdW  Elec       q    Type
REMARK                         _______ _______ _______ _____ _____    ______ ____
ROOT
ATOM      1  C   UNL     1      -0.042   1.507   0.009  0.00  0.00    +0.044 C 
ATOM      2  C   UNL     1      -0.049  -0.000  -0.007  0.00  0.00    -0.050 A 
ATOM      3  C   UNL     1      -0.089  -0.680  -1.211  0.00  0.00    +0.005 A 
ATOM      4  C   UNL     1      -0.096  -2.059  -1.232  0.00  0.00    +0.024 A 
ATOM      5  C   UNL     1      -0.062  -2.778  -0.039  0.00  0.00    +0.036 A 
ATOM      6  C   UNL     1      -0.023  -2.083   1.166  0.00  0.00    -0.027 A 
ATOM      7  C   UNL     1      -0.010  -0.707   1.182  0.00  0.00    +0.008 A 
ATOM      8  C   UNL     1       0.004  -3.130   2.244  0.00  0.00    +0.053 C 
ATOM      9  C   UNL     1      -1.197  -2.997   3.187  0.00  0.00    +0.089 C 
ATOM     10  C   UNL     1      -0.642  -2.247   4.428  0.00  0.00    +0.074 C 
ATOM     11  C   UNL     1       0.841  -1.983   4.112  0.00  0.00    -0.054 C 
ATOM     12  N   UNL     1       1.207  -3.012   3.084  0.00  0.00    +0.395 N 
ATOM     13  C   UNL     1       1.397  -4.270   3.844  0.00  0.00    -0.076 C 
ATOM     14  C   UNL     1       2.067  -3.847   5.166  0.00  0.00    -0.020 C 
ATOM     15  C   UNL     1       1.693  -2.324   5.349  0.00  0.00    -0.016 C 
ATOM     16  C   UNL     1      -0.759  -3.271   5.535  0.00  0.00    +0.228 C 
ATOM     17  O   UNL     1      -0.430  -3.096   6.689  0.00  0.00    -0.275 OA
ATOM     18  N   UNL     1      -1.283  -4.399   5.043  0.00  0.00    -0.209 N 
ATOM     19  C   UNL     1      -1.578  -4.358   3.724  0.00  0.00    +0.229 C 
ATOM     20  O   UNL     1      -2.064  -5.257   3.072  0.00  0.00    -0.275 OA
ATOM     21  C   UNL     1      -0.023  -4.445   1.510  0.00  0.00    +0.212 C 
ATOM     22  O   UNL     1      -0.012  -5.551   2.007  0.00  0.00    -0.277 OA
ATOM     23  N   UNL     1      -0.061  -4.155   0.196  0.00  0.00    -0.286 N 
ATOM     24  H   UNL     1      -0.085  -4.824  -0.506  0.00  0.00    +0.155 HD
ATOM     25  H   UNL     1       2.023  -2.748   2.553  0.00  0.00    -0.079 HD
ENDROOT
BRANCH  18  26
ATOM     26  C   UNL     1      -1.515  -5.535   5.832  0.00  0.00    +0.058 A 
ATOM     27  C   UNL     1      -0.552  -6.531   5.917  0.00  0.00    +0.025 A 
ATOM     28  C   UNL     1      -0.783  -7.649   6.695  0.00  0.00    +0.002 A 
ATOM     29  C   UNL     1      -1.971  -7.776   7.391  0.00  0.00    +0.001 A 
ATOM     30  C   UNL     1      -2.933  -6.785   7.309  0.00  0.00    +0.017 A 
ATOM     31  C   UNL     1      -2.706  -5.662   6.536  0.00  0.00    +0.040 A 
ATOM     32 BR   UNL     1      -4.018  -4.305   6.430  0.00  0.00    -0.048 Br
ENDBRANCH  18  26
TORSDOF 1
