REMARK  Name = ZINC46842531
REMARK  9 active torsions:
REMARK  status: ('A' for Active; 'I' for Inactive)
REMARK    1  A    between atoms: C_1  and  C_2
REMARK    2  A    between atoms: C_7  and  C_10
REMARK    3  A    between atoms: C_14  and  C_17
REMARK    4  A    between atoms: C_17  and  N_18
REMARK    5  A    between atoms: C_19  and  C_21
REMARK    6  A    between atoms: C_23  and  C_33
REMARK    7  A    between atoms: N_29  and  C_30
REMARK    8  A    between atoms: C_30  and  C_31
REMARK    9  A    between atoms: C_30  and  C_32
REMARK                            x       y       z     vdW  Elec       q    Type
REMARK                         _______ _______ _______ _____ _____    ______ ____
ROOT
ATOM      1  N   UNL     1      -3.369  -5.796  -4.369  0.00  0.00    -0.307 N 
ATOM      2  C   UNL     1      -3.827  -6.645  -5.310  0.00  0.00    +0.245 C 
ATOM      3  O   UNL     1      -4.917  -7.168  -5.179  0.00  0.00    -0.270 OA
ATOM      4  H   UNL     1      -2.500  -5.378  -4.474  0.00  0.00    +0.149 HD
ENDROOT
BRANCH   2   5
ATOM      5  C   UNL     1      -3.004  -6.940  -6.503  0.00  0.00    +0.051 A 
ATOM      6  C   UNL     1      -1.754  -6.359  -6.671  0.00  0.00    +0.042 A 
ATOM      7  C   UNL     1      -1.005  -6.665  -7.815  0.00  0.00    +0.081 A 
ATOM      8  N   UNL     1      -1.465  -7.497  -8.738  0.00  0.00    -0.227 NA
ATOM      9  C   UNL     1      -2.650  -8.078  -8.627  0.00  0.00    +0.160 A 
ATOM     10  C   UNL     1      -3.464  -7.828  -7.504  0.00  0.00    +0.051 A 
ATOM     11  C   UNL     1      -4.642  -8.587  -7.668  0.00  0.00    +0.145 A 
ATOM     12  N   UNL     1      -4.559  -9.248  -8.787  0.00  0.00    -0.177 NA
ATOM     13  N   UNL     1      -3.344  -8.956  -9.420  0.00  0.00    -0.244 N 
BRANCH   7  14
ATOM     14  C   UNL     1       0.323  -6.048  -7.996  0.00  0.00    +0.038 A 
ATOM     15  C   UNL     1       1.213  -6.199  -9.028  0.00  0.00    +0.017 A 
ATOM     16  C   UNL     1       2.405  -5.514  -8.978  0.00  0.00    +0.008 A 
ATOM     17  C   UNL     1       2.665  -4.711  -7.913  0.00  0.00    +0.046 A 
ATOM     18  S   UNL     1       1.187  -4.904  -6.931  0.00  0.00    -0.095 S 
ENDBRANCH   7  14
BRANCH  13  19
ATOM     19  C   UNL     1      -2.887  -9.505 -10.698  0.00  0.00    +0.103 C 
ATOM     20  C   UNL     1      -2.815 -11.031 -10.601  0.00  0.00    +0.032 C 
ATOM     21  C   UNL     1      -3.869  -9.111 -11.803  0.00  0.00    +0.032 C 
ENDBRANCH  13  19
ENDBRANCH   2   5
BRANCH   1  22
ATOM     22  C   UNL     1      -4.185  -5.503  -3.188  0.00  0.00    +0.141 C 
BRANCH  22  34
ATOM     23  C   UNL     1       0.024   1.508  -0.007  0.00  0.00    +0.039 C 
ATOM     24  C   UNL     1       0.027  -0.022  -0.001  0.00  0.00    +0.133 C 
ATOM     25  C   UNL     1      -1.417  -0.537   0.001  0.00  0.00    +0.137 C 
ATOM     26  N   UNL     1      -1.389  -1.995   0.196  0.00  0.00    -0.312 N 
ATOM     27  C   UNL     1      -0.598  -2.529   1.316  0.00  0.00    +0.137 C 
ATOM     28  C   UNL     1       0.806  -1.917   1.250  0.00  0.00    +0.133 C 
ATOM     29  O   UNL     1       0.698  -0.493   1.171  0.00  0.00    -0.371 OA
ATOM     30  C   UNL     1       1.591  -2.301   2.506  0.00  0.00    +0.039 C 
ATOM     31  C   UNL     1      -2.091  -2.844  -0.652  0.00  0.00    +0.099 A 
ATOM     32  C   UNL     1      -2.927  -2.308  -1.627  0.00  0.00    +0.042 A 
ATOM     33  C   UNL     1      -3.619  -3.164  -2.464  0.00  0.00    +0.010 A 
ATOM     34  C   UNL     1      -3.451  -4.533  -2.299  0.00  0.00    -0.014 A 
ATOM     35  C   UNL     1      -2.604  -4.995  -1.311  0.00  0.00    +0.089 A 
ATOM     36  N   UNL     1      -1.953  -4.155  -0.530  0.00  0.00    -0.349 N 
ATOM     37  H   UNL     1      -1.361  -4.507   0.154  0.00  0.00    +0.167 HD
ENDBRANCH  22  34
ENDBRANCH   1  22
TORSDOF 5
