REMARK  Name = ZINC63908597
REMARK  8 active torsions:
REMARK  status: ('A' for Active; 'I' for Inactive)
REMARK    1  A    between atoms: C_1  and  C_2
REMARK    2  A    between atoms: C_6  and  N_8
REMARK    3  A    between atoms: C_9  and  C_24
REMARK    4  A    between atoms: C_12  and  S_13
REMARK    5  A    between atoms: S_13  and  C_14
REMARK    6  A    between atoms: C_14  and  C_15
REMARK    7  A    between atoms: N_20  and  C_21
REMARK    8  A    between atoms: C_21  and  C_22
REMARK                            x       y       z     vdW  Elec       q    Type
REMARK                         _______ _______ _______ _____ _____    ______ ____
ROOT
ATOM      1  N   UNL     1       0.051  -2.798   2.394  0.00  0.00    -0.270 N 
ATOM      2  C   UNL     1      -0.933  -3.642   2.882  0.00  0.00    +0.168 A 
ATOM      3  N   UNL     1      -0.507  -4.097   4.051  0.00  0.00    -0.128 NA
ATOM      4  N   UNL     1       0.649  -3.603   4.315  0.00  0.00    -0.122 NA
ATOM      5  C   UNL     1       1.041  -2.806   3.332  0.00  0.00    +0.197 A 
ENDROOT
BRANCH   2   6
ATOM      6  C   UNL     1      -2.150  -3.955   2.257  0.00  0.00    +0.025 C 
ATOM      7  C   UNL     1      -3.153  -4.798   2.737  0.00  0.00    +0.006 A 
ATOM      8  C   UNL     1      -3.273  -5.559   3.919  0.00  0.00    +0.010 A 
ATOM      9  C   UNL     1      -4.388  -6.306   4.129  0.00  0.00    +0.001 A 
ATOM     10  C   UNL     1      -5.429  -6.342   3.200  0.00  0.00    +0.002 A 
ATOM     11  C   UNL     1      -5.381  -5.636   2.043  0.00  0.00    +0.026 A 
ATOM     12  C   UNL     1      -4.248  -4.832   1.754  0.00  0.00    +0.043 A 
ATOM     13  N   UNL     1      -3.964  -4.065   0.720  0.00  0.00    -0.380 N 
ATOM     14  C   UNL     1      -2.652  -3.444   0.924  0.00  0.00    +0.152 C 
ATOM     15  H   UNL     1      -4.535  -3.930  -0.052  0.00  0.00    +0.160 HD
ENDBRANCH   2   6
BRANCH   1  21
ATOM     16  C   UNL     1      -0.018   1.503   0.010  0.00  0.00    +0.044 C 
ATOM     17  C   UNL     1       0.002  -0.004   0.002  0.00  0.00    -0.048 A 
ATOM     18  C   UNL     1       0.006  -0.688  -1.200  0.00  0.00    +0.003 A 
ATOM     19  C   UNL     1       0.024  -2.071  -1.212  0.00  0.00    +0.002 A 
ATOM     20  C   UNL     1       0.040  -2.773  -0.022  0.00  0.00    +0.026 A 
ATOM     21  C   UNL     1       0.036  -2.089   1.186  0.00  0.00    +0.051 A 
ATOM     22  C   UNL     1       0.023  -0.700   1.194  0.00  0.00    +0.029 A 
ENDBRANCH   1  21
BRANCH   5  23
ATOM     23  S   UNL     1       2.560  -1.916   3.253  0.00  0.00    -0.076 S 
BRANCH  23  24
ATOM     24  C   UNL     1       3.409  -2.360   4.793  0.00  0.00    +0.173 C 
BRANCH  24  25
ATOM     25  C   UNL     1       4.740  -1.656   4.853  0.00  0.00    +0.231 C 
ATOM     26  O   UNL     1       5.083  -0.928   3.946  0.00  0.00    -0.274 OA
ATOM     27  N   UNL     1       5.551  -1.837   5.915  0.00  0.00    -0.239 N 
ATOM     28  C   UNL     1       6.742  -1.208   5.968  0.00  0.00    +0.306 C 
ATOM     29  O   UNL     1       7.085  -0.478   5.059  0.00  0.00    -0.252 OA
ATOM     30  N   UNL     1       7.552  -1.389   7.030  0.00  0.00    -0.296 N 
ATOM     31  H   UNL     1       5.277  -2.420   6.640  0.00  0.00    +0.159 HD
ATOM     32  H   UNL     1       7.279  -1.972   7.755  0.00  0.00    +0.151 HD
BRANCH  30  33
ATOM     33  C   UNL     1       8.847  -0.705   7.088  0.00  0.00    +0.132 C 
BRANCH  33  34
ATOM     34  C   UNL     1       9.552  -1.074   8.367  0.00  0.00    -0.016 C 
ATOM     35  C   UNL     1      10.761  -1.577   8.327  0.00  0.00    +0.005 C 
ENDBRANCH  33  34
ENDBRANCH  30  33
ENDBRANCH  24  25
ENDBRANCH  23  24
ENDBRANCH   5  23
TORSDOF 7
