REMARK  Name = ZINC08438143
REMARK  12 active torsions:
REMARK  status: ('A' for Active; 'I' for Inactive)
REMARK    1  A    between atoms: C_1  and  C_2
REMARK    2  A    between atoms: C_3  and  C_32
REMARK    3  A    between atoms: N_6  and  C_24
REMARK    4  A    between atoms: N_10  and  N_11
REMARK    5  A    between atoms: N_11  and  C_12
REMARK    6  A    between atoms: C_15  and  C_18
REMARK    7  A    between atoms: C_18  and  O_20
REMARK    8  A    between atoms: O_20  and  C_21
REMARK    9  A    between atoms: C_21  and  C_22
REMARK   10  A    between atoms: C_21  and  C_23
REMARK   11  A    between atoms: C_24  and  C_25
REMARK   12  A    between atoms: C_25  and  C_26
REMARK                            x       y       z     vdW  Elec       q    Type
REMARK                         _______ _______ _______ _____ _____    ______ ____
ROOT
ATOM      1  C   UNL     1       1.294   1.243   0.075  0.00  0.00    +0.047 C 
ATOM      2  C   UNL     1       0.666  -0.126   0.029  0.00  0.00    +0.004 C 
ATOM      3  C   UNL     1       0.576  -0.822  -1.165  0.00  0.00    +0.119 C 
ATOM      4  C   UNL     1      -0.039  -2.152  -1.185  0.00  0.00    +0.264 C 
ATOM      5  O   UNL     1      -0.117  -2.763  -2.235  0.00  0.00    -0.269 OA
ATOM      6  N   UNL     1      -0.519  -2.706  -0.058  0.00  0.00    -0.232 N 
ATOM      7  C   UNL     1      -0.452  -2.064   1.122  0.00  0.00    +0.273 C 
ATOM      8  O   UNL     1      -0.894  -2.592   2.125  0.00  0.00    -0.268 OA
ATOM      9  C   UNL     1       0.160  -0.728   1.206  0.00  0.00    +0.148 C 
ATOM     10  N   UNL     1       0.233  -0.095   2.368  0.00  0.00    -0.177 NA
ENDROOT
BRANCH  10  11
ATOM     11  N   UNL     1       0.121   1.190   2.410  0.00  0.00    -0.237 N 
ATOM     12  H   UNL     1      -0.110   1.683   1.608  0.00  0.00    +0.174 HD
BRANCH  11  13
ATOM     13  C   UNL     1       0.333   1.867   3.607  0.00  0.00    +0.048 A 
ATOM     14  C   UNL     1       0.671   1.157   4.756  0.00  0.00    +0.025 A 
ATOM     15  C   UNL     1       0.881   1.824   5.942  0.00  0.00    +0.017 A 
ATOM     16  C   UNL     1       0.754   3.216   5.991  0.00  0.00    +0.059 A 
ATOM     17  C   UNL     1       0.415   3.925   4.835  0.00  0.00    +0.017 A 
ATOM     18  C   UNL     1       0.212   3.253   3.651  0.00  0.00    +0.025 A 
BRANCH  16  19
ATOM     19  C   UNL     1       0.978   3.934   7.260  0.00  0.00    +0.339 C 
ATOM     20  O   UNL     1       1.273   3.316   8.264  0.00  0.00    -0.245 OA
BRANCH  19  21
ATOM     21  O   UNL     1       0.856   5.275   7.306  0.00  0.00    -0.458 OA
BRANCH  21  22
ATOM     22  C   UNL     1       1.087   5.905   8.568  0.00  0.00    +0.171 C 
ATOM     23  C   UNL     1       2.568   6.268   8.693  0.00  0.00    +0.052 C 
ATOM     24  C   UNL     1       0.240   7.175   8.666  0.00  0.00    +0.052 C 
ENDBRANCH  21  22
ENDBRANCH  19  21
ENDBRANCH  16  19
ENDBRANCH  11  13
ENDBRANCH  10  11
BRANCH   3  25
ATOM     25  C   UNL     1       1.082  -0.245  -2.374  0.00  0.00    +0.105 C 
ATOM     26  N   UNL     1       1.484   0.212  -3.334  0.00  0.00    -0.191 NA
ENDBRANCH   3  25
BRANCH   6  27
ATOM     27  C   UNL     1      -1.128  -4.038  -0.116  0.00  0.00    +0.122 C 
BRANCH  27  28
ATOM     28  C   UNL     1      -0.052  -5.101   0.116  0.00  0.00    +0.054 C 
BRANCH  28  29
ATOM     29  C   UNL     1      -0.678  -6.470   0.056  0.00  0.00    -0.046 A 
ATOM     30  C   UNL     1      -1.181  -7.051   1.205  0.00  0.00    +0.004 A 
ATOM     31  C   UNL     1      -1.755  -8.308   1.150  0.00  0.00    +0.000 A 
ATOM     32  C   UNL     1      -1.827  -8.982  -0.054  0.00  0.00    +0.000 A 
ATOM     33  C   UNL     1      -1.325  -8.401  -1.203  0.00  0.00    +0.000 A 
ATOM     34  C   UNL     1      -0.755  -7.143  -1.149  0.00  0.00    +0.004 A 
ENDBRANCH  28  29
ENDBRANCH  27  28
ENDBRANCH   6  27
TORSDOF 9
