REMARK  Name = ZINC63372153
REMARK  6 active torsions:
REMARK  status: ('A' for Active; 'I' for Inactive)
REMARK    1  A    between atoms: C_1  and  C_2
REMARK    2  A    between atoms: C_2  and  C_3
REMARK    3  A    between atoms: C_3  and  C_5
REMARK    4  A    between atoms: C_3  and  N_6
REMARK    5  A    between atoms: C_7  and  O_31
REMARK    6  A    between atoms: C_9  and  C_16
REMARK                            x       y       z     vdW  Elec       q    Type
REMARK                         _______ _______ _______ _____ _____    ______ ____
ROOT
ATOM      1  N   UNL     1       2.213  -0.149  -1.108  0.00  0.00    -0.256 N 
ATOM      2  C   UNL     1       2.668   0.732  -2.185  0.00  0.00    +0.220 C 
ATOM      3  C   UNL     1       4.108   0.378  -2.562  0.00  0.00    +0.141 C 
ATOM      4  C   UNL     1       4.929   0.238  -1.304  0.00  0.00    +0.229 C 
ATOM      5  O   UNL     1       6.094   0.572  -1.300  0.00  0.00    -0.275 OA
ATOM      6  N   UNL     1       4.367  -0.259  -0.187  0.00  0.00    -0.240 N 
ATOM      7  C   UNL     1       3.055  -0.547  -0.140  0.00  0.00    +0.311 C 
ATOM      8  O   UNL     1       2.621  -1.188   0.797  0.00  0.00    -0.252 OA
ATOM      9  H   UNL     1       4.915  -0.407   0.599  0.00  0.00    +0.159 HD
ENDROOT
BRANCH   3  10
ATOM     10  C   UNL     1       4.125  -0.942  -3.335  0.00  0.00    +0.096 C 
ATOM     11  C   UNL     1       3.337  -0.786  -4.638  0.00  0.00    +0.124 C 
ATOM     12  C   UNL     1       3.259  -2.178  -5.256  0.00  0.00    -0.036 C 
ATOM     13  C   UNL     1       3.726  -2.065  -6.492  0.00  0.00    -0.001 A 
ATOM     14  C   UNL     1       3.822  -3.033  -7.597  0.00  0.00    +0.010 A 
ATOM     15  C   UNL     1       4.381  -2.575  -8.748  0.00  0.00    +0.001 A 
ATOM     16  C   UNL     1       4.848  -1.267  -8.909  0.00  0.00    +0.002 A 
ATOM     17  C   UNL     1       4.794  -0.309  -7.949  0.00  0.00    +0.026 A 
ATOM     18  C   UNL     1       4.222  -0.669  -6.695  0.00  0.00    +0.043 A 
ATOM     19  N   UNL     1       4.023   0.059  -5.613  0.00  0.00    -0.376 N 
ATOM     20  C   UNL     1       2.809  -3.376  -4.456  0.00  0.00    +0.048 C 
ATOM     21  C   UNL     1       3.594  -3.328  -3.133  0.00  0.00    +0.085 C 
ATOM     22  N   UNL     1       3.488  -1.996  -2.530  0.00  0.00    -0.310 NA
ATOM     23  H   UNL     1       3.845  -1.996  -1.586  0.00  0.00    +0.122 HD
ATOM     24  H   UNL     1       4.284   0.984  -5.479  0.00  0.00    +0.160 HD
ENDBRANCH   3  10
BRANCH   1  25
ATOM     25  C   UNL     1       0.819  -0.598  -1.082  0.00  0.00    +0.077 C 
ATOM     26  C   UNL     1       0.774  -2.126  -1.150  0.00  0.00    +0.028 C 
BRANCH  25  28
ATOM     27  C   UNL     1       0.088   1.403   0.222  0.00  0.00    +0.006 C 
ATOM     28  C   UNL     1       0.154  -0.125   0.212  0.00  0.00    +0.019 C 
ENDBRANCH  25  28
ENDBRANCH   1  25
BRANCH   2  29
ATOM     29  O   UNL     1       2.611   2.090  -1.745  0.00  0.00    -0.373 OA
ATOM     30  H   UNL     1       1.725   2.384  -1.491  0.00  0.00    +0.212 HD
ENDBRANCH   2  29
TORSDOF 4
