REMARK  Name = ZINC39654365
REMARK  10 active torsions:
REMARK  status: ('A' for Active; 'I' for Inactive)
REMARK    1  A    between atoms: C_1  and  C_2
REMARK    2  A    between atoms: C_2  and  C_3
REMARK    3  A    between atoms: C_6  and  C_9
REMARK    4  A    between atoms: C_9  and  C_10
REMARK    5  A    between atoms: C_10  and  N_11
REMARK    6  A    between atoms: C_12  and  C_14
REMARK    7  A    between atoms: C_25  and  C_27
REMARK    8  A    between atoms: C_27  and  C_29
REMARK    9  A    between atoms: C_27  and  O_30
REMARK   10  A    between atoms: O_30  and  C_31
REMARK                            x       y       z     vdW  Elec       q    Type
REMARK                         _______ _______ _______ _____ _____    ______ ____
ROOT
ATOM      1  C   UNL     1     -10.464  -0.158   0.286  0.00  0.00    +0.100 C 
ATOM      2  C   UNL     1     -10.449  -1.303   1.323  0.00  0.00    +0.121 C 
ATOM      3  N   UNL     1     -11.214  -0.775   2.476  0.00  0.00    -0.297 N 
ATOM      4  C   UNL     1     -12.333  -0.021   1.862  0.00  0.00    +0.115 C 
ATOM      5  C   UNL     1     -11.704   0.679   0.641  0.00  0.00    -0.004 C 
ATOM      6  C   UNL     1     -12.687   0.689  -0.527  0.00  0.00    -0.010 C 
ATOM      7  C   UNL     1     -13.884   1.575  -0.172  0.00  0.00    -0.082 C 
ATOM      8  N   UNL     1     -13.420   2.938   0.114  0.00  0.00    +0.379 N 
ATOM      9  C   UNL     1     -12.549   2.932   1.295  0.00  0.00    -0.082 C 
ATOM     10  C   UNL     1     -11.295   2.103   1.003  0.00  0.00    -0.010 C 
ATOM     11  C   UNL     1     -10.952  -0.941   3.788  0.00  0.00    +0.256 C 
ATOM     12  O   UNL     1     -11.680  -0.442   4.620  0.00  0.00    -0.272 OA
ATOM     13  H   UNL     1     -12.906   3.290  -0.680  0.00  0.00    -0.086 HD
ATOM     14  H   UNL     1     -14.216   3.534   0.287  0.00  0.00    -0.086 HD
ENDROOT
BRANCH   1  16
ATOM     15  N   UNL     1      -8.730   1.324  -0.670  0.00  0.00    -0.315 N 
ATOM     16  C   UNL     1      -9.215   0.677   0.407  0.00  0.00    +0.218 C 
ATOM     17  O   UNL     1      -8.647   0.766   1.475  0.00  0.00    -0.275 OA
ATOM     18  H   UNL     1      -9.184   1.253  -1.524  0.00  0.00    +0.149 HD
BRANCH  15  19
ATOM     19  C   UNL     1      -7.516   2.136  -0.552  0.00  0.00    +0.109 C 
BRANCH  19  20
ATOM     20  C   UNL     1      -7.184   2.757  -1.910  0.00  0.00    +0.054 C 
BRANCH  20  24
ATOM     21  C   UNL     1      -3.644   5.124  -1.567  0.00  0.00    -0.048 A 
ATOM     22  C   UNL     1      -3.551   3.785  -1.897  0.00  0.00    +0.004 A 
ATOM     23  C   UNL     1      -4.696   3.019  -2.007  0.00  0.00    +0.004 A 
ATOM     24  C   UNL     1      -5.935   3.592  -1.788  0.00  0.00    -0.046 A 
ATOM     25  C   UNL     1      -6.028   4.931  -1.458  0.00  0.00    +0.004 A 
ATOM     26  C   UNL     1      -4.883   5.696  -1.343  0.00  0.00    +0.004 A 
BRANCH  21  28
ATOM     27  C   UNL     1      -1.879   5.899  -0.008  0.00  0.00    +0.009 C 
ATOM     28  C   UNL     1      -2.396   5.959  -1.447  0.00  0.00    +0.032 C 
ENDBRANCH  21  28
ENDBRANCH  20  24
ENDBRANCH  19  20
ENDBRANCH  15  19
ENDBRANCH   1  16
BRANCH  11  29
ATOM     29  C   UNL     1      -9.756  -1.749   4.221  0.00  0.00    +0.256 C 
ATOM     30  C   UNL     1      -9.942  -3.206   3.792  0.00  0.00    +0.062 C 
BRANCH  29  31
ATOM     31  O   UNL     1      -9.626  -1.684   5.642  0.00  0.00    -0.480 OA
BRANCH  31  32
ATOM     32  C   UNL     1      -8.384  -1.881   6.158  0.00  0.00    +0.122 A 
ATOM     33  C   UNL     1      -7.334  -2.238   5.324  0.00  0.00    +0.045 A 
ATOM     34  C   UNL     1      -6.073  -2.437   5.851  0.00  0.00    +0.004 A 
ATOM     35  C   UNL     1      -5.857  -2.283   7.208  0.00  0.00    +0.000 A 
ATOM     36  C   UNL     1      -6.902  -1.928   8.041  0.00  0.00    +0.004 A 
ATOM     37  C   UNL     1      -8.163  -1.721   7.518  0.00  0.00    +0.045 A 
ENDBRANCH  31  32
ENDBRANCH  29  31
ENDBRANCH  11  29
TORSDOF 8
