REMARK  Name = ZINC39610147
REMARK  5 active torsions:
REMARK  status: ('A' for Active; 'I' for Inactive)
REMARK    1  A    between atoms: C_6  and  C_7
REMARK    2  A    between atoms: C_7  and  N_8
REMARK    3  A    between atoms: C_9  and  C_11
REMARK    4  A    between atoms: C_22  and  C_24
REMARK    5  A    between atoms: C_27  and  C_31
REMARK                            x       y       z     vdW  Elec       q    Type
REMARK                         _______ _______ _______ _____ _____    ______ ____
ROOT
ATOM      1  C   UNL     1      -3.302  -1.905  -3.717  0.00  0.00    +0.100 C 
ATOM      2  C   UNL     1      -2.098  -2.765  -4.163  0.00  0.00    +0.121 C 
ATOM      3  N   UNL     1      -2.546  -4.164  -3.972  0.00  0.00    -0.296 N 
ATOM      4  C   UNL     1      -3.963  -4.160  -4.406  0.00  0.00    +0.115 C 
ATOM      5  C   UNL     1      -4.525  -2.823  -3.881  0.00  0.00    -0.004 C 
ATOM      6  C   UNL     1      -5.501  -2.227  -4.891  0.00  0.00    -0.010 C 
ATOM      7  C   UNL     1      -6.735  -3.128  -4.994  0.00  0.00    -0.082 C 
ATOM      8  N   UNL     1      -7.372  -3.241  -3.676  0.00  0.00    +0.379 N 
ATOM      9  C   UNL     1      -6.459  -3.900  -2.734  0.00  0.00    -0.082 C 
ATOM     10  C   UNL     1      -5.213  -3.032  -2.536  0.00  0.00    -0.010 C 
ATOM     11  C   UNL     1      -1.827  -5.206  -3.510  0.00  0.00    +0.247 C 
ATOM     12  O   UNL     1      -0.706  -5.026  -3.074  0.00  0.00    -0.270 OA
ATOM     13  H   UNL     1      -7.599  -2.319  -3.333  0.00  0.00    -0.086 HD
ATOM     14  H   UNL     1      -8.218  -3.784  -3.758  0.00  0.00    -0.086 HD
ENDROOT
BRANCH  11  15
ATOM     15  C   UNL     1      -2.400  -6.569  -3.533  0.00  0.00    +0.040 A 
ATOM     16  C   UNL     1      -3.457  -6.870  -4.394  0.00  0.00    +0.014 A 
ATOM     17  C   UNL     1      -3.988  -8.142  -4.412  0.00  0.00    +0.016 A 
ATOM     18  C   UNL     1      -3.477  -9.121  -3.579  0.00  0.00    +0.090 A 
ATOM     19  C   UNL     1      -2.428  -8.830  -2.721  0.00  0.00    +0.136 A 
ATOM     20  C   UNL     1      -1.884  -7.560  -2.698  0.00  0.00    +0.052 A 
ATOM     21  F   UNL     1      -1.934  -9.791  -1.910  0.00  0.00    -0.205 F 
BRANCH  18  22
ATOM     22  C   UNL     1      -4.062 -10.510  -3.604  0.00  0.00    +0.420 C 
ATOM     23  F   UNL     1      -5.101 -10.561  -4.541  0.00  0.00    -0.166 F 
ATOM     24  F   UNL     1      -3.069 -11.428  -3.959  0.00  0.00    -0.166 F 
ATOM     25  F   UNL     1      -4.561 -10.828  -2.337  0.00  0.00    -0.166 F 
ENDBRANCH  18  22
ENDBRANCH  11  15
BRANCH   1  27
ATOM     26  N   UNL     1      -3.780  -0.394  -1.818  0.00  0.00    -0.311 N 
ATOM     27  C   UNL     1      -3.146  -1.491  -2.276  0.00  0.00    +0.218 C 
ATOM     28  O   UNL     1      -2.450  -2.146  -1.529  0.00  0.00    -0.275 OA
ATOM     29  H   UNL     1      -4.337   0.130  -2.415  0.00  0.00    +0.149 HD
BRANCH  26  30
ATOM     30  C   UNL     1      -3.628   0.008  -0.417  0.00  0.00    +0.139 C 
BRANCH  30  36
ATOM     31  C   UNL     1      -5.749   1.157   0.248  0.00  0.00    +0.009 A 
ATOM     32  C   UNL     1      -6.492   2.300   0.482  0.00  0.00    +0.050 A 
ATOM     33  C   UNL     1      -5.918   3.548   0.305  0.00  0.00    +0.166 A 
ATOM     34  C   UNL     1      -4.592   3.648  -0.110  0.00  0.00    +0.167 A 
ATOM     35  C   UNL     1      -3.854   2.499  -0.343  0.00  0.00    +0.054 A 
ATOM     36  C   UNL     1      -4.433   1.257  -0.163  0.00  0.00    -0.027 A 
ATOM     37  O   UNL     1      -4.265   4.970  -0.210  0.00  0.00    -0.453 OA
ATOM     38  C   UNL     1      -5.520   5.674  -0.249  0.00  0.00    +0.466 C 
ATOM     39  O   UNL     1      -6.421   4.807   0.464  0.00  0.00    -0.453 OA
ENDBRANCH  30  36
ENDBRANCH  26  30
ENDBRANCH   1  27
TORSDOF 5
