REMARK  Name = ZINC49974241
REMARK  9 active torsions:
REMARK  status: ('A' for Active; 'I' for Inactive)
REMARK    1  A    between atoms: C_1  and  C_2
REMARK    2  A    between atoms: C_2  and  C_4
REMARK    3  A    between atoms: C_2  and  N_17
REMARK    4  A    between atoms: N_6  and  C_7
REMARK    5  A    between atoms: C_10  and  S_13
REMARK    6  A    between atoms: S_13  and  N_16
REMARK    7  A    between atoms: N_17  and  C_18
REMARK    8  A    between atoms: C_18  and  C_20
REMARK    9  A    between atoms: C_18  and  C_26
REMARK                            x       y       z     vdW  Elec       q    Type
REMARK                         _______ _______ _______ _____ _____    ______ ____
ROOT
ATOM      1  C   UNL     1      -0.013   1.521  -0.004  0.00  0.00    +0.034 C 
ATOM      2  C   UNL     1       0.004  -0.009  -0.002  0.00  0.00    +0.138 C 
ENDROOT
BRANCH   2   3
ATOM      3  C   UNL     1       0.730  -0.502   1.224  0.00  0.00    +0.234 C 
ATOM      4  O   UNL     1       0.156  -1.205   2.028  0.00  0.00    -0.274 OA
ATOM      5  N   UNL     1       2.019  -0.161   1.426  0.00  0.00    -0.284 N 
ATOM      6  H   UNL     1       2.498   0.344   0.751  0.00  0.00    +0.155 HD
BRANCH   5   7
ATOM      7  C   UNL     1       2.664  -0.537   2.609  0.00  0.00    +0.034 A 
ATOM      8  C   UNL     1       3.602   0.308   3.188  0.00  0.00    +0.025 A 
ATOM      9  C   UNL     1       4.238  -0.066   4.356  0.00  0.00    +0.030 A 
ATOM     10  C   UNL     1       3.941  -1.280   4.949  0.00  0.00    +0.105 A 
ATOM     11  C   UNL     1       3.008  -2.123   4.374  0.00  0.00    +0.030 A 
ATOM     12  C   UNL     1       2.364  -1.752   3.210  0.00  0.00    +0.025 A 
BRANCH  10  13
ATOM     13  S   UNL     1       4.754  -1.752   6.439  0.00  0.00    +0.056 S 
ATOM     14  O   UNL     1       4.701  -3.171   6.498  0.00  0.00    -0.153 OA
ATOM     15  O   UNL     1       5.979  -1.034   6.479  0.00  0.00    -0.153 OA
BRANCH  13  16
ATOM     16  N   UNL     1       3.835  -1.192   7.697  0.00  0.00    -0.204 NA
ATOM     17  H   UNL     1       3.016  -0.703   7.520  0.00  0.00    +0.144 HD
ATOM     18  H   UNL     1       4.116  -1.352   8.612  0.00  0.00    +0.144 HD
ENDBRANCH  13  16
ENDBRANCH  10  13
ENDBRANCH   5   7
ENDBRANCH   2   3
BRANCH   2  19
ATOM     19  N   UNL     1      -1.375  -0.515   0.011  0.00  0.00    -0.293 NA
ATOM     20  H   UNL     1      -1.427  -1.412   0.469  0.00  0.00    +0.124 HD
BRANCH  19  21
ATOM     21  C   UNL     1      -1.922  -0.585  -1.351  0.00  0.00    +0.151 C 
BRANCH  21  22
ATOM     22  C   UNL     1      -3.425  -0.498  -1.294  0.00  0.00    -0.023 A 
ATOM     23  C   UNL     1      -4.118  -1.155  -0.293  0.00  0.00    +0.005 A 
ATOM     24  C   UNL     1      -5.497  -1.075  -0.241  0.00  0.00    +0.000 A 
ATOM     25  C   UNL     1      -6.183  -0.339  -1.188  0.00  0.00    +0.000 A 
ATOM     26  C   UNL     1      -5.491   0.318  -2.188  0.00  0.00    +0.000 A 
ATOM     27  C   UNL     1      -4.111   0.242  -2.238  0.00  0.00    +0.005 A 
ENDBRANCH  21  22
BRANCH  21  28
ATOM     28  C   UNL     1      -1.518  -1.890  -1.987  0.00  0.00    +0.126 A 
ATOM     29  C   UNL     1      -1.129  -2.056  -3.264  0.00  0.00    +0.046 A 
ATOM     30  C   UNL     1      -0.846  -3.431  -3.431  0.00  0.00    +0.041 A 
ATOM     31  C   UNL     1      -1.078  -4.023  -2.246  0.00  0.00    +0.195 A 
ATOM     32  O   UNL     1      -1.480  -3.085  -1.374  0.00  0.00    -0.466 OA
ENDBRANCH  21  28
ENDBRANCH  19  21
ENDBRANCH   2  19
TORSDOF 8
