REMARK  Name = ZINC11099658
REMARK  13 active torsions:
REMARK  status: ('A' for Active; 'I' for Inactive)
REMARK    1  A    between atoms: C_1  and  C_2
REMARK    2  A    between atoms: C_2  and  C_3
REMARK    3  A    between atoms: C_3  and  C_4
REMARK    4  A    between atoms: C_4  and  C_5
REMARK    5  A    between atoms: C_5  and  C_6
REMARK    6  A    between atoms: C_6  and  N_7
REMARK    7  A    between atoms: N_7  and  S_8
REMARK    8  A    between atoms: S_8  and  C_11
REMARK    9  A    between atoms: C_14  and  N_17
REMARK   10  A    between atoms: C_18  and  C_20
REMARK   11  A    between atoms: N_25  and  C_27
REMARK   12  A    between atoms: C_30  and  N_33
REMARK   13  A    between atoms: C_34  and  C_36
REMARK                            x       y       z     vdW  Elec       q    Type
REMARK                         _______ _______ _______ _____ _____    ______ ____
ROOT
ATOM      1  N   UNL     1      -2.722   4.183  10.827  0.00  0.00    -0.285 N 
ATOM      2  C   UNL     1      -2.915   4.676   9.588  0.00  0.00    +0.222 C 
ATOM      3  O   UNL     1      -2.111   5.447   9.110  0.00  0.00    -0.275 OA
ATOM      4  H   UNL     1      -3.405   3.634  11.243  0.00  0.00    +0.155 HD
ENDROOT
BRANCH   1   8
ATOM      5  C   UNL     1       0.810   5.016  12.873  0.00  0.00    +0.105 A 
ATOM      6  C   UNL     1      -0.344   4.728  13.578  0.00  0.00    +0.030 A 
ATOM      7  C   UNL     1      -1.517   4.452  12.903  0.00  0.00    +0.025 A 
ATOM      8  C   UNL     1      -1.536   4.463  11.514  0.00  0.00    +0.034 A 
ATOM      9  C   UNL     1      -0.374   4.747  10.809  0.00  0.00    +0.025 A 
ATOM     10  C   UNL     1       0.795   5.027  11.491  0.00  0.00    +0.030 A 
BRANCH   5  11
ATOM     11  S   UNL     1       2.304   5.368  13.739  0.00  0.00    +0.058 S 
ATOM     12  O   UNL     1       3.111   6.139  12.859  0.00  0.00    -0.153 OA
ATOM     13  O   UNL     1       1.927   5.829  15.029  0.00  0.00    -0.153 OA
BRANCH  11  14
ATOM     14  N   UNL     1       3.091   3.928  13.962  0.00  0.00    -0.190 NA
ATOM     15  H   UNL     1       3.223   3.582  14.859  0.00  0.00    +0.148 HD
BRANCH  14  16
ATOM     16  C   UNL     1       3.589   3.178  12.807  0.00  0.00    +0.106 C 
BRANCH  16  17
ATOM     17  C   UNL     1       4.579   2.112  13.279  0.00  0.00    +0.017 C 
BRANCH  17  18
ATOM     18  C   UNL     1       5.099   1.328  12.072  0.00  0.00    +0.001 C 
BRANCH  18  19
ATOM     19  C   UNL     1       6.090   0.262  12.544  0.00  0.00    -0.000 C 
BRANCH  19  21
ATOM     20  C   UNL     1       7.600  -1.588  11.809  0.00  0.00    +0.004 C 
ATOM     21  C   UNL     1       6.609  -0.521  11.337  0.00  0.00    -0.003 C 
ENDBRANCH  19  21
ENDBRANCH  18  19
ENDBRANCH  17  18
ENDBRANCH  16  17
ENDBRANCH  14  16
ENDBRANCH  11  14
ENDBRANCH   5  11
ENDBRANCH   1   8
BRANCH   2  22
ATOM     22  C   UNL     1      -4.131   4.269   8.796  0.00  0.00    +0.102 C 
ATOM     23  C   UNL     1      -4.064   2.773   8.408  0.00  0.00    +0.110 C 
ATOM     24  C   UNL     1      -3.437   2.774   7.030  0.00  0.00    +0.221 C 
ATOM     25  O   UNL     1      -2.958   1.803   6.484  0.00  0.00    -0.275 OA
ATOM     26  N   UNL     1      -3.486   4.009   6.501  0.00  0.00    -0.271 N 
ATOM     27  C   UNL     1      -4.144   4.953   7.411  0.00  0.00    +0.127 C 
BRANCH  26  28
ATOM     28  C   UNL     1      -2.980   4.349   5.240  0.00  0.00    +0.036 A 
ATOM     29  C   UNL     1      -2.985   5.674   4.824  0.00  0.00    +0.025 A 
ATOM     30  C   UNL     1      -2.485   6.009   3.582  0.00  0.00    +0.025 A 
ATOM     31  C   UNL     1      -1.977   5.021   2.748  0.00  0.00    +0.033 A 
ATOM     32  C   UNL     1      -1.977   3.696   3.162  0.00  0.00    +0.025 A 
ATOM     33  C   UNL     1      -2.471   3.361   4.407  0.00  0.00    +0.025 A 
BRANCH  31  34
ATOM     34  N   UNL     1      -1.470   5.361   1.488  0.00  0.00    -0.286 N 
ATOM     35  C   UNL     1      -0.821   6.530   1.315  0.00  0.00    +0.214 C 
ATOM     36  O   UNL     1      -0.749   7.324   2.229  0.00  0.00    -0.276 OA
ATOM     37  C   UNL     1      -0.184   6.850  -0.013  0.00  0.00    +0.109 C 
ATOM     38  H   UNL     1      -1.586   4.756   0.739  0.00  0.00    +0.155 HD
ENDBRANCH  31  34
ENDBRANCH  26  28
ENDBRANCH   2  22
TORSDOF 11
