REMARK  Name = ZINC32859562
REMARK  11 active torsions:
REMARK  status: ('A' for Active; 'I' for Inactive)
REMARK    1  A    between atoms: C_1  and  C_2
REMARK    2  A    between atoms: C_2  and  N_3
REMARK    3  A    between atoms: N_3  and  C_4
REMARK    4  A    between atoms: N_3  and  S_6
REMARK    5  A    between atoms: C_4  and  C_5
REMARK    6  A    between atoms: S_6  and  C_9
REMARK    7  A    between atoms: C_12  and  N_15
REMARK    8  A    between atoms: C_16  and  C_18
REMARK    9  A    between atoms: C_18  and  N_19
REMARK   10  A    between atoms: C_22  and  C_26
REMARK   11  A    between atoms: C_22  and  C_27
REMARK                            x       y       z     vdW  Elec       q    Type
REMARK                         _______ _______ _______ _____ _____    ______ ____
ROOT
ATOM      1  C   UNL     1       4.875   1.291   2.797  0.00  0.00    +0.214 C 
ENDROOT
BRANCH   1   2
ATOM      2  N   UNL     1       3.874   0.960   1.780  0.00  0.00    -0.215 N 
ATOM      3  C   UNL     1       3.518   1.782   0.772  0.00  0.00    +0.251 C 
ATOM      4  O   UNL     1       3.950   2.891   0.545  0.00  0.00    -0.272 OA
ATOM      5  C   UNL     1       2.467   1.028  -0.018  0.00  0.00    +0.135 C 
ATOM      6  N   UNL     1       2.340  -0.249   0.703  0.00  0.00    -0.281 N 
ATOM      7  C   UNL     1       3.200  -0.195   1.736  0.00  0.00    +0.310 C 
ATOM      8  O   UNL     1       3.348  -1.094   2.540  0.00  0.00    -0.252 OA
ATOM      9  C   UNL     1       2.937   0.791  -1.455  0.00  0.00    +0.047 C 
ATOM     10  H   UNL     1       1.633  -1.014   0.349  0.00  0.00    +0.152 HD
BRANCH   5  11
ATOM     11  C   UNL     1       1.158   1.776  -0.007  0.00  0.00    -0.015 A 
ATOM     12  C   UNL     1       1.164   3.170  -0.009  0.00  0.00    +0.007 A 
ATOM     13  C   UNL     1       0.000   3.875   0.001  0.00  0.00    +0.009 A 
ATOM     14  C   UNL     1      -1.227   3.191   0.013  0.00  0.00    -0.018 A 
ATOM     15  C   UNL     1      -2.450   3.885   0.024  0.00  0.00    +0.008 A 
ATOM     16  C   UNL     1      -3.619   3.189   0.036  0.00  0.00    +0.001 A 
ATOM     17  C   UNL     1      -3.625   1.795   0.038  0.00  0.00    +0.001 A 
ATOM     18  C   UNL     1      -2.461   1.090   0.028  0.00  0.00    +0.008 A 
ATOM     19  C   UNL     1      -1.233   1.774   0.009  0.00  0.00    -0.018 A 
ATOM     20  C   UNL     1      -0.011   1.080   0.004  0.00  0.00    +0.014 A 
ENDBRANCH   5  11
ENDBRANCH   1   2
BRANCH   1  22
ATOM     21  N   UNL     1       7.316   1.044   3.107  0.00  0.00    -0.284 N 
ATOM     22  C   UNL     1       6.235   0.842   2.328  0.00  0.00    +0.235 C 
ATOM     23  O   UNL     1       6.356   0.299   1.251  0.00  0.00    -0.274 OA
ATOM     24  H   UNL     1       7.220   1.604   4.049  0.00  0.00    +0.155 HD
BRANCH  21  28
ATOM     25  C   UNL     1      11.027  -0.452   1.945  0.00  0.00    +0.106 A 
ATOM     26  C   UNL     1      10.140   0.011   0.990  0.00  0.00    +0.030 A 
ATOM     27  C   UNL     1       8.909   0.507   1.372  0.00  0.00    +0.025 A 
ATOM     28  C   UNL     1       8.563   0.542   2.716  0.00  0.00    +0.034 A 
ATOM     29  C   UNL     1       9.458   0.082   3.673  0.00  0.00    +0.025 A 
ATOM     30  C   UNL     1      10.685  -0.419   3.284  0.00  0.00    +0.030 A 
BRANCH  25  31
ATOM     31  S   UNL     1      12.597  -1.084   1.453  0.00  0.00    +0.061 S 
ATOM     32  O   UNL     1      13.025  -1.957   2.489  0.00  0.00    -0.153 OA
ATOM     33  O   UNL     1      12.458  -1.512   0.105  0.00  0.00    -0.153 OA
BRANCH  31  34
ATOM     34  N   UNL     1      13.655   0.189   1.439  0.00  0.00    -0.177 NA
BRANCH  34  36
ATOM     35  C   UNL     1      15.787  -0.144   2.591  0.00  0.00    +0.022 C 
ATOM     36  C   UNL     1      14.412   0.525   2.648  0.00  0.00    +0.106 C 
ENDBRANCH  34  36
BRANCH  34  37
ATOM     37  C   UNL     1      13.835   0.979   0.219  0.00  0.00    +0.106 C 
ATOM     38  C   UNL     1      12.925   2.209   0.269  0.00  0.00    +0.022 C 
ENDBRANCH  34  37
ENDBRANCH  31  34
ENDBRANCH  25  31
ENDBRANCH  21  28
ENDBRANCH   1  22
TORSDOF 8
