REMARK  Name = ZINC39658624
REMARK  7 active torsions:
REMARK  status: ('A' for Active; 'I' for Inactive)
REMARK    1  A    between atoms: C_4  and  C_7
REMARK    2  A    between atoms: C_7  and  S_8
REMARK    3  A    between atoms: S_8  and  C_9
REMARK    4  A    between atoms: C_9  and  C_10
REMARK    5  A    between atoms: C_10  and  N_11
REMARK    6  A    between atoms: C_12  and  C_14
REMARK    7  A    between atoms: C_25  and  C_27
REMARK                            x       y       z     vdW  Elec       q    Type
REMARK                         _______ _______ _______ _____ _____    ______ ____
ROOT
ATOM      1  C   UNL     1       9.681  -4.043   3.622  0.00  0.00    +0.100 C 
ATOM      2  C   UNL     1      10.675  -3.193   2.800  0.00  0.00    +0.121 C 
ATOM      3  N   UNL     1      11.486  -2.480   3.814  0.00  0.00    -0.297 N 
ATOM      4  C   UNL     1      11.703  -3.482   4.885  0.00  0.00    +0.115 C 
ATOM      5  C   UNL     1      10.360  -4.233   4.989  0.00  0.00    -0.004 C 
ATOM      6  C   UNL     1       9.502  -3.627   6.095  0.00  0.00    -0.010 C 
ATOM      7  C   UNL     1      10.170  -3.878   7.449  0.00  0.00    -0.082 C 
ATOM      8  N   UNL     1      10.326  -5.323   7.660  0.00  0.00    +0.379 N 
ATOM      9  C   UNL     1      11.228  -5.882   6.646  0.00  0.00    -0.082 C 
ATOM     10  C   UNL     1      10.604  -5.715   5.257  0.00  0.00    -0.010 C 
ATOM     11  C   UNL     1      11.928  -1.207   3.773  0.00  0.00    +0.260 C 
ATOM     12  O   UNL     1      12.587  -0.764   4.689  0.00  0.00    -0.271 OA
ATOM     13  H   UNL     1      10.710  -5.488   8.578  0.00  0.00    -0.086 HD
ATOM     14  H   UNL     1       9.424  -5.771   7.590  0.00  0.00    -0.086 HD
ENDROOT
BRANCH  11  15
ATOM     15  C   UNL     1      11.602  -0.335   2.588  0.00  0.00    +0.296 C 
ATOM     16  C   UNL     1      12.290  -0.888   1.333  0.00  0.00    +0.283 C 
ATOM     17  O   UNL     1      11.972  -0.030   0.232  0.00  0.00    -0.484 OA
ATOM     18  C   UNL     1      12.087   1.309   0.447  0.00  0.00    +0.162 A 
ATOM     19  C   UNL     1      12.152   2.170  -0.639  0.00  0.00    +0.049 A 
ATOM     20  C   UNL     1      12.266   3.532  -0.437  0.00  0.00    +0.004 A 
ATOM     21  C   UNL     1      12.316   4.041   0.848  0.00  0.00    +0.004 A 
ATOM     22  C   UNL     1      12.253   3.188   1.934  0.00  0.00    +0.049 A 
ATOM     23  C   UNL     1      12.140   1.820   1.738  0.00  0.00    +0.163 A 
ATOM     24  O   UNL     1      12.086   0.993   2.818  0.00  0.00    -0.473 OA
ENDBRANCH  11  15
BRANCH   1  26
ATOM     25  N   UNL     1       7.228  -4.005   3.934  0.00  0.00    -0.314 N 
ATOM     26  C   UNL     1       8.374  -3.312   3.783  0.00  0.00    +0.218 C 
ATOM     27  O   UNL     1       8.352  -2.099   3.777  0.00  0.00    -0.275 OA
ATOM     28  H   UNL     1       7.245  -4.975   3.939  0.00  0.00    +0.149 HD
BRANCH  25  29
ATOM     29  C   UNL     1       5.957  -3.294   4.091  0.00  0.00    +0.115 C 
BRANCH  29  30
ATOM     30  C   UNL     1       4.820  -4.307   4.242  0.00  0.00    +0.088 C 
BRANCH  30  31
ATOM     31  S   UNL     1       3.246  -3.427   4.436  0.00  0.00    -0.155 S 
BRANCH  31  32
ATOM     32  C   UNL     1       2.019  -4.753   4.602  0.00  0.00    +0.104 C 
BRANCH  32  36
ATOM     33  C   UNL     1      -1.867  -3.046   5.084  0.00  0.00    +0.000 A 
ATOM     34  C   UNL     1      -1.389  -3.330   3.818  0.00  0.00    +0.000 A 
ATOM     35  C   UNL     1      -0.131  -3.882   3.662  0.00  0.00    +0.004 A 
ATOM     36  C   UNL     1       0.649  -4.150   4.772  0.00  0.00    -0.038 A 
ATOM     37  C   UNL     1       0.171  -3.865   6.037  0.00  0.00    +0.004 A 
ATOM     38  C   UNL     1      -1.087  -3.315   6.194  0.00  0.00    +0.000 A 
ENDBRANCH  32  36
ENDBRANCH  31  32
ENDBRANCH  30  31
ENDBRANCH  29  30
ENDBRANCH  25  29
ENDBRANCH   1  26
TORSDOF 7
