REMARK  Name = ZINC17186022
REMARK  6 active torsions:
REMARK  status: ('A' for Active; 'I' for Inactive)
REMARK    1  A    between atoms: C_3  and  C_9
REMARK    2  A    between atoms: N_11  and  C_12
REMARK    3  A    between atoms: C_12  and  C_13
REMARK    4  A    between atoms: N_15  and  N_16
REMARK    5  A    between atoms: C_17  and  C_19
REMARK    6  A    between atoms: C_19  and  C_20
REMARK                            x       y       z     vdW  Elec       q    Type
REMARK                         _______ _______ _______ _____ _____    ______ ____
ROOT
ATOM      1  C   UNL     1      -8.268   1.276   2.889  0.00  0.00    +0.246 C 
ATOM      2  O   UNL     1      -8.856   0.575   2.092  0.00  0.00    -0.273 OA
ATOM      3  N   UNL     1      -6.984   1.621   2.665  0.00  0.00    -0.233 N 
ATOM      4  H   UNL     1      -6.515   2.181   3.302  0.00  0.00    +0.173 HD
ENDROOT
BRANCH   3   5
ATOM      5  N   UNL     1      -6.329   1.169   1.513  0.00  0.00    -0.234 N 
ATOM      6  C   UNL     1      -5.045   1.513   1.289  0.00  0.00    +0.230 C 
ATOM      7  O   UNL     1      -4.457   2.214   2.085  0.00  0.00    -0.274 OA
ATOM      8  H   UNL     1      -6.799   0.608   0.875  0.00  0.00    +0.173 HD
BRANCH   6   9
ATOM      9  C   UNL     1      -4.340   1.027   0.049  0.00  0.00    +0.104 C 
BRANCH   9  10
ATOM     10  C   UNL     1      -2.904   1.556   0.038  0.00  0.00    -0.020 C 
ATOM     11  C   UNL     1      -2.188   1.063  -1.221  0.00  0.00    +0.011 C 
ATOM     12  C   UNL     1      -0.753   1.593  -1.232  0.00  0.00    -0.010 C 
ATOM     13  C   UNL     1      -0.013   1.086   0.008  0.00  0.00    +0.007 C 
ATOM     14  C   UNL     1      -0.729   1.579   1.267  0.00  0.00    -0.010 C 
ATOM     15  C   UNL     1      -2.164   1.050   1.278  0.00  0.00    +0.011 C 
ATOM     16  C   UNL     1      -0.750   3.109   1.275  0.00  0.00    +0.007 C 
ATOM     17  C   UNL     1      -1.490   3.616   0.036  0.00  0.00    -0.010 C 
ATOM     18  C   UNL     1      -0.773   3.123  -1.223  0.00  0.00    +0.007 C 
ATOM     19  C   UNL     1      -2.925   3.086   0.047  0.00  0.00    +0.011 C 
ENDBRANCH   9  10
ENDBRANCH   6   9
ENDBRANCH   3   5
BRANCH   1  20
ATOM     20  C   UNL     1      -8.973   1.762   4.129  0.00  0.00    +0.202 C 
BRANCH  20  23
ATOM     21  C   UNL     1     -11.172   1.564   5.160  0.00  0.00    +0.246 C 
ATOM     22  O   UNL     1     -10.776   2.263   6.071  0.00  0.00    -0.270 OA
ATOM     23  N   UNL     1     -10.348   1.255   4.139  0.00  0.00    -0.303 N 
ATOM     24  H   UNL     1     -10.665   0.697   3.412  0.00  0.00    +0.150 HD
BRANCH  21  27
ATOM     25  C   UNL     1     -14.312  -0.225   4.140  0.00  0.00    +0.021 A 
ATOM     26  C   UNL     1     -13.017   0.249   4.125  0.00  0.00    +0.016 A 
ATOM     27  C   UNL     1     -12.558   1.053   5.170  0.00  0.00    +0.055 A 
ATOM     28  C   UNL     1     -13.414   1.366   6.230  0.00  0.00    +0.054 A 
ATOM     29  C   UNL     1     -14.710   0.890   6.230  0.00  0.00    +0.040 A 
ATOM     30  C   UNL     1     -15.157   0.093   5.190  0.00  0.00    +0.042 A 
ATOM     31 CL   UNL     1     -16.785  -0.509   5.201  0.00  0.00    -0.083 Cl
ATOM     32 CL   UNL     1     -12.851   2.359   7.538  0.00  0.00    -0.083 Cl
ENDBRANCH  21  27
ENDBRANCH  20  23
ENDBRANCH   1  20
TORSDOF 6
