REMARK  Name = ZINC09678731
REMARK  7 active torsions:
REMARK  status: ('A' for Active; 'I' for Inactive)
REMARK    1  A    between atoms: C_4  and  C_7
REMARK    2  A    between atoms: C_7  and  C_9
REMARK    3  A    between atoms: C_7  and  N_26
REMARK    4  A    between atoms: C_9  and  C_10
REMARK    5  A    between atoms: N_12  and  C_13
REMARK    6  A    between atoms: C_18  and  O_19
REMARK    7  A    between atoms: O_19  and  C_20
REMARK                            x       y       z     vdW  Elec       q    Type
REMARK                         _______ _______ _______ _____ _____    ______ ____
ROOT
ATOM      1  C   UNL     1       5.582  -1.231   1.757  0.00  0.00    +0.219 C 
ATOM      2  O   UNL     1       6.409  -1.111   0.878  0.00  0.00    -0.275 OA
ATOM      3  N   UNL     1       5.827  -2.039   2.807  0.00  0.00    -0.283 N 
ATOM      4  H   UNL     1       5.129  -2.216   3.457  0.00  0.00    +0.155 HD
ENDROOT
BRANCH   3   5
ATOM      5  C   UNL     1       7.091  -2.624   2.961  0.00  0.00    +0.076 A 
ATOM      6  C   UNL     1       7.872  -2.894   1.847  0.00  0.00    +0.027 A 
ATOM      7  C   UNL     1       9.119  -3.471   2.001  0.00  0.00    +0.002 A 
ATOM      8  C   UNL     1       9.591  -3.779   3.264  0.00  0.00    +0.004 A 
ATOM      9  C   UNL     1       8.818  -3.513   4.379  0.00  0.00    +0.048 A 
ATOM     10  C   UNL     1       7.569  -2.930   4.234  0.00  0.00    +0.150 A 
BRANCH  10  11
ATOM     11  O   UNL     1       6.810  -2.662   5.329  0.00  0.00    -0.454 OA
BRANCH  11  12
ATOM     12  C   UNL     1       7.365  -2.861   6.553  0.00  0.00    +0.129 A 
ATOM     13  C   UNL     1       8.249  -1.928   7.076  0.00  0.00    +0.046 A 
ATOM     14  C   UNL     1       8.811  -2.133   8.321  0.00  0.00    +0.004 A 
ATOM     15  C   UNL     1       8.495  -3.267   9.046  0.00  0.00    +0.000 A 
ATOM     16  C   UNL     1       7.614  -4.198   8.527  0.00  0.00    +0.004 A 
ATOM     17  C   UNL     1       7.045  -3.995   7.286  0.00  0.00    +0.046 A 
ENDBRANCH  11  12
ENDBRANCH  10  11
ENDBRANCH   3   5
BRANCH   1  18
ATOM     18  C   UNL     1       4.279  -0.477   1.675  0.00  0.00    +0.123 C 
BRANCH  18  19
ATOM     19  C   UNL     1       4.255   0.360   0.395  0.00  0.00    +0.113 C 
BRANCH  19  20
ATOM     20  N   UNL     1       4.263  -0.528  -0.770  0.00  0.00    -0.292 N 
ATOM     21  C   UNL     1       4.750  -0.091  -1.948  0.00  0.00    +0.298 C 
ATOM     22  O   UNL     1       5.268   1.006  -2.022  0.00  0.00    -0.253 OA
ATOM     23  N   UNL     1       4.663  -0.870  -3.045  0.00  0.00    -0.313 N 
ATOM     24  H   UNL     1       3.917  -1.431  -0.694  0.00  0.00    +0.151 HD
ATOM     25  H   UNL     1       4.250  -1.746  -2.986  0.00  0.00    +0.146 HD
ATOM     26  H   UNL     1       5.013  -0.555  -3.892  0.00  0.00    +0.146 HD
ENDBRANCH  19  20
BRANCH  19  30
ATOM     27  C   UNL     1       0.723   2.761   0.328  0.00  0.00    +0.000 A 
ATOM     28  C   UNL     1       1.930   3.319   0.705  0.00  0.00    +0.000 A 
ATOM     29  C   UNL     1       3.073   2.542   0.727  0.00  0.00    +0.005 A 
ATOM     30  C   UNL     1       3.009   1.207   0.372  0.00  0.00    -0.027 A 
ATOM     31  C   UNL     1       1.801   0.650  -0.004  0.00  0.00    +0.005 A 
ATOM     32  C   UNL     1       0.658   1.427  -0.027  0.00  0.00    +0.000 A 
ENDBRANCH  19  30
ENDBRANCH  18  19
ENDBRANCH   1  18
TORSDOF 7
