REMARK  Name = ZINC05441639
REMARK  6 active torsions:
REMARK  status: ('A' for Active; 'I' for Inactive)
REMARK    1  A    between atoms: C_1  and  C_2
REMARK    2  A    between atoms: C_5  and  C_9
REMARK    3  A    between atoms: C_18  and  C_21
REMARK    4  A    between atoms: C_24  and  O_28
REMARK    5  A    between atoms: C_25  and  O_27
REMARK    6  A    between atoms: O_28  and  C_29
REMARK                            x       y       z     vdW  Elec       q    Type
REMARK                         _______ _______ _______ _____ _____    ______ ____
ROOT
ATOM      1  C   UNL     1      -3.939  -0.390   1.532  0.00  0.00    +0.061 C 
ATOM      2  N   UNL     1      -4.781  -0.814   0.718  0.00  0.00    -0.250 NA
ATOM      3  C   UNL     1      -5.068  -0.915  -0.580  0.00  0.00    +0.078 A 
ATOM      4  C   UNL     1      -6.367  -1.395  -0.864  0.00  0.00    +0.029 A 
ATOM      5  C   UNL     1      -6.822  -1.520  -2.152  0.00  0.00    +0.002 A 
ATOM      6  C   UNL     1      -5.999  -1.173  -3.210  0.00  0.00    +0.001 A 
ATOM      7  C   UNL     1      -4.728  -0.711  -2.958  0.00  0.00    +0.017 A 
ATOM      8  C   UNL     1      -4.240  -0.579  -1.653  0.00  0.00    +0.034 A 
ATOM      9  S   UNL     1      -2.601   0.006  -1.481  0.00  0.00    -0.115 S 
ATOM     10  C   UNL     1      -2.513   0.975   0.019  0.00  0.00    +0.087 C 
ATOM     11  C   UNL     1      -2.575   0.146   1.270  0.00  0.00    +0.075 C 
ENDROOT
BRANCH   1  16
ATOM     12  C   UNL     1      -5.495  -0.610   7.036  0.00  0.00    +0.086 C 
ATOM     13  C   UNL     1      -5.092  -0.537   5.585  0.00  0.00    +0.110 A 
ATOM     14  C   UNL     1      -5.372   0.578   4.881  0.00  0.00    +0.093 A 
ATOM     15  C   UNL     1      -4.998   0.667   3.526  0.00  0.00    +0.198 A 
ATOM     16  C   UNL     1      -4.346  -0.427   2.938  0.00  0.00    +0.127 A 
ATOM     17  C   UNL     1      -4.083  -1.567   3.740  0.00  0.00    +0.350 A 
ATOM     18  O   UNL     1      -3.514  -2.532   3.261  0.00  0.00    -0.244 OA
ATOM     19  O   UNL     1      -4.464  -1.581   5.028  0.00  0.00    -0.427 OA
ATOM     20  O   UNL     1      -5.267   1.780   2.807  0.00  0.00    -0.287 OA
ENDBRANCH   1  16
BRANCH  10  21
ATOM     21  C   UNL     1      -1.220   1.749   0.017  0.00  0.00    -0.030 A 
ATOM     22  C   UNL     1      -0.013   1.076   0.008  0.00  0.00    +0.008 A 
ATOM     23  C   UNL     1       1.176   1.782   0.000  0.00  0.00    +0.050 A 
ATOM     24  C   UNL     1       1.159   3.167   0.008  0.00  0.00    +0.161 A 
ATOM     25  C   UNL     1      -0.056   3.845   0.023  0.00  0.00    +0.159 A 
ATOM     26  C   UNL     1      -1.244   3.131   0.031  0.00  0.00    +0.054 A 
BRANCH  25  27
ATOM     27  O   UNL     1      -0.078   5.205   0.030  0.00  0.00    -0.503 OA
ATOM     28  H   UNL     1      -1.040   5.739   0.042  0.00  0.00    +0.292 HD
ENDBRANCH  25  27
BRANCH  24  29
ATOM     29  O   UNL     1       2.327   3.863   0.000  0.00  0.00    -0.491 OA
ATOM     30  C   UNL     1       3.536   3.101  -0.016  0.00  0.00    +0.277 C 
ENDBRANCH  24  29
ENDBRANCH  10  21
TORSDOF 4
