REMARK  Name = ZINC36979507
REMARK  6 active torsions:
REMARK  status: ('A' for Active; 'I' for Inactive)
REMARK    1  A    between atoms: C_1  and  C_2
REMARK    2  A    between atoms: C_2  and  C_3
REMARK    3  A    between atoms: C_2  and  C_4
REMARK    4  A    between atoms: C_2  and  C_5
REMARK    5  A    between atoms: C_8  and  C_11
REMARK    6  A    between atoms: C_17  and  C_19
REMARK                            x       y       z     vdW  Elec       q    Type
REMARK                         _______ _______ _______ _____ _____    ______ ____
ROOT
ATOM      1  C   UNL     1       0.718  -0.497  -1.257  0.00  0.00    -0.006 C 
ATOM      2  C   UNL     1      -0.022   0.009  -2.496  0.00  0.00    +0.005 C 
ATOM      3  C   UNL     1       0.694  -0.484  -3.755  0.00  0.00    +0.013 C 
ATOM      4  C   UNL     1       2.130   0.045  -3.766  0.00  0.00    +0.075 C 
ATOM      5  C   UNL     1       2.870  -0.461  -2.526  0.00  0.00    +0.013 C 
ATOM      6  C   UNL     1       2.154   0.032  -1.268  0.00  0.00    +0.005 C 
ENDROOT
BRANCH   4   7
ATOM      7  C   UNL     1       2.109   1.552  -3.758  0.00  0.00    +0.220 C 
ATOM      8  O   UNL     1       1.051   2.144  -3.744  0.00  0.00    -0.275 OA
ATOM      9  N   UNL     1       3.267   2.242  -3.765  0.00  0.00    -0.278 N 
ATOM     10  C   UNL     1       4.579   1.559  -3.787  0.00  0.00    +0.178 C 
ATOM     11  S   UNL     1       5.662   2.886  -4.478  0.00  0.00    -0.139 S 
ATOM     12  C   UNL     1       4.711   4.312  -3.785  0.00  0.00    +0.104 C 
ATOM     13  C   UNL     1       3.291   3.695  -3.757  0.00  0.00    +0.199 C 
BRANCH  13  14
ATOM     14  C   UNL     1       2.589   4.178  -2.515  0.00  0.00    +0.377 C 
ATOM     15  O   UNL     1       2.603   3.499  -1.503  0.00  0.00    -0.244 OA
ATOM     16  O   UNL     1       2.005   5.249  -2.522  0.00  0.00    -0.244 OA
ENDBRANCH  13  14
ENDBRANCH   4   7
BRANCH   1  18
ATOM     17  C   UNL     1      -0.019   1.526   0.010  0.00  0.00    +0.011 C 
ATOM     18  C   UNL     1       0.002  -0.004   0.002  0.00  0.00    -0.035 C 
ATOM     19  C   UNL     1       0.742  -0.511   1.242  0.00  0.00    +0.011 C 
ATOM     20  C   UNL     1      -1.433  -0.534   0.013  0.00  0.00    +0.011 C 
ENDBRANCH   1  18
TORSDOF 3
