REMARK  Name = ZINC39834280
REMARK  7 active torsions:
REMARK  status: ('A' for Active; 'I' for Inactive)
REMARK    1  A    between atoms: C_1  and  C_2
REMARK    2  A    between atoms: C_7  and  S_11
REMARK    3  A    between atoms: S_11  and  C_12
REMARK    4  A    between atoms: C_14  and  N_27
REMARK    5  A    between atoms: C_17  and  C_26
REMARK    6  A    between atoms: N_18  and  C_19
REMARK    7  A    between atoms: C_19  and  C_20
REMARK                            x       y       z     vdW  Elec       q    Type
REMARK                         _______ _______ _______ _____ _____    ______ ____
ROOT
ATOM      1  C   UNL     1       0.694   3.285  -7.468  0.00  0.00    +0.192 C 
ATOM      2  C   UNL     1       1.492   4.478  -6.904  0.00  0.00    +0.316 C 
ATOM      3  N   UNL     1       2.085   5.100  -8.096  0.00  0.00    -0.239 NA
ATOM      4  C   UNL     1       1.741   4.454  -9.149  0.00  0.00    +0.093 C 
ATOM      5  N   UNL     1       0.934   3.375  -8.918  0.00  0.00    -0.298 N 
ATOM      6  C   UNL     1       2.192   4.851 -10.531  0.00  0.00    +0.083 C 
ENDROOT
BRANCH   2   7
ATOM      7  N   UNL     1       0.599   5.417  -6.220  0.00  0.00    +0.050 N 
ATOM      8  O   UNL     1       0.579   5.462  -5.012  0.00  0.00    -0.129 OA
ATOM      9  O   UNL     1      -0.117   6.147  -6.864  0.00  0.00    -0.129 OA
ENDBRANCH   2   7
BRANCH   1  10
ATOM     10  S   UNL     1      -1.073   3.464  -7.098  0.00  0.00    -0.061 S 
BRANCH  10  17
ATOM     11  C   UNL     1      -0.013   1.086   0.008  0.00  0.00    +0.067 C 
ATOM     12  C   UNL     1      -0.742   1.585  -1.213  0.00  0.00    +0.055 A 
ATOM     13  C   UNL     1      -2.109   1.792  -1.148  0.00  0.00    +0.041 A 
ATOM     14  C   UNL     1      -2.783   2.252  -2.271  0.00  0.00    +0.046 A 
ATOM     15  C   UNL     1      -2.051   2.488  -3.424  0.00  0.00    +0.087 A 
ATOM     16  N   UNL     1      -2.370   2.935  -4.695  0.00  0.00    -0.332 N 
ATOM     17  C   UNL     1      -1.209   2.965  -5.414  0.00  0.00    +0.171 A 
ATOM     18  N   UNL     1      -0.209   2.566  -4.663  0.00  0.00    -0.202 NA
ATOM     19  C   UNL     1      -0.663   2.257  -3.422  0.00  0.00    +0.179 A 
ATOM     20  N   UNL     1      -0.064   1.820  -2.317  0.00  0.00    -0.230 NA
ATOM     21 BR   UNL     1      -3.051   1.450   0.455  0.00  0.00    -0.048 Br
ATOM     22  H   UNL     1      -3.252   3.181  -5.015  0.00  0.00    +0.168 HD
ENDBRANCH  10  17
ENDBRANCH   1  10
BRANCH   5  23
ATOM     23  C   UNL     1       0.398   2.466  -9.934  0.00  0.00    +0.142 C 
BRANCH  23  24
ATOM     24  C   UNL     1      -0.931   2.983 -10.421  0.00  0.00    -0.030 A 
ATOM     25  C   UNL     1      -2.097   2.598  -9.786  0.00  0.00    +0.005 A 
ATOM     26  C   UNL     1      -3.316   3.073 -10.232  0.00  0.00    +0.000 A 
ATOM     27  C   UNL     1      -3.369   3.933 -11.313  0.00  0.00    +0.000 A 
ATOM     28  C   UNL     1      -2.203   4.319 -11.947  0.00  0.00    +0.000 A 
ATOM     29  C   UNL     1      -0.984   3.848 -11.498  0.00  0.00    +0.005 A 
ENDBRANCH  23  24
ENDBRANCH   5  23
TORSDOF 5
