REMARK  Name = ZINC14877830
REMARK  4 active torsions:
REMARK  status: ('A' for Active; 'I' for Inactive)
REMARK    1  A    between atoms: C_1  and  C_2
REMARK    2  A    between atoms: C_3  and  C_16
REMARK    3  A    between atoms: C_4  and  C_10
REMARK    4  A    between atoms: N_18  and  C_19
REMARK                            x       y       z     vdW  Elec       q    Type
REMARK                         _______ _______ _______ _____ _____    ______ ____
ROOT
ATOM      1  C   UNL     1      -1.437   1.368   1.045  0.00  0.00    +0.061 C 
ATOM      2  C   UNL     1      -0.439   2.104   0.187  0.00  0.00    +0.017 C 
ATOM      3  C   UNL     1      -0.864   3.099  -0.620  0.00  0.00    +0.056 C 
ATOM      4  C   UNL     1       0.172   3.809  -1.469  0.00  0.00    +0.146 C 
ATOM      5  N   UNL     1       1.566   3.354  -1.339  0.00  0.00    -0.315 N 
ATOM      6  C   UNL     1       1.836   2.348  -0.484  0.00  0.00    +0.135 C 
ATOM      7  S   UNL     1       3.453   1.809  -0.322  0.00  0.00    -0.019 S 
ATOM      8  N   UNL     1       0.880   1.756   0.244  0.00  0.00    -0.300 N 
ATOM      9  H   UNL     1       2.274   3.769  -1.856  0.00  0.00    +0.149 HD
ATOM     10  H   UNL     1       1.139   1.037   0.841  0.00  0.00    +0.154 HD
ENDROOT
BRANCH   4  11
ATOM     11  C   UNL     1      -0.233   3.660  -2.913  0.00  0.00    +0.016 A 
ATOM     12  C   UNL     1      -0.849   4.556  -3.723  0.00  0.00    +0.028 A 
ATOM     13  C   UNL     1      -1.123   4.199  -5.030  0.00  0.00    +0.025 A 
ATOM     14  C   UNL     1      -0.775   2.962  -5.461  0.00  0.00    +0.060 A 
ATOM     15  S   UNL     1      -0.031   2.258  -3.999  0.00  0.00    -0.098 S 
ATOM     16 BR   UNL     1      -1.975   5.418  -6.199  0.00  0.00    -0.050 Br
ENDBRANCH   4  11
BRANCH   3  17
ATOM     17  C   UNL     1      -2.231   3.465  -0.675  0.00  0.00    +0.248 C 
ATOM     18  O   UNL     1      -2.645   4.378   0.016  0.00  0.00    -0.270 OA
ATOM     19  N   UNL     1      -3.073   2.801  -1.491  0.00  0.00    -0.282 N 
ATOM     20  H   UNL     1      -2.768   2.013  -1.966  0.00  0.00    +0.155 HD
BRANCH  19  21
ATOM     21  C   UNL     1      -4.388   3.250  -1.654  0.00  0.00    +0.034 A 
ATOM     22  C   UNL     1      -5.085   3.771  -0.571  0.00  0.00    +0.024 A 
ATOM     23  C   UNL     1      -6.381   4.217  -0.735  0.00  0.00    +0.017 A 
ATOM     24  C   UNL     1      -6.989   4.138  -1.976  0.00  0.00    +0.018 A 
ATOM     25  C   UNL     1      -6.300   3.615  -3.055  0.00  0.00    +0.017 A 
ATOM     26  C   UNL     1      -5.001   3.171  -2.897  0.00  0.00    +0.024 A 
ATOM     27 BR   UNL     1      -8.768   4.743  -2.195  0.00  0.00    -0.050 Br
ENDBRANCH  19  21
ENDBRANCH   3  17
TORSDOF 3
