REMARK  Name = ZINC41285990
REMARK  8 active torsions:
REMARK  status: ('A' for Active; 'I' for Inactive)
REMARK    1  A    between atoms: C_1  and  C_2
REMARK    2  A    between atoms: C_2  and  O_3
REMARK    3  A    between atoms: O_3  and  C_4
REMARK    4  A    between atoms: C_9  and  C_10
REMARK    5  A    between atoms: C_12  and  O_13
REMARK    6  A    between atoms: C_22  and  C_24
REMARK    7  A    between atoms: C_29  and  O_30
REMARK    8  A    between atoms: O_30  and  C_31
REMARK                            x       y       z     vdW  Elec       q    Type
REMARK                         _______ _______ _______ _____ _____    ______ ____
ROOT
ATOM      1  C   UNL     1      -4.043  -1.988   0.698  0.00  0.00    +0.143 A 
ATOM      2  C   UNL     1      -3.813  -0.663   1.019  0.00  0.00    +0.093 A 
ATOM      3  C   UNL     1      -4.875   0.240   1.034  0.00  0.00    +0.131 A 
ATOM      4  C   UNL     1      -6.171  -0.239   0.716  0.00  0.00    +0.059 A 
ATOM      5  C   UNL     1      -7.276   0.627   0.715  0.00  0.00    +0.017 A 
ATOM      6  C   UNL     1      -8.512   0.151   0.407  0.00  0.00    +0.024 A 
ATOM      7  C   UNL     1      -8.690  -1.207   0.087  0.00  0.00    +0.037 A 
ATOM      8  C   UNL     1      -7.599  -2.079   0.084  0.00  0.00    +0.070 A 
ATOM      9  C   UNL     1      -6.339  -1.603   0.397  0.00  0.00    +0.141 A 
ATOM     10  O   UNL     1      -5.273  -2.431   0.393  0.00  0.00    -0.454 OA
ATOM     11  N   UNL     1      -9.930  -1.672  -0.219  0.00  0.00    -0.281 N 
ATOM     12  C   UNL     1     -10.069  -2.859  -0.796  0.00  0.00    +0.252 C 
ATOM     13  O   UNL     1      -9.083  -3.478  -1.165  0.00  0.00    -0.270 OA
ATOM     14  H   UNL     1     -10.713  -1.137  -0.015  0.00  0.00    +0.155 HD
ENDROOT
BRANCH   1  20
ATOM     15  C   UNL     1      -3.143  -4.303   0.496  0.00  0.00    +0.131 A 
ATOM     16  C   UNL     1      -2.071  -5.183   0.480  0.00  0.00    +0.046 A 
ATOM     17  C   UNL     1      -0.785  -4.710   0.656  0.00  0.00    +0.004 A 
ATOM     18  C   UNL     1      -0.554  -3.357   0.849  0.00  0.00    +0.001 A 
ATOM     19  C   UNL     1      -1.607  -2.469   0.868  0.00  0.00    +0.015 A 
ATOM     20  C   UNL     1      -2.914  -2.932   0.685  0.00  0.00    +0.059 A 
BRANCH  15  21
ATOM     21  O   UNL     1      -4.406  -4.766   0.323  0.00  0.00    -0.492 OA
BRANCH  21  23
ATOM     22  C   UNL     1      -6.045  -6.505  -0.042  0.00  0.00    +0.048 C 
ATOM     23  C   UNL     1      -4.561  -6.174   0.135  0.00  0.00    +0.226 C 
ENDBRANCH  21  23
ENDBRANCH  15  21
ENDBRANCH   1  20
BRANCH  12  24
ATOM     24  C   UNL     1     -11.419  -3.432  -0.994  0.00  0.00    +0.079 A 
ATOM     25  C   UNL     1     -12.548  -2.725  -0.580  0.00  0.00    +0.017 A 
ATOM     26  C   UNL     1     -13.803  -3.264  -0.766  0.00  0.00    +0.001 A 
ATOM     27  C   UNL     1     -13.949  -4.505  -1.363  0.00  0.00    +0.004 A 
ATOM     28  C   UNL     1     -12.839  -5.215  -1.778  0.00  0.00    +0.046 A 
ATOM     29  C   UNL     1     -11.570  -4.683  -1.603  0.00  0.00    +0.132 A 
BRANCH  29  30
ATOM     30  O   UNL     1     -10.478  -5.377  -2.015  0.00  0.00    -0.494 OA
ATOM     31  C   UNL     1     -10.709  -6.647  -2.628  0.00  0.00    +0.277 C 
ENDBRANCH  29  30
ENDBRANCH  12  24
BRANCH   3  32
ATOM     32  O   UNL     1      -4.674   1.539   1.344  0.00  0.00    -0.506 OA
ATOM     33  H   UNL     1      -3.753   1.758   1.544  0.00  0.00    +0.292 HD
ENDBRANCH   3  32
TORSDOF 6
