REMARK  Name = ZINC57054092
REMARK  10 active torsions:
REMARK  status: ('A' for Active; 'I' for Inactive)
REMARK    1  A    between atoms: C_1  and  C_2
REMARK    2  A    between atoms: C_8  and  N_16
REMARK    3  A    between atoms: C_9  and  C_12
REMARK    4  A    between atoms: C_12  and  O_14
REMARK    5  A    between atoms: O_14  and  C_15
REMARK    6  A    between atoms: C_17  and  C_19
REMARK    7  A    between atoms: C_19  and  C_21
REMARK    8  A    between atoms: C_19  and  N_22
REMARK    9  A    between atoms: N_25  and  C_28
REMARK   10  A    between atoms: C_33  and  C_34
REMARK                            x       y       z     vdW  Elec       q    Type
REMARK                         _______ _______ _______ _____ _____    ______ ____
ROOT
ATOM      1  N   UNL     1       0.121  -2.895   3.618  0.00  0.00    -0.282 N 
ATOM      2  C   UNL     1      -0.240  -3.866   4.480  0.00  0.00    +0.234 C 
ATOM      3  O   UNL     1      -0.405  -5.000   4.081  0.00  0.00    -0.274 OA
ATOM      4  H   UNL     1       0.328  -2.006   3.948  0.00  0.00    +0.155 HD
ENDROOT
BRANCH   1  12
ATOM      5  C   UNL     1       2.143  -7.874   1.838  0.00  0.00    +0.044 C 
ATOM      6  C   UNL     1       1.591  -6.584   1.288  0.00  0.00    -0.050 A 
ATOM      7  C   UNL     1       1.480  -6.413  -0.086  0.00  0.00    +0.005 A 
ATOM      8  C   UNL     1       0.979  -5.243  -0.610  0.00  0.00    +0.026 A 
ATOM      9  C   UNL     1       0.576  -4.218   0.243  0.00  0.00    +0.049 A 
ATOM     10  C   UNL     1       0.690  -4.397   1.634  0.00  0.00    +0.022 A 
ATOM     11  C   UNL     1       1.197  -5.596   2.143  0.00  0.00    +0.015 A 
ATOM     12  C   UNL     1       0.196  -3.166   2.256  0.00  0.00    +0.073 A 
ATOM     13  C   UNL     1      -0.182  -2.328   1.227  0.00  0.00    +0.147 A 
ATOM     14  N   UNL     1       0.050  -2.967   0.018  0.00  0.00    -0.348 N 
ATOM     15  H   UNL     1      -0.131  -2.588  -0.857  0.00  0.00    +0.166 HD
BRANCH  13  16
ATOM     16  C   UNL     1      -0.720  -1.025   1.380  0.00  0.00    +0.357 C 
ATOM     17  O   UNL     1      -0.797  -0.525   2.487  0.00  0.00    -0.243 OA
BRANCH  16  18
ATOM     18  O   UNL     1      -1.147  -0.340   0.299  0.00  0.00    -0.463 OA
ATOM     19  C   UNL     1      -1.678   0.968   0.527  0.00  0.00    +0.280 C 
ENDBRANCH  16  18
ENDBRANCH  13  16
ENDBRANCH   1  12
BRANCH   2  20
ATOM     20  C   UNL     1      -0.437  -3.545   5.939  0.00  0.00    +0.140 C 
ATOM     21  C   UNL     1       0.907  -3.167   6.564  0.00  0.00    +0.034 C 
BRANCH  20  22
ATOM     22  N   UNL     1      -0.986  -4.719   6.629  0.00  0.00    -0.289 NA
ATOM     23  C   UNL     1      -1.528  -4.351   7.944  0.00  0.00    +0.104 C 
ATOM     24  C   UNL     1      -2.250  -5.559   8.552  0.00  0.00    +0.120 C 
ATOM     25  N   UNL     1      -1.323  -6.701   8.559  0.00  0.00    -0.327 N 
ATOM     26  C   UNL     1      -0.635  -7.046   7.306  0.00  0.00    +0.120 C 
ATOM     27  C   UNL     1       0.023  -5.780   6.747  0.00  0.00    +0.104 C 
BRANCH  25  28
ATOM     28  C   UNL     1      -1.103  -7.439   9.724  0.00  0.00    +0.034 A 
ATOM     29  C   UNL     1      -1.894  -8.545  10.008  0.00  0.00    +0.043 A 
ATOM     30  C   UNL     1      -1.674  -9.272  11.162  0.00  0.00    +0.043 A 
ATOM     31  C   UNL     1      -0.666  -8.899  12.034  0.00  0.00    +0.020 A 
ATOM     32  C   UNL     1       0.123  -7.799  11.754  0.00  0.00    +0.006 A 
ATOM     33  C   UNL     1      -0.089  -7.071  10.599  0.00  0.00    -0.029 A 
ATOM     34  C   UNL     1       0.776  -5.876  10.291  0.00  0.00    +0.045 C 
ATOM     35 CL   UNL     1      -2.662 -10.654  11.518  0.00  0.00    -0.083 Cl
ENDBRANCH  25  28
ENDBRANCH  20  22
ENDBRANCH   2  20
TORSDOF 6
