REMARK  Name = ZINC46705772
REMARK  11 active torsions:
REMARK  status: ('A' for Active; 'I' for Inactive)
REMARK    1  A    between atoms: C_1  and  C_2
REMARK    2  A    between atoms: C_6  and  N_9
REMARK    3  A    between atoms: C_7  and  C_8
REMARK    4  A    between atoms: C_11  and  C_16
REMARK    5  A    between atoms: N_18  and  C_19
REMARK    6  A    between atoms: C_19  and  C_20
REMARK    7  A    between atoms: C_20  and  C_21
REMARK    8  A    between atoms: C_21  and  C_22
REMARK    9  A    between atoms: C_23  and  C_34
REMARK   10  A    between atoms: C_24  and  N_33
REMARK   11  A    between atoms: N_25  and  C_27
REMARK                            x       y       z     vdW  Elec       q    Type
REMARK                         _______ _______ _______ _____ _____    ______ ____
ROOT
ATOM      1  C   UNL     1      -1.893  -5.026   7.658  0.00  0.00    +0.104 C 
ENDROOT
BRANCH   1   4
ATOM      2  C   UNL     1      -1.429  -4.240   5.399  0.00  0.00    +0.218 C 
ATOM      3  O   UNL     1      -2.292  -3.401   5.545  0.00  0.00    -0.275 OA
ATOM      4  N   UNL     1      -1.152  -5.102   6.397  0.00  0.00    -0.315 N 
ATOM      5  H   UNL     1      -0.461  -5.773   6.280  0.00  0.00    +0.149 HD
BRANCH   2   8
ATOM      6  N   UNL     1       0.052  -2.797   2.393  0.00  0.00    -0.270 N 
ATOM      7  C   UNL     1      -1.150  -3.238   3.109  0.00  0.00    +0.127 C 
ATOM      8  C   UNL     1      -0.666  -4.318   4.102  0.00  0.00    +0.101 C 
ATOM      9  C   UNL     1       0.814  -3.919   4.304  0.00  0.00    +0.110 C 
ATOM     10  C   UNL     1       1.170  -3.167   3.041  0.00  0.00    +0.221 C 
ATOM     11  O   UNL     1       2.300  -2.929   2.669  0.00  0.00    -0.275 OA
BRANCH   6  17
ATOM     12  C   UNL     1      -0.018   1.503   0.010  0.00  0.00    +0.044 C 
ATOM     13  C   UNL     1       0.002  -0.004   0.002  0.00  0.00    -0.046 A 
ATOM     14  C   UNL     1       0.006  -0.688  -1.200  0.00  0.00    +0.004 A 
ATOM     15  C   UNL     1       0.025  -2.071  -1.212  0.00  0.00    +0.002 A 
ATOM     16  C   UNL     1       0.041  -2.773  -0.022  0.00  0.00    +0.024 A 
ATOM     17  C   UNL     1       0.037  -2.089   1.186  0.00  0.00    +0.039 A 
ATOM     18  C   UNL     1       0.023  -0.700   1.194  0.00  0.00    -0.026 A 
ATOM     19  C   UNL     1       0.025   0.046   2.504  0.00  0.00    +0.046 C 
ENDBRANCH   6  17
ENDBRANCH   2   8
ENDBRANCH   1   4
BRANCH   1  20
ATOM     20  C   UNL     1      -1.387  -6.108   8.614  0.00  0.00    +0.025 C 
BRANCH  20  21
ATOM     21  C   UNL     1      -2.162  -6.029   9.931  0.00  0.00    +0.060 C 
BRANCH  21  22
ATOM     22  C   UNL     1      -1.663  -7.095  10.872  0.00  0.00    +0.083 A 
ATOM     23  C   UNL     1      -2.165  -8.413  10.971  0.00  0.00    +0.114 A 
ATOM     24  C   UNL     1      -1.424  -9.058  11.958  0.00  0.00    +0.138 A 
ATOM     25  N   UNL     1      -0.522  -8.165  12.425  0.00  0.00    -0.217 N 
ATOM     26  N   UNL     1      -0.691  -6.962  11.731  0.00  0.00    -0.168 NA
BRANCH  25  27
ATOM     27  C   UNL     1       0.424  -8.405  13.430  0.00  0.00    +0.067 A 
ATOM     28  C   UNL     1       0.113  -9.244  14.492  0.00  0.00    +0.028 A 
ATOM     29  C   UNL     1       1.048  -9.479  15.481  0.00  0.00    +0.002 A 
ATOM     30  C   UNL     1       2.293  -8.880  15.415  0.00  0.00    +0.000 A 
ATOM     31  C   UNL     1       2.605  -8.044  14.358  0.00  0.00    +0.002 A 
ATOM     32  C   UNL     1       1.676  -7.810  13.363  0.00  0.00    +0.028 A 
ENDBRANCH  25  27
BRANCH  24  33
ATOM     33  N   UNL     1      -1.581 -10.364  12.381  0.00  0.00    -0.342 N 
ATOM     34  H   UNL     1      -2.262 -10.926  11.979  0.00  0.00    +0.144 HD
ATOM     35  H   UNL     1      -1.010 -10.719  13.080  0.00  0.00    +0.144 HD
ENDBRANCH  24  33
BRANCH  23  36
ATOM     36  C   UNL     1      -3.233  -8.978  10.203  0.00  0.00    +0.104 C 
ATOM     37  N   UNL     1      -4.080  -9.426   9.593  0.00  0.00    -0.191 NA
ENDBRANCH  23  36
ENDBRANCH  21  22
ENDBRANCH  20  21
ENDBRANCH   1  20
TORSDOF 9
