REMARK  Name = ZINC39710421
REMARK  12 active torsions:
REMARK  status: ('A' for Active; 'I' for Inactive)
REMARK    1  A    between atoms: C_1  and  C_2
REMARK    2  A    between atoms: C_2  and  C_3
REMARK    3  A    between atoms: C_3  and  N_4
REMARK    4  A    between atoms: N_7  and  C_10
REMARK    5  A    between atoms: C_10  and  C_12
REMARK    6  A    between atoms: C_10  and  C_26
REMARK    7  A    between atoms: C_17  and  C_24
REMARK    8  A    between atoms: C_24  and  C_25
REMARK    9  A    between atoms: N_31  and  C_32
REMARK   10  A    between atoms: C_32  and  C_33
REMARK   11  A    between atoms: C_32  and  C_34
REMARK   12  A    between atoms: C_32  and  C_35
REMARK                            x       y       z     vdW  Elec       q    Type
REMARK                         _______ _______ _______ _____ _____    ______ ____
ROOT
ATOM      1  C   UNL     1       2.648  -5.778   1.359  0.00  0.00    +0.115 C 
ENDROOT
BRANCH   1   2
ATOM      2  C   UNL     1       1.214  -5.724   1.888  0.00  0.00    +0.119 C 
ATOM      3  C   UNL     1       0.291  -5.485   0.709  0.00  0.00    -0.003 C 
ATOM      4  C   UNL     1      -0.507  -4.381   0.753  0.00  0.00    -0.007 A 
ATOM      5  C   UNL     1      -1.427  -4.075  -0.343  0.00  0.00    +0.013 A 
ATOM      6  C   UNL     1      -2.203  -2.964  -0.255  0.00  0.00    -0.047 A 
ATOM      7  C   UNL     1      -2.139  -2.118   0.853  0.00  0.00    +0.005 A 
ATOM      8  C   UNL     1      -1.306  -2.347   1.902  0.00  0.00    +0.024 A 
ATOM      9  C   UNL     1      -0.460  -3.471   1.911  0.00  0.00    +0.040 A 
ATOM     10  N   UNL     1       0.352  -3.685   2.946  0.00  0.00    -0.284 N 
ATOM     11  C   UNL     1       1.173  -4.719   3.017  0.00  0.00    +0.226 C 
ATOM     12  O   UNL     1       1.891  -4.862   3.988  0.00  0.00    -0.275 OA
ATOM     13  H   UNL     1       0.341  -3.053   3.681  0.00  0.00    +0.155 HD
BRANCH   6  14
ATOM     14  C   UNL     1      -3.154  -2.638  -1.378  0.00  0.00    +0.032 C 
ATOM     15  C   UNL     1      -4.507  -3.299  -1.108  0.00  0.00    +0.009 C 
ENDBRANCH   6  14
ENDBRANCH   1   2
BRANCH   1  19
ATOM     16  N   UNL     1       2.917  -1.574   1.010  0.00  0.00    +0.381 N 
ATOM     17  C   UNL     1       2.545  -2.343  -0.184  0.00  0.00    -0.063 C 
ATOM     18  C   UNL     1       2.032  -3.722   0.236  0.00  0.00    +0.066 C 
ATOM     19  N   UNL     1       3.083  -4.425   0.985  0.00  0.00    -0.299 NA
ATOM     20  C   UNL     1       3.484  -3.655   2.171  0.00  0.00    +0.066 C 
ATOM     21  C   UNL     1       3.985  -2.276   1.734  0.00  0.00    -0.063 C 
ATOM     22  H   UNL     1       2.112  -1.475   1.611  0.00  0.00    -0.082 HD
BRANCH  16  23
ATOM     23  C   UNL     1       3.393  -0.244   0.607  0.00  0.00    -0.079 C 
BRANCH  23  25
ATOM     24  C   UNL     1       2.739   1.921  -0.457  0.00  0.00    +0.002 C 
ATOM     25  C   UNL     1       2.244   0.535  -0.037  0.00  0.00    -0.022 C 
ENDBRANCH  23  25
ENDBRANCH  16  23
ENDBRANCH   1  19
BRANCH   1  26
ATOM     26  C   UNL     1       3.573  -6.329   2.446  0.00  0.00    +0.236 C 
ATOM     27  N   UNL     1       4.980  -6.157   2.058  0.00  0.00    -0.148 NA
ATOM     28  N   UNL     1       5.510  -7.268   1.981  0.00  0.00    -0.069 NA
ATOM     29  N   UNL     1       4.632  -8.310   2.278  0.00  0.00    -0.179 N 
ATOM     30  N   UNL     1       3.398  -7.790   2.580  0.00  0.00    -0.179 NA
ATOM     31  H   UNL     1       4.858  -9.253   2.272  0.00  0.00    +0.191 HD
BRANCH  30  32
ATOM     32  C   UNL     1       2.994  -8.149   3.946  0.00  0.00    +0.035 C 
ATOM     33  C   UNL     1       1.498  -7.880   4.123  0.00  0.00    +0.029 C 
ATOM     34  C   UNL     1       3.278  -9.632   4.190  0.00  0.00    +0.029 C 
ATOM     35  C   UNL     1       3.785  -7.306   4.950  0.00  0.00    +0.029 C 
ENDBRANCH  30  32
ENDBRANCH   1  26
TORSDOF 7
