REMARK  Name = ZINC63272896
REMARK  9 active torsions:
REMARK  status: ('A' for Active; 'I' for Inactive)
REMARK    1  A    between atoms: C_1  and  C_2
REMARK    2  A    between atoms: C_4  and  C_34
REMARK    3  A    between atoms: N_6  and  C_30
REMARK    4  A    between atoms: C_7  and  N_20
REMARK    5  A    between atoms: C_9  and  C_11
REMARK    6  A    between atoms: C_21  and  C_23
REMARK    7  A    between atoms: C_30  and  C_31
REMARK    8  A    between atoms: C_31  and  O_32
REMARK    9  A    between atoms: O_32  and  C_33
REMARK                            x       y       z     vdW  Elec       q    Type
REMARK                         _______ _______ _______ _____ _____    ______ ____
ROOT
ATOM      1  C   UNL     1       0.026   1.526   0.086  0.00  0.00    +0.009 C 
ATOM      2  C   UNL     1       0.028  -0.000  -0.027  0.00  0.00    +0.013 C 
ATOM      3  C   UNL     1      -1.346  -0.570   0.389  0.00  0.00    +0.059 C 
ATOM      4  N   UNL     1      -1.026  -1.829   1.109  0.00  0.00    -0.279 NA
ATOM      5  C   UNL     1       0.183  -1.497   1.906  0.00  0.00    +0.151 C 
ATOM      6  C   UNL     1       1.035  -0.610   0.969  0.00  0.00    +0.071 C 
ATOM      7  C   UNL     1      -2.199  -0.861  -0.848  0.00  0.00    +0.024 C 
ENDROOT
BRANCH   6   8
ATOM      8  C   UNL     1       1.728   0.495   1.769  0.00  0.00    +0.180 C 
ATOM      9  N   UNL     1       2.670   1.224   0.909  0.00  0.00    -0.363 N 
ATOM     10  C   UNL     1       3.857   1.081   1.424  0.00  0.00    +0.060 A 
ATOM     11  C   UNL     1       5.184   1.570   1.024  0.00  0.00    +0.027 A 
ATOM     12  C   UNL     1       6.262   1.255   1.771  0.00  0.00    +0.002 A 
ATOM     13  C   UNL     1       6.175   0.469   2.933  0.00  0.00    +0.002 A 
ATOM     14  C   UNL     1       5.008  -0.030   3.388  0.00  0.00    +0.027 A 
ATOM     15  C   UNL     1       3.765   0.249   2.655  0.00  0.00    +0.060 A 
ATOM     16  N   UNL     1       2.525  -0.091   2.854  0.00  0.00    -0.363 N 
ATOM     17  H   UNL     1       2.449   1.719   0.106  0.00  0.00    +0.162 HD
ATOM     18  H   UNL     1       2.188  -0.632   3.585  0.00  0.00    +0.162 HD
ENDBRANCH   6   8
BRANCH   5  19
ATOM     19  N   UNL     1      -0.189  -0.759   3.115  0.00  0.00    -0.295 N 
ATOM     20  C   UNL     1      -0.144  -1.368   4.317  0.00  0.00    +0.245 C 
ATOM     21  O   UNL     1       0.205  -2.530   4.397  0.00  0.00    -0.270 OA
ATOM     22  H   UNL     1      -0.468   0.168   3.052  0.00  0.00    +0.151 HD
BRANCH  20  23
ATOM     23  C   UNL     1      -0.520  -0.624   5.537  0.00  0.00    +0.037 A 
ATOM     24  C   UNL     1      -0.927   0.709   5.447  0.00  0.00    +0.016 A 
ATOM     25  C   UNL     1      -1.276   1.398   6.588  0.00  0.00    +0.039 A 
ATOM     26  C   UNL     1      -1.223   0.771   7.824  0.00  0.00    +0.123 A 
ATOM     27  C   UNL     1      -0.820  -0.552   7.918  0.00  0.00    +0.039 A 
ATOM     28  C   UNL     1      -0.474  -1.253   6.783  0.00  0.00    +0.016 A 
ATOM     29  F   UNL     1      -1.565   1.452   8.939  0.00  0.00    -0.205 F 
ENDBRANCH  20  23
ENDBRANCH   5  19
BRANCH   4  30
ATOM     30  C   UNL     1      -2.137  -2.233   1.981  0.00  0.00    +0.114 C 
BRANCH  30  31
ATOM     31  C   UNL     1      -3.229  -2.898   1.141  0.00  0.00    +0.175 C 
BRANCH  31  32
ATOM     32  O   UNL     1      -2.704  -4.076   0.524  0.00  0.00    -0.382 OA
ATOM     33  C   UNL     1      -3.649  -4.776  -0.288  0.00  0.00    +0.194 C 
ENDBRANCH  31  32
ENDBRANCH  30  31
ENDBRANCH   4  30
TORSDOF 6
