REMARK  Name = ZINC04039690
REMARK  6 active torsions:
REMARK  status: ('A' for Active; 'I' for Inactive)
REMARK    1  A    between atoms: C_1  and  C_2
REMARK    2  A    between atoms: C_15  and  O_33
REMARK    3  A    between atoms: C_18  and  C_31
REMARK    4  A    between atoms: C_23  and  C_25
REMARK    5  A    between atoms: C_25  and  C_30
REMARK    6  A    between atoms: C_31  and  O_32
REMARK                            x       y       z     vdW  Elec       q    Type
REMARK                         _______ _______ _______ _____ _____    ______ ____
ROOT
ATOM      1  C   UNL     1      -0.720   2.488   0.968  0.00  0.00    +0.012 C 
ATOM      2  C   UNL     1       0.083   2.067  -0.260  0.00  0.00    -0.023 C 
ATOM      3  C   UNL     1      -0.529   2.759  -1.493  0.00  0.00    +0.012 C 
ATOM      4  C   UNL     1      -2.007   2.409  -1.617  0.00  0.00    +0.065 C 
ATOM      5  C   UNL     1      -2.231   0.903  -1.691  0.00  0.00    +0.170 C 
ATOM      6  C   UNL     1      -1.516   0.157  -0.569  0.00  0.00    +0.069 C 
ATOM      7  C   UNL     1      -0.050   0.563  -0.494  0.00  0.00    +0.000 C 
ATOM      8  C   UNL     1       0.663  -0.210   0.613  0.00  0.00    +0.004 C 
ATOM      9  C   UNL     1       2.155   0.109   0.530  0.00  0.00    +0.004 C 
ATOM     10  C   UNL     1       2.400   1.598   0.755  0.00  0.00    -0.001 C 
ATOM     11  C   UNL     1       1.545   2.478  -0.145  0.00  0.00    +0.027 C 
ATOM     12  C   UNL     1       1.680   3.963   0.157  0.00  0.00    +0.119 C 
ATOM     13  C   UNL     1       1.750   4.352   1.629  0.00  0.00    +0.041 C 
ATOM     14  C   UNL     1       2.655   3.439   2.415  0.00  0.00    +0.007 C 
ATOM     15  C   UNL     1       2.211   1.973   2.199  0.00  0.00    +0.001 C 
ATOM     16  C   UNL     1       3.074   1.233   3.233  0.00  0.00    +0.005 C 
ATOM     17  C   UNL     1       2.990   2.168   4.472  0.00  0.00    +0.010 C 
ATOM     18  C   UNL     1       2.556   3.559   3.944  0.00  0.00    +0.057 C 
ATOM     19  O   UNL     1      -3.648   0.645  -1.580  0.00  0.00    -0.346 OA
ATOM     20  C   UNL     1      -4.126   0.722  -2.945  0.00  0.00    +0.191 C 
ATOM     21  C   UNL     1      -2.967   0.046  -3.720  0.00  0.00    +0.191 C 
ATOM     22  O   UNL     1      -1.795   0.409  -2.964  0.00  0.00    -0.346 OA
ENDROOT
BRANCH  18  23
ATOM     23  C   UNL     1       3.510   4.644   4.448  0.00  0.00    +0.171 C 
ATOM     24  O   UNL     1       4.859   4.307   4.084  0.00  0.00    -0.346 OA
ATOM     25  C   UNL     1       5.669   4.765   5.191  0.00  0.00    +0.191 C 
ATOM     26  C   UNL     1       4.745   4.465   6.398  0.00  0.00    +0.191 C 
ATOM     27  O   UNL     1       3.428   4.732   5.876  0.00  0.00    -0.346 OA
ATOM     28  C   UNL     1       3.131   5.990   3.827  0.00  0.00    +0.074 C 
ENDBRANCH  18  23
BRANCH  12  29
ATOM     29  O   UNL     1       2.830   4.473  -0.535  0.00  0.00    -0.391 OA
ATOM     30  H   UNL     1       2.987   5.417  -0.394  0.00  0.00    +0.210 HD
ENDBRANCH  12  29
BRANCH  14  31
ATOM     31  C   UNL     1       4.116   3.657   2.022  0.00  0.00    +0.163 C 
BRANCH  31  32
ATOM     32  O   UNL     1       4.423   5.051   2.086  0.00  0.00    -0.394 OA
ATOM     33  H   UNL     1       5.311   5.273   1.773  0.00  0.00    +0.209 HD
ENDBRANCH  31  32
ENDBRANCH  14  31
TORSDOF 4
