REMARK  Name = ZINC63541309
REMARK  9 active torsions:
REMARK  status: ('A' for Active; 'I' for Inactive)
REMARK    1  A    between atoms: C_1  and  C_2
REMARK    2  A    between atoms: C_2  and  C_3
REMARK    3  A    between atoms: C_3  and  C_5
REMARK    4  A    between atoms: C_3  and  S_14
REMARK    5  A    between atoms: N_7  and  C_8
REMARK    6  A    between atoms: S_14  and  C_15
REMARK    7  A    between atoms: N_26  and  C_27
REMARK    8  A    between atoms: C_27  and  C_28
REMARK    9  A    between atoms: C_28  and  C_29
REMARK                            x       y       z     vdW  Elec       q    Type
REMARK                         _______ _______ _______ _____ _____    ______ ____
ROOT
ATOM      1  C   UNL     1       1.396   1.986  -1.919  0.00  0.00    +0.224 C 
ATOM      2  N   UNL     1       0.445   1.831  -3.024  0.00  0.00    -0.300 N 
ATOM      3  C   UNL     1      -0.797   1.275  -2.765  0.00  0.00    +0.151 A 
ATOM      4  C   UNL     1      -1.353   1.454  -1.485  0.00  0.00    +0.165 A 
ATOM      5  N   UNL     1      -2.551   0.958  -1.210  0.00  0.00    -0.246 NA
ATOM      6  C   UNL     1      -3.207   0.286  -2.137  0.00  0.00    +0.131 A 
ATOM      7  C   UNL     1      -2.652   0.097  -3.394  0.00  0.00    +0.132 A 
ATOM      8  N   UNL     1      -1.461   0.593  -3.684  0.00  0.00    -0.237 NA
ATOM      9  C   UNL     1      -0.568   2.187  -0.470  0.00  0.00    +0.270 C 
ATOM     10  O   UNL     1      -1.074   2.500   0.590  0.00  0.00    -0.268 OA
ATOM     11  N   UNL     1       0.713   2.502  -0.732  0.00  0.00    -0.268 N 
ATOM     12  H   UNL     1       0.681   2.113  -3.921  0.00  0.00    +0.150 HD
ENDROOT
BRANCH   1  13
ATOM     13  S   UNL     1       2.136   0.375  -1.532  0.00  0.00    -0.106 S 
BRANCH  13  14
ATOM     14  C   UNL     1       0.837  -0.817  -1.955  0.00  0.00    +0.135 C 
BRANCH  14  15
ATOM     15  C   UNL     1      -0.343  -0.621  -1.038  0.00  0.00    +0.226 C 
ATOM     16  O   UNL     1      -0.350   0.299  -0.247  0.00  0.00    -0.275 OA
ATOM     17  N   UNL     1      -1.389  -1.469  -1.095  0.00  0.00    -0.312 N 
ATOM     18  H   UNL     1      -1.383  -2.205  -1.726  0.00  0.00    +0.149 HD
BRANCH  17  19
ATOM     19  C   UNL     1      -2.535  -1.278  -0.203  0.00  0.00    +0.073 C 
ATOM     20  C   UNL     1      -2.253  -1.951   1.142  0.00  0.00    +0.022 C 
ATOM     21  C   UNL     1      -3.450  -1.752   2.074  0.00  0.00    +0.002 C 
ATOM     22  C   UNL     1      -4.696  -2.377   1.443  0.00  0.00    +0.000 C 
ATOM     23  C   UNL     1      -4.979  -1.704   0.099  0.00  0.00    +0.002 C 
ATOM     24  C   UNL     1      -3.782  -1.903  -0.833  0.00  0.00    +0.022 C 
ENDBRANCH  17  19
ENDBRANCH  14  15
BRANCH  14  26
ATOM     25  C   UNL     1       1.190  -1.532  -4.323  0.00  0.00    +0.005 C 
ATOM     26  C   UNL     1       0.397  -0.600  -3.404  0.00  0.00    +0.020 C 
ENDBRANCH  14  26
ENDBRANCH  13  14
ENDBRANCH   1  13
BRANCH  11  27
ATOM     27  C   UNL     1       1.437   3.378   0.192  0.00  0.00    +0.115 C 
BRANCH  27  28
ATOM     28  C   UNL     1       1.253   4.835  -0.238  0.00  0.00    +0.052 C 
BRANCH  28  29
ATOM     29  C   UNL     1       1.997   5.737   0.713  0.00  0.00    -0.040 C 
ATOM     30  C   UNL     1       3.246   6.231   0.555  0.00  0.00    -0.001 A 
ATOM     31  C   UNL     1       4.248   6.082  -0.508  0.00  0.00    +0.010 A 
ATOM     32  C   UNL     1       5.437   6.713  -0.381  0.00  0.00    +0.001 A 
ATOM     33  C   UNL     1       5.737   7.504   0.737  0.00  0.00    +0.002 A 
ATOM     34  C   UNL     1       4.869   7.689   1.753  0.00  0.00    +0.026 A 
ATOM     35  C   UNL     1       3.587   7.072   1.725  0.00  0.00    +0.043 A 
ATOM     36  N   UNL     1       2.588   7.097   2.573  0.00  0.00    -0.380 N 
ATOM     37  C   UNL     1       1.496   6.278   2.033  0.00  0.00    +0.144 C 
ATOM     38  H   UNL     1       2.571   7.579   3.414  0.00  0.00    +0.160 HD
ENDBRANCH  28  29
ENDBRANCH  27  28
ENDBRANCH  11  27
TORSDOF 8
