REMARK  Name = ZINC33011942
REMARK  6 active torsions:
REMARK  status: ('A' for Active; 'I' for Inactive)
REMARK    1  A    between atoms: C_1  and  N_2
REMARK    2  A    between atoms: C_21  and  C_24
REMARK    3  A    between atoms: C_27  and  O_32
REMARK    4  A    between atoms: C_28  and  O_30
REMARK    5  A    between atoms: O_30  and  C_31
REMARK    6  A    between atoms: O_32  and  C_33
REMARK                            x       y       z     vdW  Elec       q    Type
REMARK                         _______ _______ _______ _____ _____    ______ ____
ROOT
ATOM      1  C   UNL     1       0.101   1.282   0.988  0.00  0.00    +0.140 C 
ATOM      2  N   UNL     1       0.060  -0.092   0.480  0.00  0.00    -0.252 N 
ATOM      3  C   UNL     1      -1.104  -0.772   0.512  0.00  0.00    +0.258 C 
ATOM      4  O   UNL     1      -2.115  -0.260   0.957  0.00  0.00    -0.269 OA
ATOM      5  C   UNL     1      -1.119  -2.152  -0.005  0.00  0.00    +0.116 C 
ATOM      6  C   UNL     1       0.152  -2.688  -0.524  0.00  0.00    +0.256 C 
ATOM      7  N   UNL     1       1.240  -1.891  -0.493  0.00  0.00    -0.263 N 
ATOM      8  H   UNL     1       2.084  -2.229  -0.831  0.00  0.00    +0.157 HD
ATOM      9  C   UNL     1       1.179  -0.641  -0.012  0.00  0.00    +0.146 C 
ATOM     10  S   UNL     1       2.610   0.300  -0.020  0.00  0.00    -0.018 S 
ATOM     11  O   UNL     1       0.218  -3.819  -0.967  0.00  0.00    -0.270 OA
ATOM     12  C   UNL     1      -2.276  -2.911  -0.003  0.00  0.00    +0.027 C 
ATOM     13  N   UNL     1      -3.370  -2.242   0.103  0.00  0.00    -0.316 N 
ATOM     14  C   UNL     1      -4.703  -2.406   0.363  0.00  0.00    +0.045 A 
ATOM     15  C   UNL     1      -5.401  -1.212   0.615  0.00  0.00    +0.024 A 
ATOM     16  C   UNL     1      -6.746  -1.203   0.892  0.00  0.00    +0.002 A 
ATOM     17  C   UNL     1      -7.444  -2.397   0.928  0.00  0.00    +0.001 A 
ATOM     18  C   UNL     1      -6.779  -3.575   0.684  0.00  0.00    +0.016 A 
ATOM     19  C   UNL     1      -5.406  -3.601   0.399  0.00  0.00    +0.030 A 
ATOM     20  S   UNL     1      -4.703  -5.174   0.109  0.00  0.00    -0.115 S 
ATOM     21  C   UNL     1      -3.027  -5.163   0.728  0.00  0.00    +0.087 C 
ATOM     22  C   UNL     1      -2.071  -4.379  -0.130  0.00  0.00    +0.071 C 
ATOM     23  H   UNL     1      -3.188  -1.302  -0.054  0.00  0.00    +0.152 HD
ENDROOT
BRANCH  21  24
ATOM     24  C   UNL     1      -2.537  -6.585   0.813  0.00  0.00    -0.030 A 
ATOM     25  C   UNL     1      -2.476  -7.363  -0.328  0.00  0.00    +0.008 A 
ATOM     26  C   UNL     1      -2.026  -8.669  -0.255  0.00  0.00    +0.050 A 
ATOM     27  C   UNL     1      -1.636  -9.200   0.964  0.00  0.00    +0.162 A 
ATOM     28  C   UNL     1      -1.697  -8.416   2.112  0.00  0.00    +0.162 A 
ATOM     29  C   UNL     1      -2.143  -7.107   2.031  0.00  0.00    +0.054 A 
BRANCH  28  30
ATOM     30  O   UNL     1      -1.314  -8.933   3.311  0.00  0.00    -0.491 OA
ATOM     31  C   UNL     1      -1.403  -8.071   4.447  0.00  0.00    +0.277 C 
ENDBRANCH  28  30
BRANCH  27  32
ATOM     32  O   UNL     1      -1.194 -10.484   1.037  0.00  0.00    -0.491 OA
ATOM     33  C   UNL     1      -1.159 -11.229  -0.182  0.00  0.00    +0.277 C 
ENDBRANCH  27  32
ENDBRANCH  21  24
TORSDOF 3
