REMARK  Name = ZINC08735026
REMARK  7 active torsions:
REMARK  status: ('A' for Active; 'I' for Inactive)
REMARK    1  A    between atoms: C_1  and  C_2
REMARK    2  A    between atoms: N_4  and  C_5
REMARK    3  A    between atoms: C_8  and  N_11
REMARK    4  A    between atoms: C_12  and  C_14
REMARK    5  A    between atoms: C_14  and  N_15
REMARK    6  A    between atoms: C_18  and  C_22
REMARK    7  A    between atoms: C_18  and  C_23
REMARK                            x       y       z     vdW  Elec       q    Type
REMARK                         _______ _______ _______ _____ _____    ______ ____
ROOT
ATOM      1  N   UNL     1       1.088   2.034   0.031  0.00  0.00    -0.215 N 
ATOM      2  C   UNL     1       0.030   1.199   0.052  0.00  0.00    +0.251 C 
ATOM      3  O   UNL     1       0.054  -0.013   0.056  0.00  0.00    -0.272 OA
ATOM      4  C   UNL     1      -1.196   2.090   0.066  0.00  0.00    +0.135 C 
ATOM      5  N   UNL     1      -0.634   3.452   0.056  0.00  0.00    -0.281 N 
ATOM      6  C   UNL     1       0.704   3.316   0.033  0.00  0.00    +0.310 C 
ATOM      7  O   UNL     1       1.478   4.253   0.016  0.00  0.00    -0.252 OA
ATOM      8  C   UNL     1      -2.017   1.858   1.336  0.00  0.00    +0.047 C 
ATOM      9  H   UNL     1      -1.132   4.284   0.063  0.00  0.00    +0.152 HD
ENDROOT
BRANCH   4  10
ATOM     10  C   UNL     1      -2.037   1.853  -1.162  0.00  0.00    -0.014 A 
ATOM     11  C   UNL     1      -2.796   2.881  -1.689  0.00  0.00    +0.008 A 
ATOM     12  C   UNL     1      -3.567   2.665  -2.815  0.00  0.00    +0.022 A 
ATOM     13  C   UNL     1      -3.581   1.419  -3.415  0.00  0.00    +0.059 A 
ATOM     14  C   UNL     1      -2.822   0.389  -2.887  0.00  0.00    +0.060 A 
ATOM     15  C   UNL     1      -2.045   0.608  -1.764  0.00  0.00    +0.027 A 
ATOM     16 CL   UNL     1      -2.838  -1.176  -3.639  0.00  0.00    -0.082 Cl
ATOM     17 CL   UNL     1      -4.551   1.146  -4.829  0.00  0.00    -0.082 Cl
ENDBRANCH   4  10
BRANCH   1  18
ATOM     18  C   UNL     1       2.485   1.593   0.008  0.00  0.00    +0.214 C 
BRANCH  18  20
ATOM     19  N   UNL     1       4.198   1.036  -1.687  0.00  0.00    -0.284 N 
ATOM     20  C   UNL     1       2.939   1.436  -1.421  0.00  0.00    +0.235 C 
ATOM     21  O   UNL     1       2.171   1.669  -2.330  0.00  0.00    -0.274 OA
ATOM     22  H   UNL     1       4.832   0.914  -0.963  0.00  0.00    +0.155 HD
BRANCH  19  26
ATOM     23  C   UNL     1       5.369   0.324  -5.625  0.00  0.00    +0.033 A 
ATOM     24  C   UNL     1       4.469   1.342  -5.342  0.00  0.00    +0.025 A 
ATOM     25  C   UNL     1       4.081   1.578  -4.038  0.00  0.00    +0.025 A 
ATOM     26  C   UNL     1       4.591   0.797  -3.010  0.00  0.00    +0.034 A 
ATOM     27  C   UNL     1       5.496  -0.218  -3.293  0.00  0.00    +0.025 A 
ATOM     28  C   UNL     1       5.879  -0.458  -4.597  0.00  0.00    +0.025 A 
BRANCH  23  32
ATOM     29  C   UNL     1       6.322  -1.445  -8.810  0.00  0.00    +0.109 C 
ATOM     30  C   UNL     1       6.001  -1.176  -7.363  0.00  0.00    +0.214 C 
ATOM     31  O   UNL     1       5.958  -2.093  -6.570  0.00  0.00    -0.276 OA
ATOM     32  N   UNL     1       5.762   0.084  -6.948  0.00  0.00    -0.286 N 
ATOM     33  H   UNL     1       5.862   0.825  -7.566  0.00  0.00    +0.155 HD
ENDBRANCH  23  32
ENDBRANCH  19  26
ENDBRANCH  18  20
ENDBRANCH   1  18
TORSDOF 5
