REMARK  Name = ZINC43769389
REMARK  10 active torsions:
REMARK  status: ('A' for Active; 'I' for Inactive)
REMARK    1  A    between atoms: C_1  and  C_2
REMARK    2  A    between atoms: C_3  and  C_37
REMARK    3  A    between atoms: C_7  and  C_10
REMARK    4  A    between atoms: C_10  and  C_11
REMARK    5  A    between atoms: C_10  and  C_12
REMARK    6  A    between atoms: C_10  and  O_36
REMARK    7  A    between atoms: C_12  and  O_35
REMARK    8  A    between atoms: C_15  and  O_34
REMARK    9  A    between atoms: C_16  and  C_33
REMARK   10  A    between atoms: C_26  and  C_32
REMARK                            x       y       z     vdW  Elec       q    Type
REMARK                         _______ _______ _______ _____ _____    ______ ____
ROOT
ATOM      1  C   UNL     1      -0.803  -3.986   1.610  0.00  0.00    +0.106 C 
ATOM      2  C   UNL     1       0.058  -4.649   0.505  0.00  0.00    +0.041 C 
ATOM      3  C   UNL     1       0.141  -6.158   0.861  0.00  0.00    +0.038 C 
ATOM      4  C   UNL     1      -0.110  -6.169   2.373  0.00  0.00    +0.078 C 
ATOM      5  C   UNL     1      -1.258  -5.132   2.508  0.00  0.00    +0.029 C 
ATOM      6  C   UNL     1      -1.401  -4.817   3.985  0.00  0.00    +0.013 C 
ATOM      7  C   UNL     1      -1.861  -6.108   4.680  0.00  0.00    +0.006 C 
ATOM      8  C   UNL     1      -0.885  -7.257   4.443  0.00  0.00    +0.013 C 
ATOM      9  C   UNL     1      -0.616  -7.479   2.949  0.00  0.00    +0.029 C 
ATOM     10  C   UNL     1       0.471  -8.551   2.812  0.00  0.00    +0.034 C 
ATOM     11  C   UNL     1       0.026  -9.795   3.525  0.00  0.00    -0.026 C 
ATOM     12  C   UNL     1      -0.802  -9.778   4.526  0.00  0.00    -0.056 C 
ATOM     13  C   UNL     1      -1.419  -8.525   5.087  0.00  0.00    +0.054 C 
ATOM     14  C   UNL     1      -1.111  -8.506   6.572  0.00  0.00    +0.166 C 
ATOM     15  O   UNL     1      -0.850  -7.468   7.141  0.00  0.00    -0.292 OA
ATOM     16  C   UNL     1      -1.138  -9.777   7.298  0.00  0.00    +0.043 C 
ATOM     17  C   UNL     1      -1.163 -10.944   6.674  0.00  0.00    -0.019 C 
ATOM     18  C   UNL     1      -1.187 -11.091   5.180  0.00  0.00    +0.058 C 
ATOM     19  C   UNL     1      -2.937  -8.584   4.903  0.00  0.00    +0.024 C 
ATOM     20  C   UNL     1      -2.561  -5.728   1.971  0.00  0.00    +0.017 C 
ENDROOT
BRANCH   1  21
ATOM     21  C   UNL     1       0.037  -2.988   2.408  0.00  0.00    +0.129 C 
ATOM     22  C   UNL     1      -0.797  -2.428   3.562  0.00  0.00    +0.048 C 
BRANCH  21  29
ATOM     23  C   UNL     1       2.245   1.573   1.938  0.00  0.00    +0.039 C 
ATOM     24  C   UNL     1       1.878   0.212   1.403  0.00  0.00    -0.059 C 
ATOM     25  C   UNL     1       2.156  -0.084   0.138  0.00  0.00    +0.033 C 
ATOM     26  C   UNL     1       1.794  -1.409  -0.398  0.00  0.00    +0.335 C 
ATOM     27  O   UNL     1       1.878  -1.653  -1.585  0.00  0.00    -0.245 OA
ATOM     28  O   UNL     1       1.364  -2.346   0.485  0.00  0.00    -0.455 OA
ATOM     29  C   UNL     1       0.474  -1.843   1.493  0.00  0.00    +0.215 C 
ATOM     30  C   UNL     1       1.212  -0.781   2.315  0.00  0.00    +0.078 C 
ATOM     31  C   UNL     1       2.836   0.930  -0.745  0.00  0.00    +0.051 C 
ENDBRANCH  21  29
BRANCH  21  32
ATOM     32  O   UNL     1       1.192  -3.647   2.932  0.00  0.00    -0.382 OA
ATOM     33  H   UNL     1       1.768  -4.027   2.255  0.00  0.00    +0.210 HD
ENDBRANCH  21  32
ENDBRANCH   1  21
BRANCH   4  34
ATOM     34  O   UNL     1       1.058  -5.737   3.074  0.00  0.00    -0.388 OA
ATOM     35  H   UNL     1       1.831  -6.302   2.936  0.00  0.00    +0.210 HD
ENDBRANCH   4  34
BRANCH   1  36
ATOM     36  O   UNL     1      -1.934  -3.331   1.032  0.00  0.00    -0.385 OA
ATOM     37  H   UNL     1      -1.706  -2.606   0.435  0.00  0.00    +0.210 HD
ENDBRANCH   1  36
TORSDOF 5
