REMARK  Name = ZINC27360186
REMARK  9 active torsions:
REMARK  status: ('A' for Active; 'I' for Inactive)
REMARK    1  A    between atoms: C_6  and  C_7
REMARK    2  A    between atoms: C_7  and  N_8
REMARK    3  A    between atoms: N_8  and  C_9
REMARK    4  A    between atoms: N_8  and  C_22
REMARK    5  A    between atoms: C_9  and  C_10
REMARK    6  A    between atoms: C_10  and  O_11
REMARK    7  A    between atoms: O_11  and  C_12
REMARK    8  A    between atoms: C_15  and  S_18
REMARK    9  A    between atoms: S_18  and  N_21
REMARK                            x       y       z     vdW  Elec       q    Type
REMARK                         _______ _______ _______ _____ _____    ______ ____
ROOT
ATOM      1  N   UNL     1       1.524   1.877  -0.093  0.00  0.00    +0.386 N 
ATOM      2  H   UNL     1       1.997   1.662  -1.062  0.00  0.00    -0.081 HD
ENDROOT
BRANCH   1   3
ATOM      3  C   UNL     1       2.443   1.436   0.965  0.00  0.00    -0.068 C 
ATOM      4  C   UNL     1       1.926   1.916   2.323  0.00  0.00    -0.015 C 
ATOM      5  C   UNL     1       2.884   1.457   3.424  0.00  0.00    -0.002 C 
ATOM      6  C   UNL     1       4.273   2.046   3.171  0.00  0.00    -0.000 C 
ATOM      7  C   UNL     1       4.790   1.566   1.813  0.00  0.00    -0.002 C 
ATOM      8  C   UNL     1       3.833   2.026   0.711  0.00  0.00    -0.015 C 
ENDBRANCH   1   3
BRANCH   1   9
ATOM      9  C   UNL     1       0.258   1.135  -0.033  0.00  0.00    -0.042 C 
BRANCH   9  15
ATOM     10  C   UNL     1       0.358  -0.638  -1.796  0.00  0.00    +0.004 A 
ATOM     11  C   UNL     1       0.576  -1.944  -2.195  0.00  0.00    +0.038 A 
ATOM     12  C   UNL     1       0.916  -2.905  -1.258  0.00  0.00    +0.123 A 
ATOM     13  C   UNL     1       1.043  -2.556   0.076  0.00  0.00    +0.038 A 
ATOM     14  C   UNL     1       0.830  -1.249   0.471  0.00  0.00    +0.004 A 
ATOM     15  C   UNL     1       0.490  -0.290  -0.465  0.00  0.00    -0.064 A 
ATOM     16  F   UNL     1       1.124  -4.182  -1.646  0.00  0.00    -0.205 F 
ENDBRANCH   9  15
ENDBRANCH   1   9
BRANCH   1  17
ATOM     17  C   UNL     1       1.289   3.325  -0.016  0.00  0.00    -0.036 C 
BRANCH  17  18
ATOM     18  C   UNL     1       0.816   3.838  -1.378  0.00  0.00    +0.210 C 
BRANCH  18  19
ATOM     19  O   UNL     1      -0.486   3.317  -1.656  0.00  0.00    -0.494 OA
BRANCH  19  20
ATOM     20  C   UNL     1      -1.056   3.679  -2.835  0.00  0.00    +0.121 A 
ATOM     21  C   UNL     1      -0.379   4.521  -3.705  0.00  0.00    +0.047 A 
ATOM     22  C   UNL     1      -0.958   4.882  -4.906  0.00  0.00    +0.032 A 
ATOM     23  C   UNL     1      -2.216   4.414  -5.237  0.00  0.00    +0.105 A 
ATOM     24  C   UNL     1      -2.895   3.579  -4.369  0.00  0.00    +0.032 A 
ATOM     25  C   UNL     1      -2.318   3.210  -3.170  0.00  0.00    +0.047 A 
BRANCH  23  26
ATOM     26  S   UNL     1      -2.955   4.883  -6.766  0.00  0.00    +0.056 S 
ATOM     27  O   UNL     1      -1.891   5.230  -7.642  0.00  0.00    -0.153 OA
ATOM     28  O   UNL     1      -3.905   3.875  -7.084  0.00  0.00    -0.153 OA
BRANCH  26  29
ATOM     29  N   UNL     1      -3.813   6.272  -6.490  0.00  0.00    -0.204 NA
ATOM     30  H   UNL     1      -4.292   6.599  -7.425  0.00  0.00    +0.144 HD
ATOM     31  H   UNL     1      -3.132   7.059  -6.132  0.00  0.00    +0.144 HD
ENDBRANCH  26  29
ENDBRANCH  23  26
ENDBRANCH  19  20
ENDBRANCH  18  19
ENDBRANCH  17  18
ENDBRANCH   1  17
TORSDOF 9
