REMARK  Name = ZINC20463845
REMARK  8 active torsions:
REMARK  status: ('A' for Active; 'I' for Inactive)
REMARK    1  A    between atoms: C_4  and  N_7
REMARK    2  A    between atoms: N_10  and  C_13
REMARK    3  A    between atoms: C_15  and  O_39
REMARK    4  A    between atoms: C_17  and  N_26
REMARK    5  A    between atoms: N_26  and  C_27
REMARK    6  A    between atoms: C_27  and  C_28
REMARK    7  A    between atoms: C_31  and  O_34
REMARK    8  A    between atoms: O_34  and  C_35
REMARK                            x       y       z     vdW  Elec       q    Type
REMARK                         _______ _______ _______ _____ _____    ______ ____
ROOT
ATOM      1  C   UNL     1      -3.043   1.307  -0.433  0.00  0.00    +0.140 C 
ATOM      2  C   UNL     1      -2.537   0.084   0.339  0.00  0.00    +0.125 C 
ATOM      3  C   UNL     1      -1.834   0.549   1.620  0.00  0.00    -0.009 C 
ATOM      4  C   UNL     1      -0.781   1.606   1.246  0.00  0.00    +0.136 C 
ATOM      5  C   UNL     1      -0.013   1.086   0.008  0.00  0.00    +0.193 C 
ATOM      6  O   UNL     1      -0.749   1.583  -1.124  0.00  0.00    -0.347 OA
ATOM      7  C   UNL     1      -1.883   2.300  -0.605  0.00  0.00    +0.270 C 
ATOM      8  O   UNL     1      -1.498   2.750   0.713  0.00  0.00    -0.346 OA
ENDROOT
BRANCH   1  12
ATOM      9  N   UNL     1      -6.800   2.865   0.711  0.00  0.00    -0.327 N 
ATOM     10  C   UNL     1      -5.710   3.816   0.451  0.00  0.00    +0.120 C 
ATOM     11  C   UNL     1      -4.632   3.134  -0.396  0.00  0.00    +0.104 C 
ATOM     12  N   UNL     1      -4.134   1.947   0.314  0.00  0.00    -0.290 NA
ATOM     13  C   UNL     1      -5.223   0.996   0.574  0.00  0.00    +0.104 C 
ATOM     14  C   UNL     1      -6.301   1.678   1.420  0.00  0.00    +0.120 C 
BRANCH   9  18
ATOM     15  C   UNL     1      -9.890   4.680   2.829  0.00  0.00    +0.000 A 
ATOM     16  C   UNL     1      -9.989   3.348   2.471  0.00  0.00    +0.002 A 
ATOM     17  C   UNL     1      -8.966   2.743   1.768  0.00  0.00    +0.023 A 
ATOM     18  C   UNL     1      -7.837   3.474   1.421  0.00  0.00    +0.030 A 
ATOM     19  C   UNL     1      -7.739   4.810   1.787  0.00  0.00    +0.023 A 
ATOM     20  C   UNL     1      -8.768   5.410   2.485  0.00  0.00    +0.002 A 
ENDBRANCH   9  18
ENDBRANCH   1  12
BRANCH   3  21
ATOM     21  N   UNL     1      -2.820   1.137   2.537  0.00  0.00    +0.387 N 
ATOM     22  H   UNL     1      -2.972   2.196   2.281  0.00  0.00    -0.085 HD
ATOM     23  H   UNL     1      -3.773   0.597   2.446  0.00  0.00    -0.085 HD
BRANCH  21  24
ATOM     24  C   UNL     1      -2.360   1.050   3.929  0.00  0.00    -0.046 C 
BRANCH  24  25
ATOM     25  C   UNL     1      -3.394   1.662   4.839  0.00  0.00    -0.064 A 
ATOM     26  C   UNL     1      -3.330   3.008   5.150  0.00  0.00    +0.005 A 
ATOM     27  C   UNL     1      -4.280   3.572   5.979  0.00  0.00    +0.046 A 
ATOM     28  C   UNL     1      -5.293   2.785   6.509  0.00  0.00    +0.130 A 
ATOM     29  C   UNL     1      -5.351   1.434   6.199  0.00  0.00    +0.046 A 
ATOM     30  C   UNL     1      -4.402   0.876   5.365  0.00  0.00    +0.005 A 
BRANCH  28  31
ATOM     31  O   UNL     1      -6.225   3.337   7.328  0.00  0.00    -0.406 OA
BRANCH  31  32
ATOM     32  C   UNL     1      -6.103   4.734   7.603  0.00  0.00    +0.575 C 
ATOM     33  F   UNL     1      -6.181   5.454   6.406  0.00  0.00    -0.133 F 
ATOM     34  F   UNL     1      -7.136   5.134   8.457  0.00  0.00    -0.133 F 
ATOM     35  F   UNL     1      -4.870   4.982   8.216  0.00  0.00    -0.133 F 
ENDBRANCH  31  32
ENDBRANCH  28  31
ENDBRANCH  24  25
ENDBRANCH  21  24
ENDBRANCH   3  21
BRANCH   2  36
ATOM     36  O   UNL     1      -1.614  -0.645  -0.473  0.00  0.00    -0.392 OA
ATOM     37  H   UNL     1      -1.143  -1.560  -0.085  0.00  0.00    +0.210 HD
ENDBRANCH   2  36
TORSDOF 8
