REMARK  Name = ZINC15674328
REMARK  7 active torsions:
REMARK  status: ('A' for Active; 'I' for Inactive)
REMARK    1  A    between atoms: C_1  and  C_2
REMARK    2  A    between atoms: C_5  and  C_9
REMARK    3  A    between atoms: C_11  and  C_14
REMARK    4  A    between atoms: C_17  and  O_28
REMARK    5  A    between atoms: C_20  and  C_21
REMARK    6  A    between atoms: C_20  and  N_47
REMARK    7  A    between atoms: C_26  and  O_27
REMARK                            x       y       z     vdW  Elec       q    Type
REMARK                         _______ _______ _______ _____ _____    ______ ____
ROOT
ATOM      1  C   UNL     1      -0.045  -0.084   0.008  0.00  0.00    +0.025 C 
ATOM      2  C   UNL     1       0.361  -0.724   1.359  0.00  0.00    +0.023 C 
ATOM      3  C   UNL     1       0.841  -2.135   0.942  0.00  0.00    +0.097 C 
ATOM      4  C   UNL     1       1.205  -2.013  -0.549  0.00  0.00    -0.046 C 
ATOM      5  N   UNL     1       0.971  -0.610  -0.911  0.00  0.00    +0.392 N 
ATOM      6  H   UNL     1       1.841  -0.075  -0.808  0.00  0.00    -0.080 HD
ENDROOT
BRANCH   1   9
ATOM      7  C   UNL     1      -0.458   3.482   0.186  0.00  0.00    +0.202 A 
ATOM      8  N   UNL     1      -0.995   2.244   0.102  0.00  0.00    -0.193 NA
ATOM      9  C   UNL     1       0.023   1.419   0.089  0.00  0.00    +0.214 A 
ATOM     10  O   UNL     1       1.132   2.161   0.155  0.00  0.00    -0.339 OA
ATOM     11  N   UNL     1       0.842   3.338   0.210  0.00  0.00    -0.056 NA
BRANCH   7  16
ATOM     12  C   UNL     1      -3.347   8.462   0.378  0.00  0.00    +0.047 C 
ATOM     13  C   UNL     1      -2.591   7.159   0.328  0.00  0.00    -0.015 A 
ATOM     14  C   UNL     1      -1.209   7.162   0.361  0.00  0.00    +0.007 A 
ATOM     15  C   UNL     1      -0.512   5.972   0.316  0.00  0.00    +0.012 A 
ATOM     16  C   UNL     1      -1.203   4.764   0.235  0.00  0.00    +0.025 A 
ATOM     17  C   UNL     1      -2.595   4.765   0.197  0.00  0.00    +0.050 A 
ATOM     18  C   UNL     1      -3.284   5.963   0.249  0.00  0.00    +0.127 A 
ATOM     19  F   UNL     1      -4.635   5.966   0.217  0.00  0.00    -0.205 F 
ENDBRANCH   7  16
ENDBRANCH   1   9
BRANCH   3  20
ATOM     20  O   UNL     1      -0.210  -3.085   1.120  0.00  0.00    -0.394 OA
ATOM     21  H   UNL     1       0.016  -3.981   0.835  0.00  0.00    +0.210 HD
ENDBRANCH   3  20
BRANCH   5  22
ATOM     22  C   UNL     1       0.501  -0.513  -2.326  0.00  0.00    -0.038 C 
BRANCH  22  23
ATOM     23  C   UNL     1       1.515  -1.143  -3.246  0.00  0.00    -0.022 A 
ATOM     24  C   UNL     1       1.264  -2.381  -3.807  0.00  0.00    +0.005 A 
ATOM     25  C   UNL     1       2.192  -2.960  -4.651  0.00  0.00    +0.000 A 
ATOM     26  C   UNL     1       3.375  -2.303  -4.936  0.00  0.00    +0.004 A 
ATOM     27  C   UNL     1       3.631  -1.065  -4.378  0.00  0.00    +0.045 A 
ATOM     28  C   UNL     1       2.698  -0.480  -3.535  0.00  0.00    +0.118 A 
BRANCH  28  29
ATOM     29  O   UNL     1       2.945   0.740  -2.989  0.00  0.00    -0.507 OA
ATOM     30  H   UNL     1       3.403   0.705  -2.138  0.00  0.00    +0.292 HD
ENDBRANCH  28  29
ENDBRANCH  22  23
ENDBRANCH   5  22
TORSDOF 6
