REMARK  Name = ZINC65986027
REMARK  3 active torsions:
REMARK  status: ('A' for Active; 'I' for Inactive)
REMARK    1  A    between atoms: C_1  and  C_2
REMARK    2  A    between atoms: C_2  and  C_3
REMARK    3  A    between atoms: C_2  and  C_4
REMARK                            x       y       z     vdW  Elec       q    Type
REMARK                         _______ _______ _______ _____ _____    ______ ____
ROOT
ATOM      1  C   UNL     1      -1.414  -0.519   0.011  0.00  0.00    +0.106 A 
ATOM      2  N   UNL     1      -2.373  -0.344   0.898  0.00  0.00    -0.144 NA
ATOM      3  N   UNL     1      -3.499  -0.884   0.701  0.00  0.00    -0.126 NA
ATOM      4  C   UNL     1      -3.741  -1.619  -0.366  0.00  0.00    +0.189 A 
ATOM      5  S   UNL     1      -2.265  -1.547  -1.178  0.00  0.00    -0.035 S 
ATOM      6  N   UNL     1      -4.911  -2.277  -0.731  0.00  0.00    -0.247 N 
ATOM      7  C   UNL     1      -5.999  -2.207   0.062  0.00  0.00    +0.308 C 
ATOM      8  O   UNL     1      -5.932  -1.644   1.137  0.00  0.00    -0.252 OA
ATOM      9  N   UNL     1      -7.161  -2.760  -0.338  0.00  0.00    -0.282 N 
ATOM     10  C   UNL     1      -7.172  -3.521  -1.555  0.00  0.00    +0.113 C 
ATOM     11  C   UNL     1      -8.127  -4.675  -1.515  0.00  0.00    +0.007 C 
ATOM     12  C   UNL     1      -8.031  -5.478  -0.228  0.00  0.00    +0.008 C 
ATOM     13  C   UNL     1      -8.909  -4.962   0.895  0.00  0.00    -0.009 C 
ATOM     14  C   UNL     1     -10.345  -4.739   0.412  0.00  0.00    +0.007 C 
ATOM     15  C   UNL     1     -10.286  -3.718  -0.727  0.00  0.00    -0.009 C 
ATOM     16  C   UNL     1      -9.543  -4.353  -1.903  0.00  0.00    +0.008 C 
ATOM     17  C   UNL     1      -9.625  -2.432  -0.289  0.00  0.00    +0.026 C 
ATOM     18  C   UNL     1      -8.340  -2.563   0.487  0.00  0.00    +0.078 C 
ATOM     19  C   UNL     1      -8.398  -3.675   1.527  0.00  0.00    +0.026 C 
ATOM     20  H   UNL     1      -4.944  -2.788  -1.555  0.00  0.00    +0.158 HD
ENDROOT
BRANCH   1  22
ATOM     21  C   UNL     1      -0.024   1.534   0.018  0.00  0.00    +0.014 C 
ATOM     22  C   UNL     1      -0.001   0.004   0.001  0.00  0.00    +0.040 C 
ATOM     23  C   UNL     1       0.743  -0.509   1.235  0.00  0.00    +0.014 C 
ENDBRANCH   1  22
TORSDOF 1
