REMARK  Name = ZINC35745862
REMARK  6 active torsions:
REMARK  status: ('A' for Active; 'I' for Inactive)
REMARK    1  A    between atoms: C_1  and  C_2
REMARK    2  A    between atoms: C_3  and  C_20
REMARK    3  A    between atoms: C_4  and  C_13
REMARK    4  A    between atoms: C_17  and  N_19
REMARK    5  A    between atoms: C_20  and  O_22
REMARK    6  A    between atoms: O_22  and  C_23
REMARK                            x       y       z     vdW  Elec       q    Type
REMARK                         _______ _______ _______ _____ _____    ______ ____
ROOT
ATOM      1  C   UNL     1      -0.018   1.503   0.010  0.00  0.00    +0.066 C 
ATOM      2  C   UNL     1       0.002  -0.004   0.002  0.00  0.00    +0.053 C 
ATOM      3  C   UNL     1      -1.175  -0.692   0.004  0.00  0.00    +0.082 C 
ATOM      4  C   UNL     1      -1.150  -2.198  -0.077  0.00  0.00    +0.145 C 
ATOM      5  N   UNL     1       0.135  -2.682   0.458  0.00  0.00    -0.298 N 
ATOM      6  C   UNL     1       0.130  -3.913   1.240  0.00  0.00    +0.109 C 
ATOM      7  C   UNL     1       1.319  -4.814   0.941  0.00  0.00    +0.030 C 
ATOM      8  C   UNL     1       2.610  -4.114   1.389  0.00  0.00    +0.079 C 
ATOM      9  S   UNL     1       2.861  -2.683   0.295  0.00  0.00    -0.090 S 
ATOM     10  C   UNL     1       1.258  -1.945   0.232  0.00  0.00    +0.157 C 
ATOM     11  N   UNL     1       1.167  -0.643  -0.013  0.00  0.00    -0.230 NA
ENDROOT
BRANCH   4  12
ATOM     12  C   UNL     1      -1.296  -2.628  -1.514  0.00  0.00    -0.021 A 
ATOM     13  C   UNL     1      -0.200  -2.605  -2.357  0.00  0.00    +0.006 A 
ATOM     14  C   UNL     1      -0.329  -2.999  -3.676  0.00  0.00    +0.002 A 
ATOM     15  C   UNL     1      -1.555  -3.417  -4.156  0.00  0.00    +0.023 A 
ATOM     16  C   UNL     1      -2.658  -3.442  -3.312  0.00  0.00    +0.025 A 
ATOM     17  C   UNL     1      -2.523  -3.051  -1.986  0.00  0.00    +0.028 A 
BRANCH  16  18
ATOM     18  N   UNL     1      -3.899  -3.865  -3.794  0.00  0.00    -0.358 N 
ATOM     19  H   UNL     1      -3.991  -4.141  -4.720  0.00  0.00    +0.142 HD
ATOM     20  H   UNL     1      -4.668  -3.881  -3.204  0.00  0.00    +0.142 HD
ENDBRANCH  16  18
ENDBRANCH   4  12
BRANCH   3  21
ATOM     21  C   UNL     1      -2.398  -0.005   0.081  0.00  0.00    +0.339 C 
ATOM     22  O   UNL     1      -2.410   1.211   0.147  0.00  0.00    -0.245 OA
BRANCH  21  23
ATOM     23  O   UNL     1      -3.560  -0.694   0.082  0.00  0.00    -0.465 OA
ATOM     24  C   UNL     1      -4.766   0.069   0.163  0.00  0.00    +0.280 C 
ENDBRANCH  21  23
ENDBRANCH   3  21
TORSDOF 4
