REMARK  Name = ZINC22372315
REMARK  9 active torsions:
REMARK  status: ('A' for Active; 'I' for Inactive)
REMARK    1  A    between atoms: C_1  and  C_2
REMARK    2  A    between atoms: C_9  and  C_37
REMARK    3  A    between atoms: C_9  and  C_38
REMARK    4  A    between atoms: C_11  and  N_13
REMARK    5  A    between atoms: C_14  and  C_16
REMARK    6  A    between atoms: C_16  and  N_17
REMARK    7  A    between atoms: N_17  and  C_18
REMARK    8  A    between atoms: N_17  and  S_28
REMARK    9  A    between atoms: S_28  and  C_31
REMARK                            x       y       z     vdW  Elec       q    Type
REMARK                         _______ _______ _______ _____ _____    ______ ____
ROOT
ATOM      1  N   UNL     1       3.620  -0.662  -0.046  0.00  0.00    -0.194 N 
ENDROOT
BRANCH   1   2
ATOM      2  C   UNL     1       2.399   0.021  -0.015  0.00  0.00    +0.055 A 
ATOM      3  C   UNL     1       2.228   1.171  -0.774  0.00  0.00    +0.028 A 
ATOM      4  C   UNL     1       1.023   1.847  -0.743  0.00  0.00    +0.051 A 
ATOM      5  C   UNL     1      -0.018   1.380   0.046  0.00  0.00    +0.162 A 
ATOM      6  C   UNL     1       0.150   0.227   0.805  0.00  0.00    +0.164 A 
ATOM      7  C   UNL     1       1.360  -0.450   0.774  0.00  0.00    +0.074 A 
ATOM      8  O   UNL     1      -0.863  -0.251   1.578  0.00  0.00    -0.485 OA
ATOM      9  C   UNL     1      -1.930   0.655   1.875  0.00  0.00    +0.270 C 
ATOM     10  C   UNL     1      -2.337   1.361   0.574  0.00  0.00    +0.270 C 
ATOM     11  O   UNL     1      -1.195   2.064   0.071  0.00  0.00    -0.485 OA
ENDBRANCH   1   2
BRANCH   1  12
ATOM     12  S   UNL     1       3.674  -2.240  -0.547  0.00  0.00    +0.075 S 
ATOM     13  O   UNL     1       4.762  -2.846   0.136  0.00  0.00    -0.150 OA
ATOM     14  O   UNL     1       2.346  -2.739  -0.461  0.00  0.00    -0.150 OA
BRANCH  12  15
ATOM     15  C   UNL     1       4.097  -2.228  -2.258  0.00  0.00    +0.109 A 
ATOM     16  C   UNL     1       3.102  -2.178  -3.216  0.00  0.00    +0.029 A 
ATOM     17  C   UNL     1       3.434  -2.164  -4.558  0.00  0.00    +0.002 A 
ATOM     18  C   UNL     1       4.761  -2.212  -4.941  0.00  0.00    +0.000 A 
ATOM     19  C   UNL     1       5.756  -2.267  -3.984  0.00  0.00    +0.002 A 
ATOM     20  C   UNL     1       5.424  -2.276  -2.642  0.00  0.00    +0.029 A 
ENDBRANCH  12  15
ENDBRANCH   1  12
BRANCH   1  21
ATOM     21  C   UNL     1       4.851   0.018   0.365  0.00  0.00    +0.227 C 
BRANCH  21  23
ATOM     22  N   UNL     1       6.066   0.482   2.469  0.00  0.00    -0.307 N 
ATOM     23  C   UNL     1       5.001  -0.076   1.862  0.00  0.00    +0.233 C 
ATOM     24  O   UNL     1       4.162  -0.655   2.520  0.00  0.00    -0.274 OA
ATOM     25  H   UNL     1       6.827   1.006   1.872  0.00  0.00    +0.149 HD
BRANCH  22  36
ATOM     26  C   UNL     1       3.148   4.647   6.366  0.00  0.00    +0.044 C 
ATOM     27  C   UNL     1       3.955   3.541   5.735  0.00  0.00    -0.047 A 
ATOM     28  C   UNL     1       3.438   2.830   4.668  0.00  0.00    +0.004 A 
ATOM     29  C   UNL     1       4.178   1.816   4.091  0.00  0.00    +0.009 A 
ATOM     30  C   UNL     1       5.437   1.506   4.577  0.00  0.00    +0.015 A 
ATOM     31  C   UNL     1       5.958   2.218   5.643  0.00  0.00    +0.126 A 
ATOM     32  C   UNL     1       5.210   3.238   6.223  0.00  0.00    +0.049 A 
ATOM     33  O   UNL     1       7.192   1.954   6.146  0.00  0.00    -0.486 OA
ATOM     34  C   UNL     1       7.794   0.702   5.814  0.00  0.00    +0.107 C 
ATOM     35  C   UNL     1       7.693   0.504   4.296  0.00  0.00    +0.074 C 
ATOM     36  C   UNL     1       6.212   0.390   3.924  0.00  0.00    +0.110 C 
ATOM     37  C   UNL     1       9.265   0.710   6.235  0.00  0.00    +0.055 C 
ATOM     38  C   UNL     1       7.058  -0.430   6.532  0.00  0.00    +0.055 C 
ENDBRANCH  22  36
ENDBRANCH  21  23
ENDBRANCH   1  21
TORSDOF 6
