REMARK  Name = ZINC01260494
REMARK  5 active torsions:
REMARK  status: ('A' for Active; 'I' for Inactive)
REMARK    1  A    between atoms: C_3  and  C_9
REMARK    2  A    between atoms: C_15  and  C_31
REMARK    3  A    between atoms: C_16  and  C_23
REMARK    4  A    between atoms: C_18  and  C_21
REMARK    5  A    between atoms: C_19  and  N_20
REMARK                            x       y       z     vdW  Elec       q    Type
REMARK                         _______ _______ _______ _____ _____    ______ ____
ROOT
ATOM      1  C   UNL     1       3.637   2.145  -0.304  0.00  0.00    +0.030 C 
ATOM      2  C   UNL     1       3.626   3.502  -0.325  0.00  0.00    +0.080 A 
ATOM      3  C   UNL     1       4.752   4.442  -0.387  0.00  0.00    +0.271 A 
ATOM      4  O   UNL     1       5.899   4.038  -0.428  0.00  0.00    -0.266 OA
ATOM      5  N   UNL     1       4.485   5.763  -0.397  0.00  0.00    -0.257 N 
ATOM      6  C   UNL     1       3.161   6.150  -0.349  0.00  0.00    +0.099 A 
ATOM      7  C   UNL     1       2.739   7.441  -0.352  0.00  0.00    +0.057 C 
ATOM      8  C   UNL     1       3.784   8.539  -0.412  0.00  0.00    +0.102 C 
ATOM      9  C   UNL     1       5.225   8.072  -0.464  0.00  0.00    +0.079 C 
ATOM     10  C   UNL     1       5.480   6.746  -0.454  0.00  0.00    +0.118 C 
ATOM     11  S   UNL     1       2.239   4.626  -0.295  0.00  0.00    -0.065 S 
ENDROOT
BRANCH   1  14
ATOM     12  C   UNL     1       0.108   1.347   0.676  0.00  0.00    +0.020 A 
ATOM     13  C   UNL     1       1.277   2.048   0.474  0.00  0.00    +0.011 A 
ATOM     14  C   UNL     1       2.387   1.404  -0.084  0.00  0.00    -0.005 A 
ATOM     15  C   UNL     1       2.301   0.050  -0.432  0.00  0.00    +0.050 A 
ATOM     16  C   UNL     1       1.123  -0.638  -0.223  0.00  0.00    +0.040 A 
ATOM     17  C   UNL     1       0.029   0.007   0.330  0.00  0.00    +0.042 A 
ATOM     18 CL   UNL     1      -1.448  -0.867   0.589  0.00  0.00    -0.083 Cl
ATOM     19 CL   UNL     1       3.671  -0.760  -1.125  0.00  0.00    -0.083 Cl
ENDBRANCH   1  14
BRANCH   8  20
ATOM     20  C   UNL     1       3.618   9.414   0.803  0.00  0.00    -0.016 A 
ATOM     21  C   UNL     1       3.755   8.873   2.068  0.00  0.00    +0.007 A 
ATOM     22  C   UNL     1       3.603   9.675   3.183  0.00  0.00    +0.020 A 
ATOM     23  C   UNL     1       3.316  11.020   3.034  0.00  0.00    +0.042 A 
ATOM     24  C   UNL     1       3.179  11.562   1.769  0.00  0.00    +0.040 A 
ATOM     25  C   UNL     1       3.336  10.760   0.653  0.00  0.00    +0.046 A 
ATOM     26 CL   UNL     1       3.171  11.440  -0.935  0.00  0.00    -0.083 Cl
ATOM     27 CL   UNL     1       3.125  12.027   4.436  0.00  0.00    -0.083 Cl
ENDBRANCH   8  20
BRANCH   7  28
ATOM     28  C   UNL     1       1.371   7.752  -0.302  0.00  0.00    +0.241 C 
ATOM     29  O   UNL     1       0.544   6.858  -0.255  0.00  0.00    -0.271 OA
ATOM     30  N   UNL     1       0.972   9.039  -0.306  0.00  0.00    -0.326 N 
ATOM     31  H   UNL     1       1.630   9.751  -0.344  0.00  0.00    +0.145 HD
ATOM     32  H   UNL     1       0.026   9.254  -0.271  0.00  0.00    +0.145 HD
ENDBRANCH   7  28
BRANCH  10  33
ATOM     33  N   UNL     1       6.791   6.338  -0.500  0.00  0.00    -0.343 N 
ATOM     34  H   UNL     1       7.457   6.894  -0.935  0.00  0.00    +0.144 HD
ATOM     35  H   UNL     1       7.052   5.495  -0.099  0.00  0.00    +0.144 HD
ENDBRANCH  10  33
BRANCH   9  36
ATOM     36  C   UNL     1       6.296   9.021  -0.523  0.00  0.00    +0.099 C 
ATOM     37  N   UNL     1       7.146   9.773  -0.569  0.00  0.00    -0.191 NA
ENDBRANCH   9  36
TORSDOF 5
