REMARK  Name = ZINC01930668
REMARK  11 active torsions:
REMARK  status: ('A' for Active; 'I' for Inactive)
REMARK    1  A    between atoms: C_1  and  C_2
REMARK    2  A    between atoms: C_2  and  O_3
REMARK    3  A    between atoms: O_3  and  C_4
REMARK    4  A    between atoms: C_4  and  C_6
REMARK    5  A    between atoms: C_10  and  N_11
REMARK    6  A    between atoms: C_12  and  C_14
REMARK    7  A    between atoms: C_14  and  N_55
REMARK    8  A    between atoms: C_15  and  C_17
REMARK    9  A    between atoms: C_15  and  C_18
REMARK   10  A    between atoms: C_15  and  N_55
REMARK   11  A    between atoms: C_25  and  C_29
REMARK                            x       y       z     vdW  Elec       q    Type
REMARK                         _______ _______ _______ _____ _____    ______ ____
ROOT
ATOM      1  N   UNL     1      -2.307  -5.916   0.763  0.00  0.00    -0.281 N 
ATOM      2  C   UNL     1      -3.571  -6.203   0.396  0.00  0.00    +0.201 C 
ATOM      3  O   UNL     1      -4.299  -5.323  -0.012  0.00  0.00    -0.278 OA
ATOM      4  H   UNL     1      -1.725  -6.620   1.090  0.00  0.00    +0.155 HD
ENDROOT
BRANCH   1   9
ATOM      5  C   UNL     1      -0.579  -4.127   0.999  0.00  0.00    +0.091 A 
ATOM      6  C   UNL     1      -0.341  -2.706   0.809  0.00  0.00    -0.021 A 
ATOM      7  C   UNL     1      -1.390  -2.006   0.327  0.00  0.00    -0.004 A 
ATOM      8  S   UNL     1      -2.678  -3.203   0.124  0.00  0.00    -0.077 S 
ATOM      9  C   UNL     1      -1.837  -4.615   0.672  0.00  0.00    +0.086 A 
ATOM     10  C   UNL     1      -1.437  -0.538   0.031  0.00  0.00    +0.046 C 
ATOM     11  C   UNL     1       0.002  -0.004   0.002  0.00  0.00    -0.009 C 
ATOM     12  C   UNL     1       0.742  -0.514   1.242  0.00  0.00    +0.008 C 
ATOM     13  C   UNL     1       0.984  -2.020   1.121  0.00  0.00    +0.037 C 
ATOM     14  C   UNL     1      -0.019   1.526   0.010  0.00  0.00    +0.008 C 
BRANCH   5  15
ATOM     15  C   UNL     1       0.468  -5.011   1.515  0.00  0.00    +0.342 C 
ATOM     16  O   UNL     1       0.576  -5.191   2.713  0.00  0.00    -0.245 OA
BRANCH  15  17
ATOM     17  O   UNL     1       1.314  -5.624   0.662  0.00  0.00    -0.461 OA
BRANCH  17  19
ATOM     18  C   UNL     1       3.185  -7.089   0.130  0.00  0.00    +0.048 C 
ATOM     19  C   UNL     1       2.327  -6.486   1.244  0.00  0.00    +0.229 C 
ENDBRANCH  17  19
ENDBRANCH  15  17
ENDBRANCH   5  15
ENDBRANCH   1   9
BRANCH   2  20
ATOM     20  C   UNL     1      -4.082  -7.618   0.495  0.00  0.00    +0.016 C 
BRANCH  20  21
ATOM     21  N   UNL     1      -5.483  -7.659   0.036  0.00  0.00    +0.389 N 
ATOM     22  H   UNL     1      -5.530  -7.338  -0.938  0.00  0.00    -0.084 HD
ATOM     23  H   UNL     1      -6.051  -7.042   0.628  0.00  0.00    -0.084 HD
BRANCH  21  24
ATOM     24  C   UNL     1      -6.009  -9.035   0.121  0.00  0.00    -0.043 C 
ATOM     25  C   UNL     1      -6.530  -9.295   1.536  0.00  0.00    -0.009 C 
BRANCH  24  26
ATOM     26  C   UNL     1      -7.136  -9.195  -0.866  0.00  0.00    -0.062 A 
ATOM     27  C   UNL     1      -8.049  -8.173  -1.045  0.00  0.00    +0.002 A 
ATOM     28  C   UNL     1      -9.080  -8.318  -1.954  0.00  0.00    +0.000 A 
ATOM     29  C   UNL     1      -9.204  -9.490  -2.678  0.00  0.00    +0.000 A 
ATOM     30  C   UNL     1      -8.294 -10.514  -2.495  0.00  0.00    +0.000 A 
ATOM     31  C   UNL     1      -7.260 -10.367  -1.589  0.00  0.00    +0.002 A 
ENDBRANCH  24  26
ENDBRANCH  21  24
ENDBRANCH  20  21
ENDBRANCH   2  20
TORSDOF 8
