REMARK  Name = ZINC09087461
REMARK  4 active torsions:
REMARK  status: ('A' for Active; 'I' for Inactive)
REMARK    1  A    between atoms: C_8  and  C_26
REMARK    2  A    between atoms: C_10  and  C_17
REMARK    3  A    between atoms: C_21  and  N_23
REMARK    4  A    between atoms: C_26  and  C_28
REMARK                            x       y       z     vdW  Elec       q    Type
REMARK                         _______ _______ _______ _____ _____    ______ ____
ROOT
ATOM      1  C   UNL     1      -2.823   5.089   1.432  0.00  0.00    +0.000 A 
ATOM      2  C   UNL     1      -3.917   4.523   2.062  0.00  0.00    +0.002 A 
ATOM      3  C   UNL     1      -3.898   3.193   2.429  0.00  0.00    +0.023 A 
ATOM      4  C   UNL     1      -2.776   2.410   2.168  0.00  0.00    +0.036 A 
ATOM      5  C   UNL     1      -1.682   2.991   1.533  0.00  0.00    -0.027 A 
ATOM      6  C   UNL     1      -1.705   4.318   1.168  0.00  0.00    +0.004 A 
ATOM      7  C   UNL     1      -0.656   1.899   1.397  0.00  0.00    +0.052 C 
ATOM      8  C   UNL     1       0.646   2.268   2.114  0.00  0.00    +0.070 C 
ATOM      9  C   UNL     1       1.625   2.676   0.994  0.00  0.00    +0.016 C 
ATOM     10  C   UNL     1       0.828   2.538  -0.315  0.00  0.00    -0.047 C 
ATOM     11  C   UNL     1       0.019   0.216  -0.202  0.00  0.00    -0.005 C 
ATOM     12  S   UNL     1       1.031   0.331  -1.743  0.00  0.00    -0.181 S 
ATOM     13  C   UNL     1       1.757   1.995  -1.421  0.00  0.00    +0.052 C 
ATOM     14  C   UNL     1      -1.296   0.687   2.019  0.00  0.00    +0.212 C 
ATOM     15  O   UNL     1      -0.805  -0.418   2.123  0.00  0.00    -0.277 OA
ATOM     16  N   UNL     1      -2.518   1.065   2.438  0.00  0.00    -0.286 N 
ATOM     17  H   UNL     1      -3.148   0.471   2.877  0.00  0.00    +0.155 HD
ATOM     18  N   UNL     1      -0.317   1.672   0.002  0.00  0.00    +0.401 N 
ATOM     19  H   UNL     1      -1.113   1.921  -0.597  0.00  0.00    -0.078 HD
ENDROOT
BRANCH   9  20
ATOM     20  C   UNL     1       2.074   4.102   1.184  0.00  0.00    -0.043 A 
ATOM     21  C   UNL     1       3.181   4.380   1.964  0.00  0.00    +0.004 A 
ATOM     22  C   UNL     1       3.595   5.688   2.135  0.00  0.00    +0.002 A 
ATOM     23  C   UNL     1       2.897   6.718   1.532  0.00  0.00    +0.033 A 
ATOM     24  C   UNL     1       1.788   6.440   0.756  0.00  0.00    +0.126 A 
ATOM     25  C   UNL     1       1.376   5.132   0.582  0.00  0.00    +0.036 A 
BRANCH  24  26
ATOM     26  N   UNL     1       1.041   7.543   0.111  0.00  0.00    +0.056 N 
ATOM     27  O   UNL     1       0.063   7.298  -0.573  0.00  0.00    -0.126 OA
ATOM     28  O   UNL     1       1.404   8.696   0.264  0.00  0.00    -0.126 OA
ENDBRANCH  24  26
ENDBRANCH   9  20
BRANCH   8  29
ATOM     29  C   UNL     1       0.416   3.425   3.053  0.00  0.00    +0.184 C 
ATOM     30  O   UNL     1      -0.662   3.979   3.078  0.00  0.00    -0.290 OA
BRANCH  29  31
ATOM     31  C   UNL     1       1.502   3.881   3.941  0.00  0.00    +0.106 A 
ATOM     32  C   UNL     1       1.324   5.026   4.720  0.00  0.00    +0.031 A 
ATOM     33  C   UNL     1       2.353   5.441   5.549  0.00  0.00    +0.004 A 
ATOM     34  C   UNL     1       3.525   4.700   5.573  0.00  0.00    +0.020 A 
ATOM     35  C   UNL     1       3.632   3.573   4.772  0.00  0.00    +0.111 A 
ATOM     36  N   UNL     1       2.639   3.196   3.998  0.00  0.00    -0.252 NA
ENDBRANCH  29  31
ENDBRANCH   8  29
TORSDOF 4
