REMARK  Name = ZINC67462906
REMARK  4 active torsions:
REMARK  status: ('A' for Active; 'I' for Inactive)
REMARK    1  A    between atoms: C_6  and  C_7
REMARK    2  A    between atoms: C_7  and  C_9
REMARK    3  A    between atoms: C_7  and  O_27
REMARK    4  A    between atoms: N_17  and  C_18
REMARK                            x       y       z     vdW  Elec       q    Type
REMARK                         _______ _______ _______ _____ _____    ______ ____
ROOT
ATOM      1  C   UNL     1      -1.789  -1.099  -1.618  0.00  0.00    +0.025 C 
ATOM      2  C   UNL     1      -0.760  -2.211  -1.838  0.00  0.00    +0.025 C 
ATOM      3  C   UNL     1      -0.840  -2.696  -3.289  0.00  0.00    +0.109 C 
ATOM      4  N   UNL     1      -2.225  -3.089  -3.580  0.00  0.00    -0.286 N 
ATOM      5  C   UNL     1      -3.303  -2.126  -3.319  0.00  0.00    +0.109 C 
ATOM      6  C   UNL     1      -3.196  -1.647  -1.868  0.00  0.00    +0.025 C 
ATOM      7  C   UNL     1      -2.501  -4.311  -4.079  0.00  0.00    +0.303 C 
ATOM      8  O   UNL     1      -3.656  -4.659  -4.228  0.00  0.00    -0.253 OA
ATOM      9  N   UNL     1      -1.497  -5.146  -4.411  0.00  0.00    -0.288 N 
ATOM     10  H   UNL     1      -0.578  -4.897  -4.225  0.00  0.00    +0.151 HD
ENDROOT
BRANCH   9  11
ATOM     11  C   UNL     1      -1.793  -6.429  -5.054  0.00  0.00    +0.160 C 
ATOM     12  C   UNL     1      -0.577  -7.352  -4.943  0.00  0.00    +0.032 C 
ATOM     13  C   UNL     1       0.712  -6.556  -5.035  0.00  0.00    +0.004 C 
ATOM     14  C   UNL     1       0.946  -5.923  -6.394  0.00  0.00    +0.019 C 
ATOM     15  C   UNL     1      -0.089  -4.832  -6.673  0.00  0.00    +0.104 C 
ATOM     16  N   UNL     1      -1.283  -5.455  -7.266  0.00  0.00    -0.314 N 
ATOM     17  C   UNL     1      -2.100  -6.205  -6.519  0.00  0.00    +0.233 C 
ATOM     18  O   UNL     1      -3.084  -6.711  -7.015  0.00  0.00    -0.274 OA
ATOM     19  H   UNL     1      -1.480  -5.319  -8.206  0.00  0.00    +0.149 HD
ENDBRANCH   9  11
BRANCH   1  20
ATOM     20  C   UNL     1      -1.689  -0.589  -0.179  0.00  0.00    +0.148 C 
BRANCH  20  26
ATOM     21  C   UNL     1      -0.231   1.439  -0.013  0.00  0.00    +0.007 A 
ATOM     22  C   UNL     1       1.000   2.036   0.180  0.00  0.00    +0.020 A 
ATOM     23  C   UNL     1       2.118   1.256   0.416  0.00  0.00    +0.041 A 
ATOM     24  C   UNL     1       2.002  -0.122   0.460  0.00  0.00    +0.020 A 
ATOM     25  C   UNL     1       0.770  -0.718   0.267  0.00  0.00    +0.007 A 
ATOM     26  C   UNL     1      -0.346   0.062   0.030  0.00  0.00    -0.019 A 
ATOM     27 CL   UNL     1       3.665   2.005   0.658  0.00  0.00    -0.084 Cl
ENDBRANCH  20  26
BRANCH  20  28
ATOM     28  O   UNL     1      -1.834  -1.685   0.726  0.00  0.00    -0.387 OA
ATOM     29  H   UNL     1      -1.164  -2.373   0.620  0.00  0.00    +0.210 HD
ENDBRANCH  20  28
ENDBRANCH   1  20
TORSDOF 4
