REMARK  Name = ZINC00815818
REMARK  6 active torsions:
REMARK  status: ('A' for Active; 'I' for Inactive)
REMARK    1  A    between atoms: C_1  and  C_2
REMARK    2  A    between atoms: C_5  and  C_8
REMARK    3  A    between atoms: C_13  and  C_23
REMARK    4  A    between atoms: C_26  and  O_30
REMARK    5  A    between atoms: C_27  and  O_29
REMARK    6  A    between atoms: O_30  and  C_31
REMARK                            x       y       z     vdW  Elec       q    Type
REMARK                         _______ _______ _______ _____ _____    ______ ____
ROOT
ATOM      1  C   UNL     1      -0.273   1.356  -0.885  0.00  0.00    +0.032 C 
ATOM      2  C   UNL     1      -1.729   0.900  -0.964  0.00  0.00    +0.059 C 
ATOM      3  C   UNL     1      -2.529   1.519   0.170  0.00  0.00    +0.017 C 
ATOM      4  C   UNL     1      -1.948   1.766   1.357  0.00  0.00    +0.036 C 
ATOM      5  C   UNL     1      -2.624   2.370   2.564  0.00  0.00    +0.136 C 
ATOM      6  N   UNL     1      -4.066   2.450   2.470  0.00  0.00    -0.331 N 
ATOM      7  C   UNL     1      -4.679   3.261   1.516  0.00  0.00    +0.049 A 
ATOM      8  C   UNL     1      -5.446   4.356   1.880  0.00  0.00    +0.025 A 
ATOM      9  C   UNL     1      -5.996   5.158   0.895  0.00  0.00    +0.002 A 
ATOM     10  C   UNL     1      -5.780   4.875  -0.441  0.00  0.00    +0.002 A 
ATOM     11  C   UNL     1      -5.029   3.771  -0.808  0.00  0.00    +0.025 A 
ATOM     12  C   UNL     1      -4.497   2.955   0.175  0.00  0.00    +0.052 A 
ATOM     13  N   UNL     1      -3.830   1.772  -0.122  0.00  0.00    -0.316 N 
ATOM     14  C   UNL     1      -0.576   1.468   1.559  0.00  0.00    +0.163 C 
ATOM     15  O   UNL     1      -0.079   1.679   2.648  0.00  0.00    -0.292 OA
ATOM     16  C   UNL     1       0.284   0.902   0.469  0.00  0.00    +0.088 C 
ATOM     17  H   UNL     1      -4.614   1.933   3.080  0.00  0.00    +0.147 HD
ATOM     18  H   UNL     1      -4.332   1.074  -0.572  0.00  0.00    +0.152 HD
ENDROOT
BRANCH   1  23
ATOM     19  C   UNL     1       2.774  -1.050  -5.165  0.00  0.00    +0.044 C 
ATOM     20  C   UNL     1       1.980  -0.422  -4.048  0.00  0.00    -0.050 A 
ATOM     21  C   UNL     1       1.917   0.954  -3.933  0.00  0.00    +0.003 A 
ATOM     22  C   UNL     1       1.188   1.529  -2.910  0.00  0.00    +0.004 A 
ATOM     23  C   UNL     1       0.522   0.729  -2.001  0.00  0.00    -0.043 A 
ATOM     24  C   UNL     1       0.589  -0.647  -2.112  0.00  0.00    +0.004 A 
ATOM     25  C   UNL     1       1.314  -1.223  -3.139  0.00  0.00    +0.003 A 
ENDBRANCH   1  23
BRANCH   5  26
ATOM     26  C   UNL     1      -2.081   3.761   2.769  0.00  0.00    -0.019 A 
ATOM     27  C   UNL     1      -2.287   4.731   1.805  0.00  0.00    +0.009 A 
ATOM     28  C   UNL     1      -1.795   6.010   1.990  0.00  0.00    +0.050 A 
ATOM     29  C   UNL     1      -1.085   6.319   3.139  0.00  0.00    +0.161 A 
ATOM     30  C   UNL     1      -0.872   5.342   4.106  0.00  0.00    +0.159 A 
ATOM     31  C   UNL     1      -1.373   4.064   3.917  0.00  0.00    +0.055 A 
BRANCH  30  32
ATOM     32  O   UNL     1      -0.175   5.641   5.235  0.00  0.00    -0.503 OA
ATOM     33  H   UNL     1       0.778   5.493   5.160  0.00  0.00    +0.292 HD
ENDBRANCH  30  32
BRANCH  29  34
ATOM     34  O   UNL     1      -0.596   7.575   3.320  0.00  0.00    -0.491 OA
ATOM     35  C   UNL     1      -0.852   8.527   2.285  0.00  0.00    +0.277 C 
ENDBRANCH  29  34
ENDBRANCH   5  26
TORSDOF 4
