REMARK  Name = ZINC63294507
REMARK  10 active torsions:
REMARK  status: ('A' for Active; 'I' for Inactive)
REMARK    1  A    between atoms: C_1  and  O_2
REMARK    2  A    between atoms: O_2  and  C_3
REMARK    3  A    between atoms: C_7  and  C_9
REMARK    4  A    between atoms: C_13  and  C_35
REMARK    5  A    between atoms: N_15  and  C_22
REMARK    6  A    between atoms: C_22  and  C_23
REMARK    7  A    between atoms: C_23  and  C_24
REMARK    8  A    between atoms: C_27  and  O_33
REMARK    9  A    between atoms: O_33  and  C_34
REMARK   10  A    between atoms: C_39  and  O_41
REMARK                            x       y       z     vdW  Elec       q    Type
REMARK                         _______ _______ _______ _____ _____    ______ ____
ROOT
ATOM      1  C   UNL     1      -2.540  -4.171   0.015  0.00  0.00    +0.136 C 
ATOM      2  C   UNL     1      -2.912  -4.698  -1.322  0.00  0.00    +0.077 C 
ATOM      3  C   UNL     1      -2.185  -5.144  -2.533  0.00  0.00    +0.114 C 
ATOM      4  N   UNL     1      -3.150  -6.140  -3.102  0.00  0.00    -0.292 N 
ATOM      5  C   UNL     1      -3.951  -6.625  -2.100  0.00  0.00    +0.243 C 
ATOM      6  O   UNL     1      -4.943  -7.311  -2.231  0.00  0.00    -0.273 OA
ATOM      7  C   UNL     1      -3.336  -6.149  -0.811  0.00  0.00    +0.218 C 
ATOM      8  N   UNL     1      -4.171  -5.734   0.307  0.00  0.00    -0.203 NA
ATOM      9  N   UNL     1      -3.708  -4.673   0.809  0.00  0.00    -0.305 N 
ATOM     10  H   UNL     1      -4.062  -4.239   1.602  0.00  0.00    +0.183 HD
ENDROOT
BRANCH   1  15
ATOM     11  C   UNL     1      -1.200  -0.637   0.010  0.00  0.00    +0.120 A 
ATOM     12  C   UNL     1      -2.375   0.101   0.019  0.00  0.00    +0.045 A 
ATOM     13  C   UNL     1      -3.596  -0.545   0.027  0.00  0.00    +0.004 A 
ATOM     14  C   UNL     1      -3.648  -1.927   0.026  0.00  0.00    +0.006 A 
ATOM     15  C   UNL     1      -2.479  -2.665   0.017  0.00  0.00    -0.020 A 
ATOM     16  C   UNL     1      -1.255  -2.023   0.003  0.00  0.00    +0.051 A 
BRANCH  11  18
ATOM     17  C   UNL     1      -0.017   1.425   0.010  0.00  0.00    +0.277 C 
ATOM     18  O   UNL     1       0.002  -0.004   0.002  0.00  0.00    -0.495 OA
ENDBRANCH  11  18
ENDBRANCH   1  15
BRANCH   3  19
ATOM     19  C   UNL     1      -1.963  -3.998  -3.486  0.00  0.00    -0.023 A 
ATOM     20  C   UNL     1      -2.988  -3.580  -4.315  0.00  0.00    +0.006 A 
ATOM     21  C   UNL     1      -2.788  -2.529  -5.190  0.00  0.00    +0.004 A 
ATOM     22  C   UNL     1      -1.562  -1.893  -5.238  0.00  0.00    +0.045 A 
ATOM     23  C   UNL     1      -0.532  -2.310  -4.407  0.00  0.00    +0.117 A 
ATOM     24  C   UNL     1      -0.738  -3.361  -3.526  0.00  0.00    +0.051 A 
BRANCH  23  25
ATOM     25  O   UNL     1       0.674  -1.685  -4.453  0.00  0.00    -0.507 OA
ATOM     26  H   UNL     1       0.752  -0.937  -3.846  0.00  0.00    +0.292 HD
ENDBRANCH  23  25
ENDBRANCH   3  19
BRANCH   4  27
ATOM     27  C   UNL     1      -3.227  -6.534  -4.511  0.00  0.00    +0.113 C 
BRANCH  27  28
ATOM     28  C   UNL     1      -2.305  -7.730  -4.758  0.00  0.00    +0.052 C 
BRANCH  28  29
ATOM     29  C   UNL     1      -2.384  -8.134  -6.207  0.00  0.00    -0.040 C 
ATOM     30  C   UNL     1      -1.552  -7.755  -7.204  0.00  0.00    +0.002 A 
ATOM     31  C   UNL     1      -0.371  -6.886  -7.237  0.00  0.00    +0.055 A 
ATOM     32  C   UNL     1       0.276  -6.685  -8.410  0.00  0.00    +0.121 A 
ATOM     33  C   UNL     1      -0.144  -7.283  -9.611  0.00  0.00    +0.047 A 
ATOM     34  C   UNL     1      -1.218  -8.098  -9.681  0.00  0.00    +0.029 A 
ATOM     35  C   UNL     1      -1.993  -8.385  -8.470  0.00  0.00    +0.043 A 
ATOM     36  N   UNL     1      -3.055  -9.124  -8.264  0.00  0.00    -0.380 N 
ATOM     37  C   UNL     1      -3.405  -9.052  -6.841  0.00  0.00    +0.144 C 
ATOM     38  H   UNL     1      -3.528  -9.636  -8.938  0.00  0.00    +0.160 HD
BRANCH  32  39
ATOM     39  O   UNL     1       1.369  -5.876  -8.427  0.00  0.00    -0.495 OA
ATOM     40  C   UNL     1       2.020  -5.692  -9.685  0.00  0.00    +0.277 C 
ENDBRANCH  32  39
ENDBRANCH  28  29
ENDBRANCH  27  28
ENDBRANCH   4  27
TORSDOF 8
