REMARK  Name = ZINC39344640
REMARK  6 active torsions:
REMARK  status: ('A' for Active; 'I' for Inactive)
REMARK    1  A    between atoms: C_3  and  C_7
REMARK    2  A    between atoms: C_14  and  C_16
REMARK    3  A    between atoms: C_18  and  C_32
REMARK    4  A    between atoms: C_20  and  S_22
REMARK    5  A    between atoms: S_22  and  N_25
REMARK    6  A    between atoms: N_25  and  C_26
REMARK                            x       y       z     vdW  Elec       q    Type
REMARK                         _______ _______ _______ _____ _____    ______ ____
ROOT
ATOM      1  C   UNL     1       5.252  -0.631  -2.236  0.00  0.00    +0.039 A 
ATOM      2  C   UNL     1       4.833  -1.685  -3.051  0.00  0.00    +0.019 A 
ATOM      3  C   UNL     1       5.767  -2.454  -3.713  0.00  0.00    -0.017 A 
ATOM      4  C   UNL     1       7.116  -2.184  -3.571  0.00  0.00    +0.034 A 
ATOM      5  C   UNL     1       7.539  -1.142  -2.765  0.00  0.00    +0.106 A 
ATOM      6  C   UNL     1       6.615  -0.361  -2.102  0.00  0.00    +0.041 A 
ENDROOT
BRANCH   1  13
ATOM      7  C   UNL     1       3.528   2.352  -0.616  0.00  0.00    +0.108 C 
ATOM      8  C   UNL     1       4.365   3.184   0.360  0.00  0.00    +0.027 C 
ATOM      9  C   UNL     1       5.406   3.987  -0.422  0.00  0.00    +0.004 C 
ATOM     10  C   UNL     1       6.341   3.028  -1.163  0.00  0.00    +0.019 C 
ATOM     11  C   UNL     1       5.526   2.194  -2.158  0.00  0.00    +0.109 C 
ATOM     12  N   UNL     1       4.430   1.532  -1.437  0.00  0.00    -0.290 N 
ATOM     13  C   UNL     1       4.257   0.198  -1.524  0.00  0.00    +0.247 C 
ATOM     14  O   UNL     1       3.283  -0.323  -1.017  0.00  0.00    -0.270 OA
BRANCH   7  17
ATOM     15  C   UNL     1       0.420   0.579   0.582  0.00  0.00    +0.020 A 
ATOM     16  C   UNL     1       1.242   1.418  -0.154  0.00  0.00    +0.008 A 
ATOM     17  C   UNL     1       2.593   1.456   0.155  0.00  0.00    -0.009 A 
ATOM     18  C   UNL     1       3.072   0.662   1.180  0.00  0.00    +0.116 A 
ATOM     19  N   UNL     1       2.260  -0.125   1.859  0.00  0.00    -0.263 NA
ATOM     20  C   UNL     1       0.970  -0.186   1.593  0.00  0.00    +0.111 A 
ENDBRANCH   7  17
ENDBRANCH   1  13
BRANCH   3  21
ATOM     21  C   UNL     1       5.316  -3.592  -4.593  0.00  0.00    +0.153 C 
ATOM     22  C   UNL     1       4.805  -3.071  -5.924  0.00  0.00    +0.025 C 
ATOM     23  C   UNL     1       3.528  -3.457  -5.952  0.00  0.00    +0.130 C 
ATOM     24  N   UNL     1       3.206  -4.133  -4.827  0.00  0.00    -0.186 NA
ATOM     25  N   UNL     1       4.134  -4.258  -4.018  0.00  0.00    -0.298 N 
ATOM     26  H   UNL     1       4.093  -4.711  -3.162  0.00  0.00    +0.183 HD
ENDBRANCH   3  21
BRANCH   5  27
ATOM     27  S   UNL     1       9.260  -0.807  -2.591  0.00  0.00    +0.059 S 
ATOM     28  O   UNL     1       9.418  -0.126  -1.354  0.00  0.00    -0.153 OA
ATOM     29  O   UNL     1       9.941  -2.019  -2.886  0.00  0.00    -0.153 OA
BRANCH  27  30
ATOM     30  N   UNL     1       9.672   0.269  -3.780  0.00  0.00    -0.187 NA
ATOM     31  H   UNL     1      10.289   0.005  -4.481  0.00  0.00    +0.148 HD
BRANCH  30  32
ATOM     32  C   UNL     1       9.106   1.620  -3.774  0.00  0.00    +0.077 C 
ATOM     33  C   UNL     1       7.870   1.659  -4.674  0.00  0.00    +0.020 C 
ATOM     34  C   UNL     1       7.278   3.070  -4.668  0.00  0.00    +0.002 C 
ATOM     35  C   UNL     1       8.320   4.062  -5.189  0.00  0.00    +0.000 C 
ATOM     36  C   UNL     1       9.557   4.023  -4.289  0.00  0.00    +0.002 C 
ATOM     37  C   UNL     1      10.148   2.612  -4.295  0.00  0.00    +0.020 C 
ENDBRANCH  30  32
ENDBRANCH  27  30
ENDBRANCH   5  27
TORSDOF 6
