REMARK  Name = ZINC64006863
REMARK  8 active torsions:
REMARK  status: ('A' for Active; 'I' for Inactive)
REMARK    1  A    between atoms: C_4  and  C_7
REMARK    2  A    between atoms: C_8  and  C_9
REMARK    3  A    between atoms: C_9  and  N_10
REMARK    4  A    between atoms: C_16  and  C_18
REMARK    5  A    between atoms: C_18  and  C_19
REMARK    6  A    between atoms: N_21  and  C_22
REMARK    7  A    between atoms: C_22  and  C_23
REMARK    8  A    between atoms: C_23  and  C_24
REMARK                            x       y       z     vdW  Elec       q    Type
REMARK                         _______ _______ _______ _____ _____    ______ ____
ROOT
ATOM      1  N   UNL     1       5.126  -3.644   1.036  0.00  0.00    -0.286 NA
ATOM      2  C   UNL     1       5.282  -2.926   2.312  0.00  0.00    +0.104 C 
ATOM      3  C   UNL     1       4.954  -3.885   3.458  0.00  0.00    +0.119 C 
ATOM      4  N   UNL     1       5.696  -5.132   3.296  0.00  0.00    -0.313 N 
ATOM      5  C   UNL     1       6.244  -5.506   2.135  0.00  0.00    +0.231 C 
ATOM      6  O   UNL     1       6.817  -6.573   2.080  0.00  0.00    -0.274 OA
ATOM      7  C   UNL     1       6.177  -4.660   0.894  0.00  0.00    +0.152 C 
ATOM      8  H   UNL     1       5.798  -5.714   4.065  0.00  0.00    +0.149 HD
ENDROOT
BRANCH   1   9
ATOM      9  C   UNL     1       5.141  -2.710  -0.098  0.00  0.00    +0.112 C 
BRANCH   9  11
ATOM     10  C   UNL     1       3.870  -0.610  -0.127  0.00  0.00    +0.005 C 
ATOM     11  C   UNL     1       3.848  -1.936  -0.128  0.00  0.00    -0.011 C 
BRANCH  10  15
ATOM     12  C   UNL     1       0.227   1.573  -0.211  0.00  0.00    +0.000 A 
ATOM     13  C   UNL     1       1.435   2.248  -0.182  0.00  0.00    +0.001 A 
ATOM     14  C   UNL     1       2.621   1.545  -0.154  0.00  0.00    +0.008 A 
ATOM     15  C   UNL     1       2.602   0.149  -0.155  0.00  0.00    -0.025 A 
ATOM     16  C   UNL     1       1.381  -0.525  -0.184  0.00  0.00    +0.008 A 
ATOM     17  C   UNL     1       0.202   0.190  -0.212  0.00  0.00    +0.001 A 
ENDBRANCH  10  15
ENDBRANCH   9  11
ENDBRANCH   1   9
BRANCH   7  18
ATOM     18  C   UNL     1       5.864  -5.550  -0.311  0.00  0.00    +0.124 C 
BRANCH  18  19
ATOM     19  C   UNL     1       4.510  -6.186  -0.128  0.00  0.00    +0.215 C 
ATOM     20  O   UNL     1       3.818  -5.877   0.820  0.00  0.00    -0.276 OA
ATOM     21  N   UNL     1       4.068  -7.098  -1.016  0.00  0.00    -0.315 N 
ATOM     22  H   UNL     1       4.622  -7.344  -1.774  0.00  0.00    +0.149 HD
BRANCH  21  23
ATOM     23  C   UNL     1       2.752  -7.716  -0.838  0.00  0.00    +0.108 C 
BRANCH  23  24
ATOM     24  C   UNL     1       2.496  -8.707  -1.976  0.00  0.00    +0.052 C 
BRANCH  24  25
ATOM     25  C   UNL     1       1.142  -9.342  -1.793  0.00  0.00    -0.040 C 
ATOM     26  C   UNL     1      -0.022  -8.954  -2.360  0.00  0.00    -0.001 A 
ATOM     27  C   UNL     1      -0.364  -7.863  -3.281  0.00  0.00    +0.010 A 
ATOM     28  C   UNL     1      -1.648  -7.722  -3.683  0.00  0.00    +0.001 A 
ATOM     29  C   UNL     1      -2.658  -8.589  -3.243  0.00  0.00    +0.002 A 
ATOM     30  C   UNL     1      -2.421  -9.614  -2.397  0.00  0.00    +0.026 A 
ATOM     31  C   UNL     1      -1.107  -9.855  -1.910  0.00  0.00    +0.043 A 
ATOM     32  N   UNL     1      -0.631 -10.767  -1.097  0.00  0.00    -0.380 N 
ATOM     33  C   UNL     1       0.812 -10.549  -0.943  0.00  0.00    +0.144 C 
ATOM     34  H   UNL     1      -1.146 -11.469  -0.670  0.00  0.00    +0.160 HD
ENDBRANCH  24  25
ENDBRANCH  23  24
ENDBRANCH  21  23
ENDBRANCH  18  19
ENDBRANCH   7  18
TORSDOF 8
