REMARK  Name = ZINC40551903
REMARK  3 active torsions:
REMARK  status: ('A' for Active; 'I' for Inactive)
REMARK    1  A    between atoms: C_1  and  C_2
REMARK    2  A    between atoms: C_7  and  C_22
REMARK    3  A    between atoms: C_17  and  C_19
REMARK                            x       y       z     vdW  Elec       q    Type
REMARK                         _______ _______ _______ _____ _____    ______ ____
ROOT
ATOM      1  C   UNL     1       1.753   2.439   1.456  0.00  0.00    +0.028 C 
ATOM      2  C   UNL     1       0.447   1.642   1.448  0.00  0.00    +0.075 C 
ATOM      3  C   UNL     1      -0.233   1.784   0.083  0.00  0.00    +0.022 C 
ATOM      4  C   UNL     1       0.642   1.131  -0.989  0.00  0.00    +0.004 C 
ATOM      5  C   UNL     1       0.801  -0.360  -0.681  0.00  0.00    +0.022 C 
ATOM      6  C   UNL     1       1.493  -0.526   0.675  0.00  0.00    +0.075 C 
ATOM      7  N   UNL     1       0.735   0.222   1.691  0.00  0.00    -0.280 N 
ATOM      8  C   UNL     1       0.309  -0.382   2.819  0.00  0.00    +0.306 C 
ATOM      9  O   UNL     1      -0.867  -0.345   3.122  0.00  0.00    -0.252 OA
ATOM     10  N   UNL     1       1.189  -1.027   3.610  0.00  0.00    -0.272 N 
ATOM     11  C   UNL     1       2.578  -0.561   3.721  0.00  0.00    +0.110 C 
ATOM     12  C   UNL     1       3.517  -1.732   3.413  0.00  0.00    +0.019 C 
ATOM     13  C   UNL     1       3.174  -2.910   4.328  0.00  0.00    +0.004 C 
ATOM     14  C   UNL     1       1.736  -3.361   4.064  0.00  0.00    +0.034 C 
ATOM     15  C   UNL     1       0.776  -2.205   4.384  0.00  0.00    +0.190 C 
ATOM     16  C   UNL     1       1.535  -2.008   1.052  0.00  0.00    +0.028 C 
ENDROOT
BRANCH  15  17
ATOM     17  C   UNL     1      -0.630  -2.593   4.002  0.00  0.00    +0.376 C 
ATOM     18  O   UNL     1      -0.945  -2.660   2.826  0.00  0.00    -0.244 OA
ATOM     19  O   UNL     1      -1.451  -2.840   4.868  0.00  0.00    -0.244 OA
ENDBRANCH  15  17
TORSDOF 1
