REMARK  Name = ZINC53210691
REMARK  4 active torsions:
REMARK  status: ('A' for Active; 'I' for Inactive)
REMARK    1  A    between atoms: C_8  and  C_13
REMARK    2  A    between atoms: N_15  and  C_16
REMARK    3  A    between atoms: C_21  and  O_22
REMARK    4  A    between atoms: O_22  and  C_23
REMARK                            x       y       z     vdW  Elec       q    Type
REMARK                         _______ _______ _______ _____ _____    ______ ____
ROOT
ATOM      1  C   UNL     1       2.585  -4.212  -0.054  0.00  0.00    +0.265 C 
ATOM      2  O   UNL     1       1.561  -4.868  -0.044  0.00  0.00    -0.268 OA
ATOM      3  N   UNL     1       3.782  -4.832  -0.062  0.00  0.00    -0.277 N 
ATOM      4  H   UNL     1       4.597  -4.311  -0.136  0.00  0.00    +0.155 HD
ENDROOT
BRANCH   1  12
ATOM      5  C   UNL     1      -0.020   1.372  -0.046  0.00  0.00    +0.001 A 
ATOM      6  C   UNL     1       1.164   2.098  -0.057  0.00  0.00    +0.001 A 
ATOM      7  C   UNL     1       2.384   1.455  -0.065  0.00  0.00    +0.014 A 
ATOM      8  C   UNL     1       2.429   0.063  -0.062  0.00  0.00    +0.046 A 
ATOM      9  C   UNL     1       1.224  -0.677  -0.050  0.00  0.00    -0.011 A 
ATOM     10  C   UNL     1      -0.000  -0.006  -0.043  0.00  0.00    +0.009 A 
ATOM     11  C   UNL     1       1.302  -2.138  -0.048  0.00  0.00    +0.039 A 
ATOM     12  C   UNL     1       2.517  -2.740  -0.057  0.00  0.00    +0.105 A 
ATOM     13  N   UNL     1       3.691  -2.018  -0.068  0.00  0.00    -0.318 N 
ATOM     14  H   UNL     1       4.536  -2.494  -0.073  0.00  0.00    +0.169 HD
ATOM     15  C   UNL     1       3.702  -0.670  -0.071  0.00  0.00    +0.257 A 
ATOM     16  O   UNL     1       4.759  -0.065  -0.081  0.00  0.00    -0.267 OA
ENDBRANCH   1  12
BRANCH   3  17
ATOM     17  C   UNL     1       3.848  -6.227   0.035  0.00  0.00    +0.076 A 
ATOM     18  C   UNL     1       2.866  -7.013  -0.551  0.00  0.00    +0.027 A 
ATOM     19  C   UNL     1       2.934  -8.389  -0.454  0.00  0.00    +0.002 A 
ATOM     20  C   UNL     1       3.980  -8.987   0.226  0.00  0.00    +0.004 A 
ATOM     21  C   UNL     1       4.962  -8.211   0.812  0.00  0.00    +0.048 A 
ATOM     22  C   UNL     1       4.904  -6.830   0.714  0.00  0.00    +0.151 A 
BRANCH  22  23
ATOM     23  O   UNL     1       5.873  -6.066   1.285  0.00  0.00    -0.404 OA
BRANCH  23  24
ATOM     24  C   UNL     1       6.925  -6.753   1.965  0.00  0.00    +0.575 C 
ATOM     25  F   UNL     1       7.591  -7.593   1.067  0.00  0.00    -0.133 F 
ATOM     26  F   UNL     1       7.829  -5.821   2.489  0.00  0.00    -0.133 F 
ATOM     27  F   UNL     1       6.387  -7.516   3.007  0.00  0.00    -0.133 F 
ENDBRANCH  23  24
ENDBRANCH  22  23
ENDBRANCH   3  17
TORSDOF 4
