REMARK  Name = ZINC35591955
REMARK  10 active torsions:
REMARK  status: ('A' for Active; 'I' for Inactive)
REMARK    1  A    between atoms: C_1  and  C_2
REMARK    2  A    between atoms: C_5  and  N_8
REMARK    3  A    between atoms: C_9  and  O_20
REMARK    4  A    between atoms: C_10  and  C_19
REMARK    5  A    between atoms: C_11  and  C_13
REMARK    6  A    between atoms: N_15  and  C_16
REMARK    7  A    between atoms: C_16  and  C_17
REMARK    8  A    between atoms: C_16  and  C_18
REMARK    9  A    between atoms: O_20  and  C_21
REMARK   10  A    between atoms: C_24  and  N_28
REMARK                            x       y       z     vdW  Elec       q    Type
REMARK                         _______ _______ _______ _____ _____    ______ ____
ROOT
ATOM      1  N   UNL     1      -0.064  -4.182   0.088  0.00  0.00    -0.199 N 
ATOM      2  C   UNL     1       0.777  -4.965   0.819  0.00  0.00    +0.227 A 
ATOM      3  C   UNL     1       0.643  -6.241   0.379  0.00  0.00    +0.044 A 
ATOM      4  C   UNL     1      -0.314  -6.242  -0.657  0.00  0.00    +0.154 A 
ATOM      5  N   UNL     1      -0.739  -5.004  -0.824  0.00  0.00    -0.158 NA
ATOM      6  C   UNL     1       1.384  -7.443   0.904  0.00  0.00    +0.052 C 
ENDROOT
BRANCH   1  11
ATOM      7  C   UNL     1      -0.738   1.424   0.655  0.00  0.00    +0.044 C 
ATOM      8  C   UNL     1      -0.559  -0.065   0.504  0.00  0.00    -0.050 A 
ATOM      9  C   UNL     1      -0.511  -0.630  -0.757  0.00  0.00    +0.005 A 
ATOM     10  C   UNL     1      -0.347  -1.994  -0.898  0.00  0.00    +0.028 A 
ATOM     11  C   UNL     1      -0.230  -2.798   0.228  0.00  0.00    +0.069 A 
ATOM     12  C   UNL     1      -0.278  -2.228   1.493  0.00  0.00    +0.028 A 
ATOM     13  C   UNL     1      -0.437  -0.862   1.627  0.00  0.00    +0.005 A 
ENDBRANCH   1  11
BRANCH   4  14
ATOM     14  C   UNL     1      -0.766  -7.423  -1.419  0.00  0.00    +0.265 C 
ATOM     15  O   UNL     1      -0.304  -8.520  -1.171  0.00  0.00    -0.268 OA
ATOM     16  N   UNL     1      -1.692  -7.286  -2.390  0.00  0.00    -0.308 N 
ATOM     17  H   UNL     1      -2.061  -6.411  -2.588  0.00  0.00    +0.149 HD
BRANCH  16  18
ATOM     18  C   UNL     1      -2.140  -8.458  -3.145  0.00  0.00    +0.067 C 
ATOM     19  C   UNL     1      -3.544  -8.203  -3.697  0.00  0.00    +0.027 C 
ATOM     20  C   UNL     1      -1.176  -8.717  -4.305  0.00  0.00    +0.027 C 
ENDBRANCH  16  18
ENDBRANCH   4  14
BRANCH   2  21
ATOM     21  O   UNL     1       1.603  -4.543   1.810  0.00  0.00    -0.435 OA
BRANCH  21  22
ATOM     22  C   UNL     1       2.852  -4.131   1.468  0.00  0.00    +0.166 A 
ATOM     23  C   UNL     1       3.214  -4.046   0.132  0.00  0.00    +0.051 A 
ATOM     24  C   UNL     1       4.484  -3.625  -0.214  0.00  0.00    +0.036 A 
ATOM     25  C   UNL     1       5.395  -3.290   0.770  0.00  0.00    +0.129 A 
ATOM     26  C   UNL     1       5.039  -3.373   2.103  0.00  0.00    +0.074 A 
ATOM     27  C   UNL     1       3.767  -3.787   2.455  0.00  0.00    +0.168 A 
ATOM     28  F   UNL     1       3.416  -3.863   3.758  0.00  0.00    -0.202 F 
BRANCH  25  29
ATOM     29  N   UNL     1       6.755  -2.841   0.396  0.00  0.00    +0.057 N 
ATOM     30  O   UNL     1       7.068  -2.768  -0.770  0.00  0.00    -0.126 OA
ATOM     31  O   UNL     1       7.553  -2.547   1.256  0.00  0.00    -0.126 OA
ENDBRANCH  25  29
ENDBRANCH  21  22
ENDBRANCH   2  21
TORSDOF 6
