REMARK  Name = ZINC39369139
REMARK  11 active torsions:
REMARK  status: ('A' for Active; 'I' for Inactive)
REMARK    1  A    between atoms: C_1  and  C_2
REMARK    2  A    between atoms: C_5  and  O_32
REMARK    3  A    between atoms: C_6  and  C_7
REMARK    4  A    between atoms: C_7  and  C_9
REMARK    5  A    between atoms: C_7  and  C_18
REMARK    6  A    between atoms: C_12  and  N_15
REMARK    7  A    between atoms: N_15  and  C_16
REMARK    8  A    between atoms: N_15  and  C_17
REMARK    9  A    between atoms: C_19  and  C_31
REMARK   10  A    between atoms: N_21  and  C_25
REMARK   11  A    between atoms: C_22  and  O_24
REMARK                            x       y       z     vdW  Elec       q    Type
REMARK                         _______ _______ _______ _____ _____    ______ ____
ROOT
ATOM      1  C   UNL     1       0.017  -0.160   2.465  0.00  0.00    +0.087 C 
ENDROOT
BRANCH   1   7
ATOM      2  C   UNL     1      -2.416  -0.599   0.550  0.00  0.00    +0.065 C 
ATOM      3  C   UNL     1      -0.964  -0.581   0.149  0.00  0.00    +0.041 A 
ATOM      4  N   UNL     1      -0.482  -0.747  -1.101  0.00  0.00    -0.278 N 
ATOM      5  N   UNL     1       0.915  -0.661  -1.041  0.00  0.00    -0.136 NA
ATOM      6  C   UNL     1       1.260  -0.451   0.206  0.00  0.00    +0.236 A 
ATOM      7  C   UNL     1       0.089  -0.391   0.977  0.00  0.00    +0.047 A 
ATOM      8  H   UNL     1      -1.010  -0.899  -1.900  0.00  0.00    +0.189 HD
BRANCH   6   9
ATOM      9  O   UNL     1       2.530  -0.310   0.671  0.00  0.00    -0.491 OA
ATOM     10  H   UNL     1       2.823   0.608   0.743  0.00  0.00    +0.294 HD
ENDBRANCH   6   9
ENDBRANCH   1   7
BRANCH   1  11
ATOM     11  C   UNL     1       1.328  -0.550   3.098  0.00  0.00    +0.008 C 
ATOM     12  C   UNL     1       2.192   0.266   3.663  0.00  0.00    +0.023 C 
ATOM     13  N   UNL     1       3.296  -0.409   4.149  0.00  0.00    -0.266 N 
ATOM     14  N   UNL     1       3.176  -1.783   3.896  0.00  0.00    -0.221 N 
ATOM     15  C   UNL     1       1.887  -1.951   3.204  0.00  0.00    +0.250 C 
ATOM     16  C   UNL     1       2.001   1.757   3.769  0.00  0.00    +0.062 C 
ATOM     17  H   UNL     1       4.046   0.009   4.599  0.00  0.00    +0.170 HD
BRANCH  14  18
ATOM     18  C   UNL     1       4.089  -2.785   4.234  0.00  0.00    +0.051 A 
ATOM     19  C   UNL     1       3.824  -4.108   3.905  0.00  0.00    +0.025 A 
ATOM     20  C   UNL     1       4.728  -5.096   4.241  0.00  0.00    +0.002 A 
ATOM     21  C   UNL     1       5.896  -4.769   4.905  0.00  0.00    +0.000 A 
ATOM     22  C   UNL     1       6.163  -3.453   5.235  0.00  0.00    +0.002 A 
ATOM     23  C   UNL     1       5.266  -2.459   4.896  0.00  0.00    +0.025 A 
ENDBRANCH  14  18
BRANCH  15  24
ATOM     24  O   UNL     1       2.091  -2.507   1.904  0.00  0.00    -0.369 OA
ATOM     25  H   UNL     1       2.371  -3.433   1.911  0.00  0.00    +0.212 HD
ENDBRANCH  15  24
ENDBRANCH   1  11
BRANCH   1  26
ATOM     26  C   UNL     1      -1.092  -0.996   3.050  0.00  0.00    -0.035 A 
ATOM     27  C   UNL     1      -1.080  -2.369   2.888  0.00  0.00    +0.006 A 
ATOM     28  C   UNL     1      -2.095  -3.138   3.424  0.00  0.00    +0.023 A 
ATOM     29  C   UNL     1      -3.128  -2.530   4.125  0.00  0.00    +0.029 A 
ATOM     30  C   UNL     1      -3.137  -1.150   4.285  0.00  0.00    +0.023 A 
ATOM     31  C   UNL     1      -2.116  -0.388   3.752  0.00  0.00    +0.006 A 
BRANCH  29  32
ATOM     32  N   UNL     1      -4.156  -3.304   4.667  0.00  0.00    -0.336 N 
ATOM     33  C   UNL     1      -4.146  -4.760   4.496  0.00  0.00    +0.129 C 
ATOM     34  C   UNL     1      -5.246  -2.662   5.406  0.00  0.00    +0.129 C 
ENDBRANCH  29  32
ENDBRANCH   1  26
TORSDOF 7
