REMARK  Name = ZINC37928309
REMARK  4 active torsions:
REMARK  status: ('A' for Active; 'I' for Inactive)
REMARK    1  A    between atoms: C_6  and  N_7
REMARK    2  A    between atoms: N_7  and  S_8
REMARK    3  A    between atoms: S_8  and  C_11
REMARK    4  A    between atoms: C_14  and  N_18
REMARK                            x       y       z     vdW  Elec       q    Type
REMARK                         _______ _______ _______ _____ _____    ______ ____
ROOT
ATOM      1  S   UNL     1      -1.175  -2.376   0.001  0.00  0.00    +0.097 S 
ATOM      2  O   UNL     1      -0.631  -2.768  -1.252  0.00  0.00    -0.148 OA
ATOM      3  O   UNL     1      -0.606  -2.781   1.239  0.00  0.00    -0.148 OA
ENDROOT
BRANCH   1   4
ATOM      4  C   UNL     1      -2.851  -2.921   0.015  0.00  0.00    +0.180 A 
ATOM      5  C   UNL     1      -3.498  -3.136   1.220  0.00  0.00    +0.155 A 
ATOM      6  C   UNL     1      -4.813  -3.564   1.233  0.00  0.00    +0.063 A 
ATOM      7  C   UNL     1      -5.485  -3.778   0.036  0.00  0.00    +0.030 A 
ATOM      8  C   UNL     1      -4.834  -3.562  -1.171  0.00  0.00    +0.063 A 
ATOM      9  C   UNL     1      -3.520  -3.128  -1.180  0.00  0.00    +0.155 A 
ATOM     10  F   UNL     1      -2.888  -2.912  -2.354  0.00  0.00    -0.203 F 
ATOM     11  F   UNL     1      -2.844  -2.928   2.384  0.00  0.00    -0.203 F 
BRANCH   7  12
ATOM     12  N   UNL     1      -6.812  -4.211   0.047  0.00  0.00    -0.358 N 
ATOM     13  H   UNL     1      -7.266  -4.362   0.891  0.00  0.00    +0.142 HD
ATOM     14  H   UNL     1      -7.281  -4.361  -0.789  0.00  0.00    +0.142 HD
ENDBRANCH   7  12
ENDBRANCH   1   4
BRANCH   1  15
ATOM     15  N   UNL     1      -1.199  -0.720   0.010  0.00  0.00    -0.098 NA
BRANCH  15  21
ATOM     16  C   UNL     1      -0.017   1.384   0.010  0.00  0.00    +0.029 A 
ATOM     17  C   UNL     1       1.171   2.091   0.002  0.00  0.00    +0.043 A 
ATOM     18  C   UNL     1       2.379   1.417  -0.013  0.00  0.00    +0.159 A 
ATOM     19  C   UNL     1       2.401   0.030  -0.021  0.00  0.00    +0.160 A 
ATOM     20  C   UNL     1       1.215  -0.680  -0.014  0.00  0.00    +0.068 A 
ATOM     21  C   UNL     1       0.002  -0.004   0.002  0.00  0.00    +0.077 A 
ATOM     22  F   UNL     1       3.582  -0.626  -0.037  0.00  0.00    -0.202 F 
ATOM     23  F   UNL     1       3.538   2.111  -0.020  0.00  0.00    -0.202 F 
ENDBRANCH  15  21
ENDBRANCH   1  15
TORSDOF 4
