REMARK  Name = ZINC05596036
REMARK  5 active torsions:
REMARK  status: ('A' for Active; 'I' for Inactive)
REMARK    1  A    between atoms: C_10  and  O_11
REMARK    2  A    between atoms: O_11  and  C_12
REMARK    3  A    between atoms: C_12  and  C_13
REMARK    4  A    between atoms: C_13  and  C_15
REMARK    5  A    between atoms: C_15  and  C_25
REMARK                            x       y       z     vdW  Elec       q    Type
REMARK                         _______ _______ _______ _____ _____    ______ ____
ROOT
ATOM      1  C   UNL     1       7.228   0.256  -0.065  0.00  0.00    +0.213 C 
ATOM      2  O   UNL     1       7.050   1.459  -0.058  0.00  0.00    -0.288 OA
ENDROOT
BRANCH   1   3
ATOM      3  C   UNL     1       8.534  -0.261  -0.080  0.00  0.00    +0.133 C 
ATOM      4  C   UNL     1       9.636   0.613  -0.087  0.00  0.00    +0.114 C 
ATOM      5  N   UNL     1       9.565   1.969  -0.074  0.00  0.00    -0.300 N 
ATOM      6  C   UNL     1      10.860   2.474  -0.086  0.00  0.00    +0.054 A 
ATOM      7  C   UNL     1      11.375   3.763  -0.081  0.00  0.00    +0.025 A 
ATOM      8  C   UNL     1      12.741   3.958  -0.098  0.00  0.00    +0.002 A 
ATOM      9  C   UNL     1      13.601   2.873  -0.118  0.00  0.00    +0.002 A 
ATOM     10  C   UNL     1      13.100   1.587  -0.123  0.00  0.00    +0.025 A 
ATOM     11  C   UNL     1      11.727   1.380  -0.107  0.00  0.00    +0.054 A 
ATOM     12  N   UNL     1      10.941   0.234  -0.101  0.00  0.00    -0.300 N 
ATOM     13  H   UNL     1       8.750   2.495  -0.059  0.00  0.00    +0.153 HD
ATOM     14  H   UNL     1      11.267  -0.680  -0.108  0.00  0.00    +0.153 HD
BRANCH   3  15
ATOM     15  C   UNL     1       8.744  -1.677  -0.089  0.00  0.00    +0.106 C 
ATOM     16  N   UNL     1       8.910  -2.801  -0.096  0.00  0.00    -0.191 NA
ENDBRANCH   3  15
ENDBRANCH   1   3
BRANCH   1  17
ATOM     17  C   UNL     1       6.047  -0.680  -0.059  0.00  0.00    +0.309 C 
BRANCH  17  18
ATOM     18  O   UNL     1       4.837   0.080  -0.043  0.00  0.00    -0.484 OA
BRANCH  18  28
ATOM     19  C   UNL     1      -0.016   1.357   0.009  0.00  0.00    +0.001 A 
ATOM     20  C   UNL     1       1.169   2.090   0.002  0.00  0.00    +0.001 A 
ATOM     21  C   UNL     1       2.379   1.467  -0.013  0.00  0.00    +0.012 A 
ATOM     22  C   UNL     1       2.437   0.064  -0.021  0.00  0.00    +0.024 A 
ATOM     23  C   UNL     1       1.233  -0.683  -0.013  0.00  0.00    -0.014 A 
ATOM     24  C   UNL     1       0.002  -0.004   0.002  0.00  0.00    +0.008 A 
ATOM     25  C   UNL     1       1.292  -2.087  -0.021  0.00  0.00    +0.009 A 
ATOM     26  C   UNL     1       2.501  -2.713  -0.035  0.00  0.00    +0.004 A 
ATOM     27  C   UNL     1       3.687  -1.984  -0.043  0.00  0.00    +0.046 A 
ATOM     28  C   UNL     1       3.671  -0.617  -0.036  0.00  0.00    +0.129 A 
ENDBRANCH  18  28
ENDBRANCH  17  18
ENDBRANCH   1  17
TORSDOF 5
