REMARK  Name = ZINC04905380
REMARK  5 active torsions:
REMARK  status: ('A' for Active; 'I' for Inactive)
REMARK    1  A    between atoms: C_1  and  N_2
REMARK    2  A    between atoms: N_2  and  C_3
REMARK    3  A    between atoms: C_5  and  N_22
REMARK    4  A    between atoms: C_8  and  N_9
REMARK    5  A    between atoms: N_9  and  C_10
REMARK                            x       y       z     vdW  Elec       q    Type
REMARK                         _______ _______ _______ _____ _____    ______ ____
ROOT
ATOM      1  N   UNL     1       2.402   1.105  -0.015  0.00  0.00    -0.319 N 
ATOM      2  H   UNL     1       3.346   1.669  -0.021  0.00  0.00    +0.152 HD
ENDROOT
BRANCH   1   3
ATOM      3  C   UNL     1       2.423  -0.260  -0.022  0.00  0.00    +0.079 C 
ATOM      4  C   UNL     1       3.605  -0.918  -0.036  0.00  0.00    +0.014 C 
ATOM      5  C   UNL     1       4.899  -0.149  -0.051  0.00  0.00    +0.045 C 
ATOM      6  C   UNL     1       5.939  -0.841   0.830  0.00  0.00    +0.040 C 
ATOM      7  C   UNL     1       6.061  -2.296   0.467  0.00  0.00    -0.036 A 
ATOM      8  C   UNL     1       7.286  -2.929   0.549  0.00  0.00    +0.004 A 
ATOM      9  C   UNL     1       7.391  -4.277   0.261  0.00  0.00    +0.000 A 
ATOM     10  C   UNL     1       6.273  -5.003  -0.113  0.00  0.00    +0.001 A 
ATOM     11  C   UNL     1       5.045  -4.381  -0.208  0.00  0.00    +0.012 A 
ATOM     12  C   UNL     1       4.936  -3.020   0.074  0.00  0.00    +0.025 A 
ATOM     13  C   UNL     1       3.630  -2.332  -0.043  0.00  0.00    +0.191 C 
ATOM     14  O   UNL     1       2.598  -2.971  -0.144  0.00  0.00    -0.287 OA
ENDBRANCH   1   3
BRANCH   1  20
ATOM     15  C   UNL     1       1.155   3.181   0.008  0.00  0.00    +0.050 A 
ATOM     16  C   UNL     1      -0.060   3.849   0.023  0.00  0.00    +0.057 A 
ATOM     17  C   UNL     1      -1.242   3.133   0.031  0.00  0.00    +0.128 A 
ATOM     18  C   UNL     1      -1.219   1.751   0.017  0.00  0.00    +0.034 A 
ATOM     19  C   UNL     1      -0.013   1.076   0.008  0.00  0.00    +0.027 A 
ATOM     20  C   UNL     1       1.179   1.786   0.000  0.00  0.00    +0.052 A 
BRANCH  15  22
ATOM     21  C   UNL     1       2.325   5.368   0.008  0.00  0.00    +0.125 C 
ATOM     22  N   UNL     1       2.353   3.903   0.000  0.00  0.00    -0.345 N 
ATOM     23  H   UNL     1       3.316   3.371  -0.012  0.00  0.00    +0.146 HD
ENDBRANCH  15  22
BRANCH  17  24
ATOM     24  N   UNL     1      -2.538   3.849   0.047  0.00  0.00    +0.056 N 
ATOM     25  O   UNL     1      -2.561   5.067   0.054  0.00  0.00    -0.126 OA
ATOM     26  O   UNL     1      -3.581   3.220   0.054  0.00  0.00    -0.126 OA
ENDBRANCH  17  24
ENDBRANCH   1  20
TORSDOF 4
