REMARK  Name = ZINC12124664
REMARK  10 active torsions:
REMARK  status: ('A' for Active; 'I' for Inactive)
REMARK    1  A    between atoms: C_1  and  C_2
REMARK    2  A    between atoms: C_2  and  O_3
REMARK    3  A    between atoms: O_3  and  C_4
REMARK    4  A    between atoms: N_9  and  C_12
REMARK    5  A    between atoms: C_13  and  C_22
REMARK    6  A    between atoms: C_17  and  C_21
REMARK    7  A    between atoms: C_22  and  N_64
REMARK    8  A    between atoms: C_23  and  C_24
REMARK    9  A    between atoms: C_23  and  N_64
REMARK   10  A    between atoms: C_24  and  C_25
REMARK                            x       y       z     vdW  Elec       q    Type
REMARK                         _______ _______ _______ _____ _____    ______ ____
ROOT
ATOM      1  C   UNL     1      -1.292   3.618  -2.367  0.00  0.00    +0.101 A 
ATOM      2  C   UNL     1      -1.761   4.939  -2.369  0.00  0.00    -0.026 A 
ATOM      3  C   UNL     1      -2.420   5.425  -3.458  0.00  0.00    +0.015 A 
ATOM      4  C   UNL     1      -2.618   4.564  -4.557  0.00  0.00    -0.001 A 
ATOM      5  C   UNL     1      -3.292   4.998  -5.709  0.00  0.00    +0.013 A 
ATOM      6  C   UNL     1      -3.464   4.139  -6.752  0.00  0.00    -0.050 A 
ATOM      7  C   UNL     1      -2.980   2.834  -6.691  0.00  0.00    +0.005 A 
ATOM      8  C   UNL     1      -2.323   2.381  -5.588  0.00  0.00    +0.026 A 
ATOM      9  C   UNL     1      -2.125   3.238  -4.492  0.00  0.00    +0.048 A 
ATOM     10  C   UNL     1      -4.188   4.606  -7.989  0.00  0.00    +0.044 C 
ATOM     11  N   UNL     1      -1.454   2.746  -3.394  0.00  0.00    -0.343 N 
ATOM     12  H   UNL     1      -1.100   1.783  -3.355  0.00  0.00    +0.167 HD
ENDROOT
BRANCH   1  18
ATOM     13  C   UNL     1       1.391   0.272   0.836  0.00  0.00    +0.403 C 
ATOM     14  O   UNL     1       2.575   0.108   0.620  0.00  0.00    -0.226 OA
ATOM     15  N   UNL     1       0.779   1.398   0.418  0.00  0.00    -0.264 N 
ATOM     16  C   UNL     1       1.526   2.441  -0.301  0.00  0.00    +0.130 C 
ATOM     17  C   UNL     1       0.769   2.791  -1.586  0.00  0.00    +0.125 C 
ATOM     18  N   UNL     1      -0.619   3.139  -1.253  0.00  0.00    -0.313 N 
ATOM     19  C   UNL     1      -1.327   1.997  -0.660  0.00  0.00    +0.125 C 
ATOM     20  C   UNL     1      -0.656   1.615   0.663  0.00  0.00    +0.130 C 
BRANCH  13  21
ATOM     21  O   UNL     1       0.689  -0.671   1.492  0.00  0.00    -0.451 OA
BRANCH  21  23
ATOM     22  C   UNL     1       0.457  -2.809   2.636  0.00  0.00    +0.048 C 
ATOM     23  C   UNL     1       1.413  -1.858   1.912  0.00  0.00    +0.230 C 
ENDBRANCH  21  23
ENDBRANCH  13  21
ENDBRANCH   1  18
BRANCH   2  24
ATOM     24  C   UNL     1      -1.532   5.823  -1.169  0.00  0.00    -0.043 C 
BRANCH  24  25
ATOM     25  N   UNL     1      -0.134   6.293  -1.175  0.00  0.00    +0.382 N 
ATOM     26  H   UNL     1       0.042   6.822  -2.037  0.00  0.00    -0.085 HD
ATOM     27  H   UNL     1       0.495   5.482  -1.136  0.00  0.00    -0.085 HD
BRANCH  25  28
ATOM     28  C   UNL     1       0.119   7.161  -0.010  0.00  0.00    -0.077 C 
BRANCH  28  29
ATOM     29  C   UNL     1       1.575   7.632  -0.043  0.00  0.00    +0.016 C 
BRANCH  29  30
ATOM     30  C   UNL     1       1.842   8.521   1.145  0.00  0.00    -0.046 A 
ATOM     31  C   UNL     1       1.646   9.886   1.044  0.00  0.00    +0.004 A 
ATOM     32  C   UNL     1       1.886  10.702   2.134  0.00  0.00    +0.003 A 
ATOM     33  C   UNL     1       2.332  10.155   3.322  0.00  0.00    +0.038 A 
ATOM     34  C   UNL     1       2.534   8.789   3.423  0.00  0.00    +0.124 A 
ATOM     35  C   UNL     1       2.288   7.972   2.332  0.00  0.00    +0.042 A 
ATOM     36  F   UNL     1       2.970   8.253   4.584  0.00  0.00    -0.205 F 
ENDBRANCH  29  30
ENDBRANCH  28  29
ENDBRANCH  25  28
ENDBRANCH  24  25
ENDBRANCH   2  24
TORSDOF 8
