REMARK  Name = ZINC36064403
REMARK  14 active torsions:
REMARK  status: ('A' for Active; 'I' for Inactive)
REMARK    1  A    between atoms: C_1  and  C_2
REMARK    2  A    between atoms: C_2  and  O_3
REMARK    3  A    between atoms: O_3  and  C_4
REMARK    4  A    between atoms: C_4  and  C_6
REMARK    5  A    between atoms: C_7  and  C_32
REMARK    6  A    between atoms: C_11  and  C_13
REMARK    7  A    between atoms: C_18  and  O_19
REMARK    8  A    between atoms: O_19  and  C_20
REMARK    9  A    between atoms: C_21  and  C_24
REMARK   10  A    between atoms: C_25  and  N_27
REMARK   11  A    between atoms: N_27  and  C_28
REMARK   12  A    between atoms: C_28  and  C_29
REMARK   13  A    between atoms: C_29  and  C_30
REMARK   14  A    between atoms: C_29  and  C_31
REMARK                            x       y       z     vdW  Elec       q    Type
REMARK                         _______ _______ _______ _____ _____    ______ ____
ROOT
ATOM      1  C   UNL     1       1.571  -2.084  -2.234  0.00  0.00    +0.092 C 
ATOM      2  C   UNL     1       1.887  -3.420  -2.382  0.00  0.00    +0.158 C 
ATOM      3  N   UNL     1       2.439  -3.858  -3.502  0.00  0.00    -0.220 NA
ATOM      4  C   UNL     1       2.729  -3.104  -4.542  0.00  0.00    +0.166 C 
ATOM      5  N   UNL     1       2.495  -1.758  -4.597  0.00  0.00    -0.267 N 
ATOM      6  C   UNL     1       1.870  -1.156  -3.390  0.00  0.00    +0.153 C 
ATOM      7  C   UNL     1       2.856  -1.107  -5.760  0.00  0.00    +0.048 C 
ATOM      8  C   UNL     1       3.409  -1.845  -6.747  0.00  0.00    +0.072 C 
ATOM      9  S   UNL     1       3.420  -3.475  -6.026  0.00  0.00    -0.060 S 
ENDROOT
BRANCH   6  10
ATOM     10  C   UNL     1       0.577  -0.504  -3.808  0.00  0.00    +0.020 A 
ATOM     11  C   UNL     1      -0.182  -1.060  -4.820  0.00  0.00    +0.009 A 
ATOM     12  C   UNL     1      -1.368  -0.462  -5.204  0.00  0.00    +0.001 A 
ATOM     13  C   UNL     1      -1.798   0.693  -4.578  0.00  0.00    +0.004 A 
ATOM     14  C   UNL     1      -1.042   1.253  -3.566  0.00  0.00    +0.046 A 
ATOM     15  C   UNL     1       0.145   0.652  -3.174  0.00  0.00    +0.125 A 
BRANCH  15  16
ATOM     16  O   UNL     1       0.887   1.198  -2.175  0.00  0.00    -0.495 OA
ATOM     17  C   UNL     1       0.332   2.327  -1.497  0.00  0.00    +0.277 C 
ENDBRANCH  15  16
ENDBRANCH   6  10
BRANCH   2  18
ATOM     18  C   UNL     1       1.603  -4.386  -1.260  0.00  0.00    +0.435 C 
ATOM     19  F   UNL     1       0.889  -3.731  -0.251  0.00  0.00    -0.164 F 
ATOM     20  F   UNL     1       0.846  -5.457  -1.747  0.00  0.00    -0.164 F 
ATOM     21  F   UNL     1       2.810  -4.866  -0.741  0.00  0.00    -0.164 F 
ENDBRANCH   2  18
BRANCH   7  22
ATOM     22  C   UNL     1       2.645   0.339  -5.918  0.00  0.00    +0.091 C 
ATOM     23  C   UNL     1       2.875   0.927  -7.108  0.00  0.00    +0.239 C 
ATOM     24  O   UNL     1       3.175   0.170  -8.191  0.00  0.00    -0.271 OA
BRANCH  23  25
ATOM     25  N   UNL     1       2.806   2.305  -7.224  0.00  0.00    -0.312 N 
ATOM     26  H   UNL     1       2.665   2.852  -6.436  0.00  0.00    +0.149 HD
BRANCH  25  27
ATOM     27  C   UNL     1       2.944   2.937  -8.539  0.00  0.00    +0.107 C 
BRANCH  27  28
ATOM     28  C   UNL     1       2.712   4.444  -8.408  0.00  0.00    -0.000 C 
ATOM     29  C   UNL     1       3.817   5.057  -7.545  0.00  0.00    +0.009 C 
ATOM     30  C   UNL     1       2.733   5.086  -9.796  0.00  0.00    +0.009 C 
ENDBRANCH  27  28
ENDBRANCH  25  27
ENDBRANCH  23  25
ENDBRANCH   7  22
BRANCH   1  31
ATOM     31  C   UNL     1       0.986  -1.605  -1.055  0.00  0.00    +0.339 C 
ATOM     32  O   UNL     1      -0.216  -1.414  -1.004  0.00  0.00    -0.245 OA
BRANCH  31  33
ATOM     33  O   UNL     1       1.756  -1.355   0.028  0.00  0.00    -0.462 OA
BRANCH  33  35
ATOM     34  C   UNL     1       2.115  -0.612   2.299  0.00  0.00    +0.048 C 
ATOM     35  C   UNL     1       1.083  -0.966   1.227  0.00  0.00    +0.229 C 
ENDBRANCH  33  35
ENDBRANCH  31  33
ENDBRANCH   1  31
TORSDOF 10
