REMARK  Name = ZINC20744537
REMARK  6 active torsions:
REMARK  status: ('A' for Active; 'I' for Inactive)
REMARK    1  A    between atoms: C_1  and  C_2
REMARK    2  A    between atoms: C_5  and  N_9
REMARK    3  A    between atoms: C_6  and  C_8
REMARK    4  A    between atoms: N_12  and  C_15
REMARK    5  A    between atoms: C_15  and  C_17
REMARK    6  A    between atoms: C_15  and  C_28
REMARK                            x       y       z     vdW  Elec       q    Type
REMARK                         _______ _______ _______ _____ _____    ______ ____
ROOT
ATOM      1  N   UNL     1       4.175   1.954  -1.331  0.00  0.00    -0.333 N 
ATOM      2  C   UNL     1       4.265   0.903  -2.354  0.00  0.00    +0.086 C 
ATOM      3  C   UNL     1       5.147  -0.236  -1.835  0.00  0.00    -0.058 C 
ATOM      4  N   UNL     1       4.577  -0.765  -0.589  0.00  0.00    +0.394 N 
ATOM      5  C   UNL     1       4.487   0.286   0.434  0.00  0.00    -0.058 C 
ATOM      6  C   UNL     1       3.605   1.425  -0.084  0.00  0.00    +0.086 C 
ATOM      7  H   UNL     1       3.557  -1.117  -0.804  0.00  0.00    -0.080 HD
ENDROOT
BRANCH   1  12
ATOM      8  C   UNL     1       1.174   6.377  -3.224  0.00  0.00    +0.044 C 
ATOM      9  C   UNL     1       1.971   5.202  -2.721  0.00  0.00    -0.050 A 
ATOM     10  C   UNL     1       1.364   3.967  -2.575  0.00  0.00    +0.005 A 
ATOM     11  C   UNL     1       2.091   2.889  -2.110  0.00  0.00    +0.023 A 
ATOM     12  C   UNL     1       3.436   3.044  -1.797  0.00  0.00    +0.033 A 
ATOM     13  C   UNL     1       4.043   4.283  -1.948  0.00  0.00    -0.029 A 
ATOM     14  C   UNL     1       3.309   5.359  -2.409  0.00  0.00    +0.008 A 
ATOM     15  C   UNL     1       5.502   4.455  -1.609  0.00  0.00    +0.045 C 
ENDBRANCH   1  12
BRANCH   4  16
ATOM     16  C   UNL     1       5.355  -1.911  -0.099  0.00  0.00    +0.080 C 
BRANCH  16  17
ATOM     17  C   UNL     1       4.692  -2.479   1.130  0.00  0.00    -0.025 A 
ATOM     18  C   UNL     1       3.388  -2.409   1.438  0.00  0.00    +0.086 A 
ATOM     19  N   UNL     1       3.156  -3.038   2.631  0.00  0.00    -0.360 N 
ATOM     20  H   UNL     1       2.137  -3.079   3.042  0.00  0.00    +0.165 HD
ATOM     21  C   UNL     1       4.337  -3.541   3.132  0.00  0.00    +0.047 A 
ATOM     22  C   UNL     1       5.349  -3.218   2.211  0.00  0.00    +0.003 A 
ATOM     23  C   UNL     1       6.669  -3.599   2.463  0.00  0.00    +0.030 A 
ATOM     24  C   UNL     1       6.968  -4.301   3.610  0.00  0.00    +0.042 A 
ATOM     25  C   UNL     1       5.966  -4.625   4.516  0.00  0.00    +0.022 A 
ATOM     26  C   UNL     1       4.661  -4.250   4.284  0.00  0.00    +0.027 A 
ATOM     27 CL   UNL     1       8.605  -4.783   3.924  0.00  0.00    -0.084 Cl
ENDBRANCH  16  17
BRANCH  16  28
ATOM     28  C   UNL     1       5.419  -2.969  -1.170  0.00  0.00    +0.347 C 
ATOM     29  O   UNL     1       4.525  -3.067  -1.977  0.00  0.00    -0.248 OA
ATOM     30  O   UNL     1       6.469  -3.803  -1.228  0.00  0.00    -0.248 OA
ENDBRANCH  16  28
ENDBRANCH   4  16
TORSDOF 4
