REMARK  Name = ZINC36216465
REMARK  11 active torsions:
REMARK  status: ('A' for Active; 'I' for Inactive)
REMARK    1  A    between atoms: C_1  and  C_2
REMARK    2  A    between atoms: C_2  and  C_3
REMARK    3  A    between atoms: C_3  and  C_4
REMARK    4  A    between atoms: N_6  and  C_7
REMARK    5  A    between atoms: C_10  and  C_13
REMARK    6  A    between atoms: C_15  and  C_28
REMARK    7  A    between atoms: N_17  and  C_21
REMARK    8  A    between atoms: C_21  and  C_22
REMARK    9  A    between atoms: N_30  and  C_31
REMARK   10  A    between atoms: C_31  and  C_32
REMARK   11  A    between atoms: C_32  and  N_33
REMARK                            x       y       z     vdW  Elec       q    Type
REMARK                         _______ _______ _______ _____ _____    ______ ____
ROOT
ATOM      1  C   UNL     1      -2.720  -8.388  -0.383  0.00  0.00    +0.238 C 
ATOM      2  C   UNL     1      -3.113  -9.026   0.970  0.00  0.00    +0.210 C 
ATOM      3  N   UNL     1      -3.964 -10.156   0.547  0.00  0.00    -0.248 N 
ATOM      4  C   UNL     1      -4.293  -9.960  -0.744  0.00  0.00    +0.405 C 
ATOM      5  O   UNL     1      -4.969 -10.736  -1.390  0.00  0.00    -0.226 OA
ATOM      6  O   UNL     1      -3.795  -8.815  -1.242  0.00  0.00    -0.440 OA
ENDROOT
BRANCH   1  10
ATOM      7  C   UNL     1      -2.607  -4.126  -0.086  0.00  0.00    +0.033 A 
ATOM      8  C   UNL     1      -1.425  -4.854  -0.089  0.00  0.00    +0.024 A 
ATOM      9  C   UNL     1      -1.465  -6.231  -0.185  0.00  0.00    +0.009 A 
ATOM     10  C   UNL     1      -2.680  -6.885  -0.278  0.00  0.00    -0.005 A 
ATOM     11  C   UNL     1      -3.859  -6.162  -0.275  0.00  0.00    +0.009 A 
ATOM     12  C   UNL     1      -3.826  -4.785  -0.173  0.00  0.00    +0.024 A 
BRANCH   7  15
ATOM     13  C   UNL     1      -1.575  -2.039  -0.579  0.00  0.00    +0.217 C 
ATOM     14  O   UNL     1      -0.667  -2.631  -1.122  0.00  0.00    -0.275 OA
ATOM     15  N   UNL     1      -2.571  -2.730   0.012  0.00  0.00    -0.285 N 
ATOM     16  H   UNL     1      -3.262  -2.260   0.504  0.00  0.00    +0.155 HD
BRANCH  13  17
ATOM     17  C   UNL     1      -1.592  -0.533  -0.563  0.00  0.00    +0.096 C 
BRANCH  17  19
ATOM     18  C   UNL     1      -0.375   1.528  -1.280  0.00  0.00    +0.004 C 
ATOM     19  C   UNL     1      -0.358  -0.002  -1.296  0.00  0.00    +0.006 C 
ENDBRANCH  17  19
ENDBRANCH  13  17
ENDBRANCH   7  15
ENDBRANCH   1  10
BRANCH   2  20
ATOM     20  C   UNL     1      -3.890  -8.051   1.817  0.00  0.00    +0.238 C 
ATOM     21  O   UNL     1      -5.100  -8.126   1.872  0.00  0.00    -0.274 OA
ATOM     22  N   UNL     1      -3.242  -7.097   2.513  0.00  0.00    -0.315 N 
ATOM     23  H   UNL     1      -2.275  -7.037   2.469  0.00  0.00    +0.149 HD
BRANCH  22  24
ATOM     24  C   UNL     1      -3.997  -6.150   3.337  0.00  0.00    +0.086 C 
BRANCH  24  25
ATOM     25  C   UNL     1      -3.029  -5.179   4.016  0.00  0.00    -0.060 C 
BRANCH  25  26
ATOM     26  N   UNL     1      -3.787  -4.229   4.841  0.00  0.00    +0.381 N 
ATOM     27  C   UNL     1      -4.389  -4.929   6.005  0.00  0.00    -0.079 C 
ATOM     28  C   UNL     1      -4.636  -3.783   7.019  0.00  0.00    -0.020 C 
ATOM     29  C   UNL     1      -3.402  -2.873   6.818  0.00  0.00    -0.020 C 
ATOM     30  C   UNL     1      -2.878  -3.210   5.410  0.00  0.00    -0.079 C 
ATOM     31  H   UNL     1      -4.506  -3.785   4.290  0.00  0.00    -0.082 HD
ENDBRANCH  25  26
ENDBRANCH  24  25
ENDBRANCH  22  24
ENDBRANCH   2  20
BRANCH   3  32
ATOM     32  C   UNL     1      -4.376 -11.287   1.381  0.00  0.00    +0.147 C 
BRANCH  32  33
ATOM     33  C   UNL     1      -5.674 -10.956   2.072  0.00  0.00    -0.030 A 
ATOM     34  C   UNL     1      -5.661 -10.339   3.309  0.00  0.00    +0.005 A 
ATOM     35  C   UNL     1      -6.851 -10.035   3.942  0.00  0.00    +0.000 A 
ATOM     36  C   UNL     1      -8.055 -10.347   3.338  0.00  0.00    +0.000 A 
ATOM     37  C   UNL     1      -8.068 -10.963   2.101  0.00  0.00    +0.000 A 
ATOM     38  C   UNL     1      -6.877 -11.263   1.466  0.00  0.00    +0.005 A 
ENDBRANCH  32  33
ENDBRANCH   3  32
TORSDOF 10
