REMARK  Name = ZINC12162294
REMARK  10 active torsions:
REMARK  status: ('A' for Active; 'I' for Inactive)
REMARK    1  A    between atoms: C_1  and  C_2
REMARK    2  A    between atoms: C_2  and  C_3
REMARK    3  A    between atoms: C_3  and  C_18
REMARK    4  A    between atoms: N_6  and  C_10
REMARK    5  A    between atoms: C_10  and  C_11
REMARK    6  A    between atoms: C_11  and  C_12
REMARK    7  A    between atoms: C_13  and  C_17
REMARK    8  A    between atoms: C_23  and  C_24
REMARK    9  A    between atoms: C_23  and  N_61
REMARK   10  A    between atoms: C_27  and  O_30
REMARK                            x       y       z     vdW  Elec       q    Type
REMARK                         _______ _______ _______ _____ _____    ______ ____
ROOT
ATOM      1  C   UNL     1      -1.431  -0.535   0.074  0.00  0.00    +0.115 C 
ATOM      2  C   UNL     1      -2.245  -0.035  -1.103  0.00  0.00    +0.247 C 
ATOM      3  O   UNL     1      -2.039  -0.247  -2.278  0.00  0.00    -0.273 OA
ATOM      4  N   UNL     1      -3.245   0.695  -0.570  0.00  0.00    -0.224 N 
ATOM      5  C   UNL     1      -3.176   0.725   0.766  0.00  0.00    +0.309 C 
ATOM      6  O   UNL     1      -3.969   1.320   1.470  0.00  0.00    -0.252 OA
ATOM      7  N   UNL     1      -2.132   0.024   1.243  0.00  0.00    -0.285 N 
ATOM      8  H   UNL     1      -1.889  -0.092   2.175  0.00  0.00    +0.151 HD
ENDROOT
BRANCH   1   9
ATOM      9  C   UNL     1       0.002  -0.004   0.002  0.00  0.00    +0.018 C 
ATOM     10  C   UNL     1      -0.019   1.527   0.010  0.00  0.00    -0.013 C 
ATOM     11  C   UNL     1       1.419   2.052  -0.001  0.00  0.00    -0.078 C 
ATOM     12  C   UNL     1       2.208   0.081   1.168  0.00  0.00    -0.078 C 
ATOM     13  C   UNL     1       0.794  -0.503   1.214  0.00  0.00    -0.013 C 
ATOM     14  N   UNL     1       2.120   1.556   1.203  0.00  0.00    +0.382 N 
ATOM     15  H   UNL     1       1.590   1.838   2.037  0.00  0.00    -0.081 HD
BRANCH  14  16
ATOM     16  C   UNL     1       3.474   2.142   1.275  0.00  0.00    -0.043 C 
BRANCH  16  17
ATOM     17  C   UNL     1       3.384   3.627   1.038  0.00  0.00    -0.064 A 
ATOM     18  C   UNL     1       3.511   4.130  -0.244  0.00  0.00    +0.005 A 
ATOM     19  C   UNL     1       3.423   5.491  -0.465  0.00  0.00    +0.045 A 
ATOM     20  C   UNL     1       3.218   6.354   0.601  0.00  0.00    +0.117 A 
ATOM     21  C   UNL     1       3.096   5.847   1.887  0.00  0.00    +0.045 A 
ATOM     22  C   UNL     1       3.179   4.485   2.102  0.00  0.00    +0.005 A 
BRANCH  20  23
ATOM     23  O   UNL     1       3.137   7.693   0.387  0.00  0.00    -0.507 OA
ATOM     24  H   UNL     1       3.987   8.152   0.436  0.00  0.00    +0.292 HD
ENDBRANCH  20  23
ENDBRANCH  16  17
ENDBRANCH  14  16
ENDBRANCH   1   9
BRANCH   1  26
ATOM     25  C   UNL     1      -2.877  -2.569   0.192  0.00  0.00    +0.006 C 
ATOM     26  C   UNL     1      -1.435  -2.065   0.120  0.00  0.00    +0.032 C 
ENDBRANCH   1  26
BRANCH   4  27
ATOM     27  C   UNL     1      -4.279   1.372  -1.357  0.00  0.00    +0.123 C 
BRANCH  27  28
ATOM     28  C   UNL     1      -5.464   0.427  -1.562  0.00  0.00    +0.064 C 
BRANCH  28  29
ATOM     29  C   UNL     1      -6.528   1.124  -2.371  0.00  0.00    +0.014 A 
ATOM     30  C   UNL     1      -6.700   1.173  -3.717  0.00  0.00    +0.049 A 
ATOM     31  N   UNL     1      -7.722   1.854  -4.192  0.00  0.00    -0.252 NA
ATOM     32  C   UNL     1      -8.555   2.483  -3.396  0.00  0.00    +0.156 A 
ATOM     33  S   UNL     1      -7.907   2.121  -1.827  0.00  0.00    -0.080 S 
ATOM     34  C   UNL     1      -5.748   0.463  -4.644  0.00  0.00    +0.066 C 
ENDBRANCH  28  29
ENDBRANCH  27  28
ENDBRANCH   4  27
TORSDOF 8
