REMARK  Name = ZINC66613216
REMARK  7 active torsions:
REMARK  status: ('A' for Active; 'I' for Inactive)
REMARK    1  A    between atoms: C_1  and  C_2
REMARK    2  A    between atoms: C_2  and  C_4
REMARK    3  A    between atoms: C_2  and  N_16
REMARK    4  A    between atoms: C_4  and  C_5
REMARK    5  A    between atoms: N_7  and  C_8
REMARK    6  A    between atoms: C_13  and  O_14
REMARK    7  A    between atoms: C_17  and  C_19
REMARK                            x       y       z     vdW  Elec       q    Type
REMARK                         _______ _______ _______ _____ _____    ______ ____
ROOT
ATOM      1  C   UNL     1       0.759  -0.510   1.231  0.00  0.00    +0.118 C 
ENDROOT
BRANCH   1   2
ATOM      2  C   UNL     1       0.876  -2.011   1.168  0.00  0.00    +0.219 C 
ATOM      3  O   UNL     1       0.418  -2.616   0.222  0.00  0.00    -0.275 OA
ATOM      4  N   UNL     1       1.491  -2.681   2.163  0.00  0.00    -0.283 N 
ATOM      5  H   UNL     1       1.914  -2.194   2.887  0.00  0.00    +0.155 HD
BRANCH   4   6
ATOM      6  C   UNL     1       1.518  -4.082   2.151  0.00  0.00    +0.075 A 
ATOM      7  C   UNL     1       1.608  -4.766   0.947  0.00  0.00    +0.028 A 
ATOM      8  C   UNL     1       1.635  -6.147   0.938  0.00  0.00    +0.017 A 
ATOM      9  C   UNL     1       1.573  -6.852   2.127  0.00  0.00    +0.021 A 
ATOM     10  C   UNL     1       1.484  -6.177   3.331  0.00  0.00    +0.062 A 
ATOM     11  C   UNL     1       1.462  -4.792   3.349  0.00  0.00    +0.139 A 
ATOM     12 BR   UNL     1       1.610  -8.742   2.106  0.00  0.00    -0.050 Br
BRANCH  11  13
ATOM     13  O   UNL     1       1.379  -4.126   4.532  0.00  0.00    -0.505 OA
ATOM     14  H   UNL     1       0.474  -3.951   4.822  0.00  0.00    +0.292 HD
ENDBRANCH  11  13
ENDBRANCH   4   6
ENDBRANCH   1   2
BRANCH   1  16
ATOM     15  C   UNL     1       0.014   1.527  -0.010  0.00  0.00    +0.028 C 
ATOM     16  C   UNL     1       0.024  -0.003  -0.012  0.00  0.00    +0.079 C 
BRANCH  16  17
ATOM     17  N   UNL     1      -1.354  -0.500  -0.001  0.00  0.00    -0.312 N 
ATOM     18  C   UNL     1      -2.031  -0.632  -1.159  0.00  0.00    +0.216 C 
ATOM     19  O   UNL     1      -1.500  -0.339  -2.209  0.00  0.00    -0.276 OA
ATOM     20  H   UNL     1      -1.778  -0.735   0.839  0.00  0.00    +0.149 HD
BRANCH  18  21
ATOM     21  C   UNL     1      -3.449  -1.143  -1.148  0.00  0.00    +0.075 C 
ATOM     22  C   UNL     1      -3.480  -2.547  -0.540  0.00  0.00    +0.013 C 
ATOM     23  C   UNL     1      -4.919  -3.066  -0.529  0.00  0.00    +0.001 C 
ATOM     24  C   UNL     1      -5.453  -3.120  -1.962  0.00  0.00    +0.000 C 
ATOM     25  C   UNL     1      -5.422  -1.716  -2.570  0.00  0.00    +0.001 C 
ATOM     26  C   UNL     1      -3.982  -1.197  -2.581  0.00  0.00    +0.013 C 
ENDBRANCH  18  21
ENDBRANCH  16  17
ENDBRANCH   1  16
TORSDOF 6
