REMARK  Name = ZINC66942440
REMARK  3 active torsions:
REMARK  status: ('A' for Active; 'I' for Inactive)
REMARK    1  A    between atoms: C_3  and  C_9
REMARK    2  A    between atoms: C_11  and  C_14
REMARK    3  A    between atoms: C_20  and  C_22
REMARK                            x       y       z     vdW  Elec       q    Type
REMARK                         _______ _______ _______ _____ _____    ______ ____
ROOT
ATOM      1  C   UNL     1       3.655   2.166   0.044  0.00  0.00    +0.110 A 
ATOM      2  N   UNL     1       4.894   1.712   0.103  0.00  0.00    -0.234 NA
ATOM      3  C   UNL     1       5.890   2.586   0.037  0.00  0.00    +0.133 A 
ATOM      4  C   UNL     1       5.600   3.918  -0.088  0.00  0.00    +0.080 A 
ATOM      5  S   UNL     1       3.917   3.923  -0.120  0.00  0.00    -0.075 S 
ENDROOT
BRANCH   1   8
ATOM      6  C   UNL     1      -0.018   1.388   0.155  0.00  0.00    +0.021 A 
ATOM      7  C   UNL     1       1.166   2.095   0.108  0.00  0.00    +0.013 A 
ATOM      8  C   UNL     1       2.383   1.413   0.096  0.00  0.00    +0.026 A 
ATOM      9  C   UNL     1       2.395   0.017   0.131  0.00  0.00    +0.052 A 
ATOM     10  C   UNL     1       1.204  -0.679   0.178  0.00  0.00    +0.040 A 
ATOM     11  C   UNL     1      -0.000   0.004   0.190  0.00  0.00    +0.042 A 
ATOM     12 CL   UNL     1      -1.494  -0.879   0.250  0.00  0.00    -0.083 Cl
ATOM     13 CL   UNL     1       3.904  -0.840   0.115  0.00  0.00    -0.083 Cl
ENDBRANCH   1   8
BRANCH   3  14
ATOM     14  C   UNL     1       7.289   2.128   0.098  0.00  0.00    +0.266 C 
ATOM     15  O   UNL     1       8.192   2.941   0.154  0.00  0.00    -0.268 OA
ATOM     16  N   UNL     1       7.568   0.810   0.091  0.00  0.00    -0.285 N 
ATOM     17  C   UNL     1       6.587  -0.275  -0.097  0.00  0.00    +0.109 C 
ATOM     18  C   UNL     1       7.415  -1.468  -0.637  0.00  0.00    +0.021 C 
ATOM     19  C   UNL     1       8.737  -1.316   0.161  0.00  0.00    +0.033 C 
ATOM     20  C   UNL     1       8.901   0.215   0.265  0.00  0.00    +0.162 C 
BRANCH  20  21
ATOM     21  C   UNL     1       9.452   0.578   1.620  0.00  0.00    +0.231 C 
ATOM     22  O   UNL     1       8.705   0.965   2.494  0.00  0.00    -0.274 OA
ATOM     23  N   UNL     1      10.774   0.473   1.860  0.00  0.00    -0.328 N 
ATOM     24  H   UNL     1      11.371   0.164   1.161  0.00  0.00    +0.145 HD
ATOM     25  H   UNL     1      11.128   0.707   2.733  0.00  0.00    +0.145 HD
ENDBRANCH  20  21
ENDBRANCH   3  14
TORSDOF 3
