REMARK  Name = ZINC04756008
REMARK  10 active torsions:
REMARK  status: ('A' for Active; 'I' for Inactive)
REMARK    1  A    between atoms: C_1  and  C_2
REMARK    2  A    between atoms: C_2  and  C_3
REMARK    3  A    between atoms: C_8  and  O_19
REMARK    4  A    between atoms: C_9  and  C_18
REMARK    5  A    between atoms: C_12  and  C_15
REMARK    6  A    between atoms: C_13  and  O_14
REMARK    7  A    between atoms: C_15  and  N_51
REMARK    8  A    between atoms: C_16  and  N_51
REMARK    9  A    between atoms: C_17  and  N_51
REMARK   10  A    between atoms: O_19  and  C_20
REMARK                            x       y       z     vdW  Elec       q    Type
REMARK                         _______ _______ _______ _____ _____    ______ ____
ROOT
ATOM      1  C   UNL     1      -1.011   3.241   2.965  0.00  0.00    -0.005 A 
ATOM      2  C   UNL     1      -2.003   2.501   3.542  0.00  0.00    +0.022 A 
ATOM      3  C   UNL     1      -2.370   1.278   2.979  0.00  0.00    +0.068 A 
ATOM      4  C   UNL     1      -3.434   0.449   3.571  0.00  0.00    +0.235 A 
ATOM      5  O   UNL     1      -4.032   0.803   4.573  0.00  0.00    -0.283 OA
ATOM      6  C   UNL     1      -3.736  -0.783   2.923  0.00  0.00    +0.213 A 
ATOM      7  C   UNL     1      -3.053  -1.137   1.817  0.00  0.00    +0.148 A 
ATOM      8  O   UNL     1      -2.086  -0.376   1.287  0.00  0.00    -0.456 OA
ATOM      9  C   UNL     1      -1.724   0.807   1.822  0.00  0.00    +0.144 A 
ATOM     10  C   UNL     1      -0.718   1.572   1.248  0.00  0.00    +0.021 A 
ATOM     11  C   UNL     1      -0.361   2.781   1.822  0.00  0.00    +0.125 A 
ATOM     12  C   UNL     1      -3.390  -2.445   1.148  0.00  0.00    +0.090 C 
ENDROOT
BRANCH   1  14
ATOM     13  C   UNL     1      -1.366   5.694   2.870  0.00  0.00    +0.009 C 
ATOM     14  C   UNL     1      -0.612   4.562   3.572  0.00  0.00    +0.035 C 
ENDBRANCH   1  14
BRANCH  11  15
ATOM     15  O   UNL     1       0.626   3.525   1.263  0.00  0.00    -0.506 OA
ATOM     16  H   UNL     1       0.316   4.156   0.599  0.00  0.00    +0.292 HD
ENDBRANCH  11  15
BRANCH  10  17
ATOM     17  C   UNL     1      -0.013   1.086   0.008  0.00  0.00    -0.036 C 
BRANCH  17  20
ATOM     18  C   UNL     1      -0.640   3.036  -1.283  0.00  0.00    -0.096 C 
ATOM     19  C   UNL     1      -0.211   0.930  -2.400  0.00  0.00    -0.096 C 
ATOM     20  N   UNL     1      -0.751   1.565  -1.179  0.00  0.00    +0.379 N 
ATOM     21  H   UNL     1      -1.741   1.312  -1.081  0.00  0.00    -0.082 HD
ENDBRANCH  17  20
ENDBRANCH  10  17
BRANCH   6  22
ATOM     22  O   UNL     1      -4.708  -1.597   3.418  0.00  0.00    -0.449 OA
BRANCH  22  23
ATOM     23  C   UNL     1      -5.978  -1.420   2.969  0.00  0.00    +0.125 C 
ATOM     24  C   UNL     1      -6.245  -0.471   2.068  0.00  0.00    +0.022 C 
ATOM     25  C   UNL     1      -7.654  -0.276   1.573  0.00  0.00    +0.072 C 
ATOM     26  C   UNL     1      -8.369  -1.624   1.490  0.00  0.00    +0.193 C 
ATOM     27  C   UNL     1      -8.199  -2.376   2.784  0.00  0.00    +0.013 C 
ATOM     28  C   UNL     1      -7.068  -2.279   3.468  0.00  0.00    +0.044 C 
ATOM     29  F   UNL     1      -7.825  -2.374   0.442  0.00  0.00    -0.241 F 
ENDBRANCH  22  23
ENDBRANCH   6  22
TORSDOF 6
