REMARK  Name = ZINC11795945
REMARK  8 active torsions:
REMARK  status: ('A' for Active; 'I' for Inactive)
REMARK    1  A    between atoms: C_1  and  C_2
REMARK    2  A    between atoms: C_5  and  C_8
REMARK    3  A    between atoms: C_10  and  N_21
REMARK    4  A    between atoms: N_11  and  C_13
REMARK    5  A    between atoms: N_21  and  S_22
REMARK    6  A    between atoms: S_22  and  C_25
REMARK    7  A    between atoms: C_26  and  C_32
REMARK    8  A    between atoms: C_30  and  C_31
REMARK                            x       y       z     vdW  Elec       q    Type
REMARK                         _______ _______ _______ _____ _____    ______ ____
ROOT
ATOM      1  C   UNL     1       0.923   1.720  -2.230  0.00  0.00    +0.095 A 
ATOM      2  C   UNL     1      -0.073   0.869  -2.745  0.00  0.00    +0.074 A 
ATOM      3  C   UNL     1      -0.215  -0.173  -1.884  0.00  0.00    +0.137 A 
ATOM      4  N   UNL     1       0.660   0.014  -0.861  0.00  0.00    -0.244 N 
ATOM      5  N   UNL     1       1.355   1.207  -1.098  0.00  0.00    -0.169 NA
ENDROOT
BRANCH   1  10
ATOM      6  C   UNL     1       2.769   6.612  -4.644  0.00  0.00    +0.044 C 
ATOM      7  C   UNL     1       2.286   5.332  -4.013  0.00  0.00    -0.050 A 
ATOM      8  C   UNL     1       2.971   4.792  -2.940  0.00  0.00    +0.004 A 
ATOM      9  C   UNL     1       2.533   3.620  -2.357  0.00  0.00    +0.010 A 
ATOM     10  C   UNL     1       1.399   2.981  -2.852  0.00  0.00    +0.002 A 
ATOM     11  C   UNL     1       0.716   3.526  -3.938  0.00  0.00    +0.010 A 
ATOM     12  C   UNL     1       1.159   4.701  -4.509  0.00  0.00    +0.004 A 
ENDBRANCH   1  10
BRANCH   4  13
ATOM     13  C   UNL     1       0.840  -0.873   0.291  0.00  0.00    +0.132 C 
ATOM     14  C   UNL     1       2.289  -1.388   0.328  0.00  0.00    +0.051 C 
ATOM     15  C   UNL     1       2.576  -2.055   1.695  0.00  0.00    +0.168 C 
ATOM     16  S   UNL     1       1.429  -1.169   2.826  0.00  0.00    -0.029 S 
ATOM     17  O   UNL     1       0.494  -2.098   3.357  0.00  0.00    -0.174 OA
ATOM     18  O   UNL     1       2.188  -0.357   3.712  0.00  0.00    -0.174 OA
ATOM     19  C   UNL     1       0.572  -0.087   1.606  0.00  0.00    +0.192 C 
ENDBRANCH   4  13
BRANCH   3  20
ATOM     20  N   UNL     1      -1.099  -1.240  -2.024  0.00  0.00    -0.200 N 
ATOM     21  H   UNL     1      -1.253  -1.842  -1.279  0.00  0.00    +0.175 HD
BRANCH  20  22
ATOM     22  S   UNL     1      -1.886  -1.479  -3.461  0.00  0.00    +0.077 S 
ATOM     23  O   UNL     1      -2.656  -2.664  -3.309  0.00  0.00    -0.150 OA
ATOM     24  O   UNL     1      -2.468  -0.233  -3.818  0.00  0.00    -0.150 OA
BRANCH  22  25
ATOM     25  C   UNL     1      -0.658  -1.829  -4.675  0.00  0.00    +0.151 A 
ATOM     26  C   UNL     1       0.076  -2.962  -4.762  0.00  0.00    +0.060 A 
ATOM     27  N   UNL     1       0.899  -2.839  -5.824  0.00  0.00    -0.280 N 
ATOM     28  H   UNL     1       1.561  -3.519  -6.138  0.00  0.00    +0.189 HD
ATOM     29  N   UNL     1       0.662  -1.588  -6.410  0.00  0.00    -0.177 NA
ATOM     30  C   UNL     1      -0.275  -0.987  -5.724  0.00  0.00    +0.087 A 
ATOM     31  C   UNL     1      -0.842   0.380  -6.012  0.00  0.00    +0.069 C 
ATOM     32  C   UNL     1      -0.009  -4.149  -3.837  0.00  0.00    +0.067 C 
ENDBRANCH  22  25
ENDBRANCH  20  22
ENDBRANCH   3  20
TORSDOF 5
