REMARK  Name = ZINC64143444
REMARK  4 active torsions:
REMARK  status: ('A' for Active; 'I' for Inactive)
REMARK    1  A    between atoms: C_1  and  C_2
REMARK    2  A    between atoms: C_11  and  C_13
REMARK    3  A    between atoms: N_29  and  C_30
REMARK    4  A    between atoms: C_30  and  C_31
REMARK                            x       y       z     vdW  Elec       q    Type
REMARK                         _______ _______ _______ _____ _____    ______ ____
ROOT
ATOM      1  C   UNL     1       0.480   1.498   0.386  0.00  0.00    +0.014 C 
ATOM      2  C   UNL     1       0.239   0.000   0.186  0.00  0.00    +0.044 C 
ATOM      3  C   UNL     1       0.614  -0.373  -1.224  0.00  0.00    +0.028 A 
ATOM      4  C   UNL     1       0.389   0.366  -2.397  0.00  0.00    +0.127 A 
ATOM      5  N   UNL     1       0.775  -0.124  -3.568  0.00  0.00    -0.221 NA
ATOM      6  C   UNL     1       1.368  -1.296  -3.666  0.00  0.00    +0.224 A 
ATOM      7  N   UNL     1       1.609  -2.027  -2.594  0.00  0.00    -0.229 NA
ATOM      8  C   UNL     1       1.259  -1.597  -1.392  0.00  0.00    +0.106 A 
ATOM      9  S   UNL     1       1.461  -2.287   0.234  0.00  0.00    -0.092 S 
ATOM     10  C   UNL     1       1.070  -0.788   1.224  0.00  0.00    +0.146 C 
ATOM     11  N   UNL     1      -0.234   1.603  -2.331  0.00  0.00    -0.325 N 
ATOM     12  H   UNL     1      -0.475   1.980  -1.470  0.00  0.00    +0.148 HD
ENDROOT
BRANCH  10  13
ATOM     13  C   UNL     1       2.321  -0.041   1.608  0.00  0.00    +0.230 C 
ATOM     14  O   UNL     1       2.847   0.709   0.813  0.00  0.00    -0.274 OA
ATOM     15  N   UNL     1       2.855  -0.206   2.834  0.00  0.00    -0.298 N 
ATOM     16  C   UNL     1       2.159  -1.034   3.824  0.00  0.00    +0.112 C 
ATOM     17  C   UNL     1       3.089  -2.171   4.286  0.00  0.00    +0.052 C 
ATOM     18  C   UNL     1       4.434  -1.546   4.556  0.00  0.00    -0.036 C 
ATOM     19  C   UNL     1       5.231  -1.600   5.617  0.00  0.00    -0.001 A 
ATOM     20  C   UNL     1       5.146  -2.373   6.867  0.00  0.00    +0.010 A 
ATOM     21  C   UNL     1       6.144  -2.168   7.767  0.00  0.00    +0.001 A 
ATOM     22  C   UNL     1       7.205  -1.282   7.551  0.00  0.00    +0.002 A 
ATOM     23  C   UNL     1       7.366  -0.538   6.429  0.00  0.00    +0.026 A 
ATOM     24  C   UNL     1       6.384  -0.673   5.405  0.00  0.00    +0.043 A 
ATOM     25  N   UNL     1       6.304  -0.109   4.236  0.00  0.00    -0.376 N 
ATOM     26  C   UNL     1       5.134  -0.648   3.542  0.00  0.00    +0.124 C 
ATOM     27  C   UNL     1       4.134   0.443   3.165  0.00  0.00    +0.136 C 
ATOM     28  H   UNL     1       6.915   0.557   3.884  0.00  0.00    +0.160 HD
ENDBRANCH  10  13
BRANCH  11  29
ATOM     29  C   UNL     1      -0.529   2.341  -3.562  0.00  0.00    +0.138 C 
BRANCH  29  30
ATOM     30  C   UNL     1      -1.202   3.644  -3.217  0.00  0.00    -0.027 A 
ATOM     31  C   UNL     1      -2.580   3.704  -3.118  0.00  0.00    +0.009 A 
ATOM     32  C   UNL     1      -3.202   4.897  -2.802  0.00  0.00    +0.050 A 
ATOM     33  C   UNL     1      -2.446   6.037  -2.583  0.00  0.00    +0.166 A 
ATOM     34  C   UNL     1      -1.058   5.977  -2.682  0.00  0.00    +0.167 A 
ATOM     35  C   UNL     1      -0.441   4.776  -2.994  0.00  0.00    +0.054 A 
ATOM     36  O   UNL     1      -0.548   7.217  -2.425  0.00  0.00    -0.453 OA
ATOM     37  C   UNL     1      -1.656   8.125  -2.569  0.00  0.00    +0.466 C 
ATOM     38  O   UNL     1      -2.805   7.314  -2.263  0.00  0.00    -0.453 OA
ENDBRANCH  29  30
ENDBRANCH  11  29
TORSDOF 3
