REMARK  Name = ZINC09489959
REMARK  15 active torsions:
REMARK  status: ('A' for Active; 'I' for Inactive)
REMARK    1  A    between atoms: C_1  and  C_2
REMARK    2  A    between atoms: C_2  and  C_3
REMARK    3  A    between atoms: C_2  and  C_4
REMARK    4  A    between atoms: C_2  and  C_5
REMARK    5  A    between atoms: C_5  and  C_6
REMARK    6  A    between atoms: C_6  and  C_7
REMARK    7  A    between atoms: C_6  and  C_8
REMARK    8  A    between atoms: C_6  and  N_9
REMARK    9  A    between atoms: C_10  and  C_12
REMARK   10  A    between atoms: C_17  and  C_33
REMARK   11  A    between atoms: C_20  and  C_23
REMARK   12  A    between atoms: C_26  and  O_31
REMARK   13  A    between atoms: C_27  and  O_29
REMARK   14  A    between atoms: O_29  and  C_30
REMARK   15  A    between atoms: O_31  and  C_32
REMARK                            x       y       z     vdW  Elec       q    Type
REMARK                         _______ _______ _______ _____ _____    ______ ____
ROOT
ATOM      1  C   UNL     1       2.259   6.165  -3.543  0.00  0.00    +0.149 A 
ATOM      2  C   UNL     1       1.043   5.487  -3.300  0.00  0.00    +0.078 A 
ATOM      3  C   UNL     1       1.099   4.988  -2.049  0.00  0.00    +0.119 A 
ATOM      4  N   UNL     1       2.304   5.334  -1.506  0.00  0.00    -0.238 N 
ATOM      5  N   UNL     1       3.009   6.067  -2.460  0.00  0.00    -0.164 NA
ATOM      6  C   UNL     1       2.720   4.967  -0.149  0.00  0.00    +0.215 C 
ATOM      7  C   UNL     1       1.474   4.603   0.674  0.00  0.00    +0.063 C 
ATOM      8  C   UNL     1       0.616   3.599  -0.104  0.00  0.00    +0.104 C 
ATOM      9  N   UNL     1       0.148   4.240  -1.348  0.00  0.00    -0.322 N 
ATOM     10  H   UNL     1      -0.765   4.148  -1.661  0.00  0.00    +0.148 HD
ENDROOT
BRANCH   8  11
ATOM     11  C   UNL     1       1.440   2.383  -0.440  0.00  0.00    -0.024 A 
ATOM     12  C   UNL     1       2.317   2.417  -1.508  0.00  0.00    +0.009 A 
ATOM     13  C   UNL     1       3.075   1.304  -1.820  0.00  0.00    +0.050 A 
ATOM     14  C   UNL     1       2.957   0.150  -1.062  0.00  0.00    +0.162 A 
ATOM     15  C   UNL     1       2.070   0.114   0.010  0.00  0.00    +0.162 A 
ATOM     16  C   UNL     1       1.317   1.235   0.321  0.00  0.00    +0.054 A 
BRANCH  15  17
ATOM     17  O   UNL     1       1.946  -1.018   0.753  0.00  0.00    -0.491 OA
ATOM     18  C   UNL     1       1.016  -0.983   1.838  0.00  0.00    +0.277 C 
ENDBRANCH  15  17
BRANCH  14  19
ATOM     19  O   UNL     1       3.701  -0.946  -1.368  0.00  0.00    -0.491 OA
ATOM     20  C   UNL     1       4.586  -0.838  -2.485  0.00  0.00    +0.277 C 
ENDBRANCH  14  19
ENDBRANCH   8  11
BRANCH   1  22
ATOM     21  N   UNL     1       3.824   7.475  -4.894  0.00  0.00    -0.305 N 
ATOM     22  C   UNL     1       2.627   6.864  -4.792  0.00  0.00    +0.265 C 
ATOM     23  O   UNL     1       1.850   6.888  -5.726  0.00  0.00    -0.268 OA
ATOM     24  H   UNL     1       4.444   7.456  -4.149  0.00  0.00    +0.150 HD
BRANCH  21  25
ATOM     25  C   UNL     1       4.189   8.167  -6.133  0.00  0.00    +0.030 C 
ATOM     26  C   UNL     1       4.099   7.192  -7.308  0.00  0.00    +0.031 C 
ATOM     27  C   UNL     1       3.229   9.336  -6.365  0.00  0.00    +0.031 C 
BRANCH  25  28
ATOM     28  C   UNL     1       5.619   8.697  -6.018  0.00  0.00    +0.031 C 
BRANCH  28  30
ATOM     29  C   UNL     1       5.024   9.321  -3.673  0.00  0.00    +0.010 C 
ATOM     30  C   UNL     1       5.668   9.812  -4.971  0.00  0.00    -0.036 C 
ATOM     31  C   UNL     1       7.124  10.197  -4.704  0.00  0.00    +0.010 C 
ATOM     32  C   UNL     1       4.904  11.032  -5.489  0.00  0.00    +0.010 C 
ENDBRANCH  28  30
ENDBRANCH  25  28
ENDBRANCH  21  25
ENDBRANCH   1  22
BRANCH   6  33
ATOM     33  C   UNL     1       3.437   6.151   0.504  0.00  0.00    +0.412 C 
ATOM     34  F   UNL     1       2.569   7.246   0.563  0.00  0.00    -0.168 F 
ATOM     35  F   UNL     1       3.833   5.799   1.799  0.00  0.00    -0.168 F 
ATOM     36  F   UNL     1       4.564   6.489  -0.253  0.00  0.00    -0.168 F 
ENDBRANCH   6  33
TORSDOF 8
