REMARK  Name = ZINC33603412
REMARK  10 active torsions:
REMARK  status: ('A' for Active; 'I' for Inactive)
REMARK    1  A    between atoms: C_1  and  C_2
REMARK    2  A    between atoms: C_2  and  C_3
REMARK    3  A    between atoms: C_7  and  C_40
REMARK    4  A    between atoms: C_8  and  N_9
REMARK    5  A    between atoms: C_14  and  C_32
REMARK    6  A    between atoms: C_17  and  C_22
REMARK    7  A    between atoms: C_17  and  C_29
REMARK    8  A    between atoms: C_22  and  C_23
REMARK    9  A    between atoms: C_35  and  C_38
REMARK   10  A    between atoms: C_40  and  C_41
REMARK                            x       y       z     vdW  Elec       q    Type
REMARK                         _______ _______ _______ _____ _____    ______ ____
ROOT
ATOM      1  N   UNL     1       2.859   3.484  -0.879  0.00  0.00    -0.209 N 
ATOM      2  C   UNL     1       3.356   2.205  -0.829  0.00  0.00    +0.229 C 
ATOM      3  O   UNL     1       4.515   1.861  -0.916  0.00  0.00    -0.275 OA
ATOM      4  C   UNL     1       2.201   1.361  -0.650  0.00  0.00    +0.077 C 
ATOM      5  C   UNL     1       1.841   0.012  -0.182  0.00  0.00    -0.027 C 
ATOM      6  N   UNL     1       0.341   0.088  -0.103  0.00  0.00    +0.395 N 
ATOM      7  C   UNL     1      -0.036   1.528   0.036  0.00  0.00    +0.048 C 
ATOM      8  C   UNL     1       1.272   2.274   0.238  0.00  0.00    +0.086 C 
ATOM      9  C   UNL     1       1.555   3.560  -0.473  0.00  0.00    +0.229 C 
ATOM     10  O   UNL     1       0.787   4.480  -0.653  0.00  0.00    -0.275 OA
ATOM     11  H   UNL     1      -0.096  -0.335  -1.019  0.00  0.00    -0.083 HD
ATOM     12  H   UNL     1      -0.010  -0.484   0.769  0.00  0.00    -0.083 HD
ENDROOT
BRANCH   1  18
ATOM     13  C   UNL     1       3.620   4.954  -2.641  0.00  0.00    -0.026 A 
ATOM     14  C   UNL     1       4.353   6.049  -3.053  0.00  0.00    +0.005 A 
ATOM     15  C   UNL     1       5.083   6.780  -2.133  0.00  0.00    +0.001 A 
ATOM     16  C   UNL     1       5.077   6.419  -0.798  0.00  0.00    +0.005 A 
ATOM     17  C   UNL     1       4.340   5.327  -0.380  0.00  0.00    -0.026 A 
ATOM     18  C   UNL     1       3.607   4.593  -1.301  0.00  0.00    +0.050 A 
BRANCH  13  20
ATOM     19  C   UNL     1       1.385   4.659  -3.675  0.00  0.00    +0.009 C 
ATOM     20  C   UNL     1       2.829   4.155  -3.645  0.00  0.00    +0.033 C 
ENDBRANCH  13  20
BRANCH  17  21
ATOM     21  C   UNL     1       4.334   4.935   1.075  0.00  0.00    +0.033 C 
ATOM     22  C   UNL     1       5.389   3.855   1.317  0.00  0.00    +0.009 C 
ENDBRANCH  17  21
ENDBRANCH   1  18
BRANCH   5  23
ATOM     23  C   UNL     1       2.272  -1.034  -1.177  0.00  0.00    -0.061 A 
ATOM     24  C   UNL     1       1.564  -1.198  -2.355  0.00  0.00    +0.003 A 
ATOM     25  C   UNL     1       1.957  -2.150  -3.272  0.00  0.00    +0.019 A 
ATOM     26  C   UNL     1       3.065  -2.957  -3.006  0.00  0.00    +0.052 A 
ATOM     27  C   UNL     1       3.771  -2.790  -1.813  0.00  0.00    +0.019 A 
ATOM     28  C   UNL     1       3.371  -1.830  -0.906  0.00  0.00    +0.003 A 
BRANCH  26  29
ATOM     29  C   UNL     1       3.474  -3.952  -3.951  0.00  0.00    +0.099 C 
ATOM     30  N   UNL     1       3.799  -4.741  -4.700  0.00  0.00    -0.191 NA
ENDBRANCH  26  29
ENDBRANCH   5  23
BRANCH   7  31
ATOM     31  C   UNL     1      -0.935   1.718   1.230  0.00  0.00    +0.346 C 
ATOM     32  O   UNL     1      -0.839   2.715   1.906  0.00  0.00    -0.248 OA
ATOM     33  O   UNL     1      -1.843   0.780   1.544  0.00  0.00    -0.248 OA
ENDBRANCH   7  31
BRANCH   7  34
ATOM     34  C   UNL     1      -0.734   2.016  -1.236  0.00  0.00    +0.003 C 
BRANCH  34  35
ATOM     35  C   UNL     1      -2.131   1.398  -1.321  0.00  0.00    -0.012 C 
ATOM     36  C   UNL     1      -2.010  -0.125  -1.407  0.00  0.00    +0.003 C 
ATOM     37  C   UNL     1      -3.406  -0.744  -1.493  0.00  0.00    +0.000 C 
ATOM     38  C   UNL     1      -4.122  -0.217  -2.738  0.00  0.00    +0.000 C 
ATOM     39  C   UNL     1      -4.243   1.305  -2.652  0.00  0.00    +0.000 C 
ATOM     40  C   UNL     1      -2.846   1.924  -2.567  0.00  0.00    +0.003 C 
ENDBRANCH  34  35
ENDBRANCH   7  34
TORSDOF 8
