REMARK  Name = ZINC21251090
REMARK  13 active torsions:
REMARK  status: ('A' for Active; 'I' for Inactive)
REMARK    1  A    between atoms: C_1  and  C_2
REMARK    2  A    between atoms: C_2  and  O_3
REMARK    3  A    between atoms: O_3  and  C_4
REMARK    4  A    between atoms: C_6  and  C_14
REMARK    5  A    between atoms: C_9  and  O_10
REMARK    6  A    between atoms: O_10  and  C_11
REMARK    7  A    between atoms: C_11  and  C_12
REMARK    8  A    between atoms: C_11  and  C_13
REMARK    9  A    between atoms: C_19  and  C_24
REMARK   10  A    between atoms: C_27  and  O_32
REMARK   11  A    between atoms: C_28  and  O_30
REMARK   12  A    between atoms: O_30  and  C_31
REMARK   13  A    between atoms: O_32  and  C_33
REMARK                            x       y       z     vdW  Elec       q    Type
REMARK                         _______ _______ _______ _____ _____    ______ ____
ROOT
ATOM      1  C   UNL     1      -2.482   0.927   0.122  0.00  0.00    +0.136 C 
ATOM      2  C   UNL     1      -2.623   0.194  -1.190  0.00  0.00    +0.036 C 
ATOM      3  C   UNL     1      -2.515  -1.134  -1.367  0.00  0.00    +0.017 C 
ATOM      4  C   UNL     1      -2.693  -1.746  -2.746  0.00  0.00    +0.059 C 
ATOM      5  C   UNL     1      -2.208  -0.770  -3.816  0.00  0.00    +0.032 C 
ATOM      6  C   UNL     1      -3.038   0.513  -3.688  0.00  0.00    +0.088 C 
ATOM      7  C   UNL     1      -2.889   1.040  -2.293  0.00  0.00    +0.163 C 
ATOM      8  O   UNL     1      -3.000   2.235  -2.102  0.00  0.00    -0.292 OA
ATOM      9  N   UNL     1      -2.265  -2.027  -0.375  0.00  0.00    -0.316 N 
ATOM     10  C   UNL     1      -1.284  -1.881   0.599  0.00  0.00    +0.052 A 
ATOM     11  C   UNL     1      -0.197  -2.732   0.690  0.00  0.00    +0.025 A 
ATOM     12  C   UNL     1       0.718  -2.558   1.714  0.00  0.00    +0.002 A 
ATOM     13  C   UNL     1       0.545  -1.545   2.639  0.00  0.00    +0.002 A 
ATOM     14  C   UNL     1      -0.532  -0.681   2.539  0.00  0.00    +0.025 A 
ATOM     15  C   UNL     1      -1.437  -0.839   1.501  0.00  0.00    +0.049 A 
ATOM     16  N   UNL     1      -2.468   0.071   1.289  0.00  0.00    -0.331 N 
ATOM     17  H   UNL     1      -2.861  -2.949  -0.301  0.00  0.00    +0.152 HD
ATOM     18  H   UNL     1      -3.282   0.133   2.027  0.00  0.00    +0.147 HD
ENDROOT
BRANCH   1  21
ATOM     19  C   UNL     1      -0.054   3.821   0.143  0.00  0.00    +0.162 A 
ATOM     20  C   UNL     1      -1.233   3.095   0.176  0.00  0.00    +0.055 A 
ATOM     21  C   UNL     1      -1.198   1.715   0.093  0.00  0.00    -0.019 A 
ATOM     22  C   UNL     1       0.013   1.057  -0.011  0.00  0.00    +0.009 A 
ATOM     23  C   UNL     1       1.194   1.775  -0.044  0.00  0.00    +0.050 A 
ATOM     24  C   UNL     1       1.165   3.159   0.033  0.00  0.00    +0.162 A 
BRANCH  19  25
ATOM     25  O   UNL     1      -0.087   5.179   0.218  0.00  0.00    -0.489 OA
BRANCH  25  27
ATOM     26  C   UNL     1      -1.211   7.310   0.401  0.00  0.00    +0.048 C 
ATOM     27  C   UNL     1      -1.374   5.791   0.330  0.00  0.00    +0.226 C 
ENDBRANCH  25  27
ENDBRANCH  19  25
BRANCH  24  28
ATOM     28  O   UNL     1       2.325   3.867  -0.000  0.00  0.00    -0.486 OA
BRANCH  28  29
ATOM     29  C   UNL     1       3.527   3.132  -0.237  0.00  0.00    +0.167 C 
ATOM     30  C   UNL     1       4.584   4.062  -0.838  0.00  0.00    +0.051 C 
ATOM     31  C   UNL     1       4.044   2.560   1.085  0.00  0.00    +0.051 C 
ENDBRANCH  28  29
ENDBRANCH  24  28
ENDBRANCH   1  21
BRANCH   5  32
ATOM     32  C   UNL     1      -2.406  -1.373  -5.184  0.00  0.00    -0.040 A 
ATOM     33  C   UNL     1      -3.675  -1.722  -5.606  0.00  0.00    +0.008 A 
ATOM     34  C   UNL     1      -3.861  -2.275  -6.859  0.00  0.00    +0.049 A 
ATOM     35  C   UNL     1      -2.775  -2.479  -7.695  0.00  0.00    +0.161 A 
ATOM     36  C   UNL     1      -1.498  -2.127  -7.270  0.00  0.00    +0.162 A 
ATOM     37  C   UNL     1      -1.318  -1.569  -6.015  0.00  0.00    +0.053 A 
BRANCH  36  38
ATOM     38  O   UNL     1      -0.429  -2.326  -8.087  0.00  0.00    -0.491 OA
ATOM     39  C   UNL     1       0.852  -1.940  -7.584  0.00  0.00    +0.277 C 
ENDBRANCH  36  38
BRANCH  35  40
ATOM     40  O   UNL     1      -2.957  -3.023  -8.929  0.00  0.00    -0.491 OA
ATOM     41  C   UNL     1      -4.296  -3.359  -9.298  0.00  0.00    +0.277 C 
ENDBRANCH  35  40
ENDBRANCH   5  32
TORSDOF 8
