REMARK  Name = ZINC06177977
REMARK  8 active torsions:
REMARK  status: ('A' for Active; 'I' for Inactive)
REMARK    1  A    between atoms: C_1  and  C_2
REMARK    2  A    between atoms: C_4  and  C_40
REMARK    3  A    between atoms: C_9  and  C_14
REMARK    4  A    between atoms: C_14  and  C_16
REMARK    5  A    between atoms: C_14  and  N_70
REMARK    6  A    between atoms: N_20  and  C_21
REMARK    7  A    between atoms: C_21  and  C_22
REMARK    8  A    between atoms: N_30  and  C_33
REMARK                            x       y       z     vdW  Elec       q    Type
REMARK                         _______ _______ _______ _____ _____    ______ ____
ROOT
ATOM      1  C   UNL     1      -2.604   3.705   0.048  0.00  0.00    +0.039 C 
ENDROOT
BRANCH   1  10
ATOM      2  C   UNL     1       4.776   4.490   0.778  0.00  0.00    +0.044 C 
ATOM      3  C   UNL     1       3.558   3.621   0.603  0.00  0.00    -0.050 A 
ATOM      4  C   UNL     1       3.703   2.243   0.516  0.00  0.00    +0.008 A 
ATOM      5  C   UNL     1       2.603   1.428   0.356  0.00  0.00    -0.026 A 
ATOM      6  C   UNL     1       1.333   1.991   0.281  0.00  0.00    +0.052 A 
ATOM      7  C   UNL     1       1.189   3.388   0.371  0.00  0.00    -0.001 A 
ATOM      8  C   UNL     1       2.320   4.195   0.533  0.00  0.00    +0.013 A 
ATOM      9  C   UNL     1      -0.151   3.970   0.291  0.00  0.00    +0.017 A 
ATOM     10  C   UNL     1      -1.211   3.139   0.134  0.00  0.00    +0.011 A 
ATOM     11  C   UNL     1      -1.012   1.744   0.043  0.00  0.00    +0.251 A 
ATOM     12  O   UNL     1      -1.977   1.015  -0.104  0.00  0.00    -0.268 OA
ATOM     13  N   UNL     1       0.215   1.200   0.121  0.00  0.00    -0.322 N 
ATOM     14  H   UNL     1       0.315   0.237   0.060  0.00  0.00    +0.169 HD
ATOM     15  C   UNL     1       2.775  -0.066   0.263  0.00  0.00    +0.046 C 
ENDBRANCH   1  10
BRANCH   1  21
ATOM     16  C   UNL     1      -4.817   3.620   1.029  0.00  0.00    -0.058 C 
ATOM     17  C   UNL     1      -5.665   2.937   2.104  0.00  0.00    +0.086 C 
ATOM     18  N   UNL     1      -5.090   3.216   3.428  0.00  0.00    -0.331 N 
ATOM     19  C   UNL     1      -3.708   2.724   3.513  0.00  0.00    +0.086 C 
ATOM     20  C   UNL     1      -2.860   3.408   2.438  0.00  0.00    -0.058 C 
ATOM     21  N   UNL     1      -3.435   3.101   1.111  0.00  0.00    +0.391 N 
ATOM     22  H   UNL     1      -3.453   2.083   0.982  0.00  0.00    -0.080 HD
BRANCH  18  23
ATOM     23  C   UNL     1      -5.880   2.667   4.443  0.00  0.00    +0.065 A 
ATOM     24  C   UNL     1      -5.553   2.885   5.774  0.00  0.00    +0.026 A 
ATOM     25  C   UNL     1      -6.336   2.341   6.775  0.00  0.00    +0.002 A 
ATOM     26  C   UNL     1      -7.444   1.580   6.453  0.00  0.00    +0.003 A 
ATOM     27  C   UNL     1      -7.774   1.360   5.128  0.00  0.00    +0.040 A 
ATOM     28  C   UNL     1      -6.999   1.905   4.121  0.00  0.00    +0.144 A 
ATOM     29  F   UNL     1      -7.324   1.695   2.827  0.00  0.00    -0.204 F 
ENDBRANCH  18  23
ENDBRANCH   1  21
BRANCH   1  30
ATOM     30  C   UNL     1      -3.203   3.367  -1.293  0.00  0.00    +0.143 A 
ATOM     31  N   UNL     1      -3.659   2.199  -1.674  0.00  0.00    -0.115 NA
ATOM     32  N   UNL     1      -4.087   2.313  -2.884  0.00  0.00    -0.023 NA
ATOM     33  N   UNL     1      -3.915   3.525  -3.285  0.00  0.00    -0.044 NA
ATOM     34  N   UNL     1      -3.377   4.206  -2.331  0.00  0.00    -0.228 N 
BRANCH  34  35
ATOM     35  C   UNL     1      -3.020   5.627  -2.370  0.00  0.00    +0.178 C 
BRANCH  35  36
ATOM     36  C   UNL     1      -1.586   5.778  -2.882  0.00  0.00    +0.140 C 
ATOM     37  C   UNL     1      -1.206   7.276  -2.983  0.00  0.00    +0.035 C 
ATOM     38  C   UNL     1       0.341   7.197  -2.865  0.00  0.00    +0.031 C 
ATOM     39  C   UNL     1       0.535   6.010  -1.898  0.00  0.00    +0.160 C 
ATOM     40  O   UNL     1      -0.658   5.218  -1.938  0.00  0.00    -0.375 OA
ENDBRANCH  35  36
ENDBRANCH  34  35
ENDBRANCH   1  30
TORSDOF 6
